MODEL 1
REMARK VINA RESULT:      -6.9      0.000      0.000
REMARK  Name = 
REMARK  3 active torsions:
REMARK  status: ('A' for Active; 'I' for Inactive)
REMARK    1  A    between atoms: C_2  and  C_12
REMARK    2  A    between atoms: N_3  and  C_4
REMARK    3  A    between atoms: C_4  and  N_6
REMARK                            x       y       z     vdW  Elec       q    Type
REMARK                         _______ _______ _______ _____ _____    ______ ____
ROOT
ATOM      1  O   UNL     1       3.877   5.659  19.834  0.00  0.00    +0.000 OA
ATOM      2  C   UNL     1       3.378   6.087  18.794  0.00  0.00    +0.000 C 
ATOM      3  N   UNL     1       3.445   5.434  17.569  0.00  0.00    +0.000 N 
ATOM      4  H   UNL     1       2.875   5.813  16.821  0.00  0.00    +0.000 HD
ENDROOT
BRANCH   2   5
ATOM      5  C   UNL     1       2.569   7.336  18.890  0.00  0.00    +0.000 A 
ATOM      6  C   UNL     1       2.605   8.219  17.790  0.00  0.00    +0.000 A 
ATOM      7  C   UNL     1       1.912   9.426  17.823  0.00  0.00    +0.000 A 
ATOM      8  C   UNL     1       1.178   9.763  18.952  0.00  0.00    +0.000 A 
ATOM      9  F   UNL     1       0.526  10.932  18.990  0.00  0.00    +0.000 F 
ATOM     10  C   UNL     1       1.109   8.901  20.043  0.00  0.00    +0.000 A 
ATOM     11  C   UNL     1       1.797   7.689  19.999  0.00  0.00    +0.000 A 
ATOM     12  F   UNL     1       1.695   6.867  21.054  0.00  0.00    +0.000 F 
ENDBRANCH   2   5
BRANCH   3  13
ATOM     13  C   UNL     1       4.244   4.350  17.190  0.00  0.00    +0.000 C 
ATOM     14  S   UNL     1       3.931   2.744  17.592  0.00  0.00    +0.000 S 
BRANCH  13  15
ATOM     15  N   UNL     1       5.392   4.737  16.449  0.00  0.00    +0.000 N 
ATOM     16  C   UNL     1       5.384   4.773  14.983  0.00  0.00    +0.000 C 
ATOM     17  C   UNL     1       6.851   4.843  14.604  0.00  0.00    +0.000 C 
ATOM     18  N   UNL     1       7.447   5.459  15.750  0.00  0.00    +0.000 N 
ATOM     19  C   UNL     1       6.645   5.290  16.874  0.00  0.00    +0.000 C 
ATOM     20  S   UNL     1       7.170   5.724  18.383  0.00  0.00    +0.000 S 
ATOM     21  H   UNL     1       8.419   5.732  15.836  0.00  0.00    +0.000 HD
ENDBRANCH  13  15
ENDBRANCH   3  13
TORSDOF 3
ENDMDL
MODEL 2
REMARK VINA RESULT:      -6.8      1.618      2.035
REMARK  Name = 
REMARK  3 active torsions:
REMARK  status: ('A' for Active; 'I' for Inactive)
REMARK    1  A    between atoms: C_2  and  C_12
REMARK    2  A    between atoms: N_3  and  C_4
REMARK    3  A    between atoms: C_4  and  N_6
REMARK                            x       y       z     vdW  Elec       q    Type
REMARK                         _______ _______ _______ _____ _____    ______ ____
ROOT
ATOM      1  O   UNL     1       2.056   5.433  17.780  0.00  0.00    +0.000 OA
ATOM      2  C   UNL     1       2.698   5.988  18.671  0.00  0.00    +0.000 C 
ATOM      3  N   UNL     1       3.953   5.576  19.103  0.00  0.00    +0.000 N 
ATOM      4  H   UNL     1       4.440   6.197  19.740  0.00  0.00    +0.000 HD
ENDROOT
BRANCH   2   5
ATOM      5  C   UNL     1       2.124   7.239  19.245  0.00  0.00    +0.000 A 
ATOM      6  C   UNL     1       1.728   7.210  20.599  0.00  0.00    +0.000 A 
ATOM      7  C   UNL     1       1.142   8.325  21.194  0.00  0.00    +0.000 A 
ATOM      8  C   UNL     1       0.947   9.476  20.445  0.00  0.00    +0.000 A 
ATOM      9  F   UNL     1       0.368  10.542  21.013  0.00  0.00    +0.000 F 
ATOM     10  C   UNL     1       1.348   9.539  19.114  0.00  0.00    +0.000 A 
ATOM     11  C   UNL     1       1.942   8.423  18.526  0.00  0.00    +0.000 A 
ATOM     12  F   UNL     1       2.340   8.517  17.249  0.00  0.00    +0.000 F 
ENDBRANCH   2   5
BRANCH   3  13
ATOM     13  C   UNL     1       4.630   4.381  18.835  0.00  0.00    +0.000 C 
ATOM     14  S   UNL     1       4.362   2.929  19.645  0.00  0.00    +0.000 S 
BRANCH  13  15
ATOM     15  N   UNL     1       5.613   4.514  17.820  0.00  0.00    +0.000 N 
ATOM     16  C   UNL     1       5.307   4.243  16.413  0.00  0.00    +0.000 C 
ATOM     17  C   UNL     1       6.666   4.118  15.752  0.00  0.00    +0.000 C 
ATOM     18  N   UNL     1       7.505   4.913  16.597  0.00  0.00    +0.000 N 
ATOM     19  C   UNL     1       6.945   5.046  17.863  0.00  0.00    +0.000 C 
ATOM     20  S   UNL     1       7.783   5.745  19.108  0.00  0.00    +0.000 S 
ATOM     21  H   UNL     1       8.483   5.122  16.431  0.00  0.00    +0.000 HD
ENDBRANCH  13  15
ENDBRANCH   3  13
TORSDOF 3
ENDMDL
MODEL 3
REMARK VINA RESULT:      -6.8      1.225      1.225
REMARK  Name = 
REMARK  3 active torsions:
REMARK  status: ('A' for Active; 'I' for Inactive)
REMARK    1  A    between atoms: C_2  and  C_12
REMARK    2  A    between atoms: N_3  and  C_4
REMARK    3  A    between atoms: C_4  and  N_6
REMARK                            x       y       z     vdW  Elec       q    Type
REMARK                         _______ _______ _______ _____ _____    ______ ____
ROOT
ATOM      1  O   UNL     1       1.989   5.401  17.634  0.00  0.00    +0.000 OA
ATOM      2  C   UNL     1       2.668   6.052  18.427  0.00  0.00    +0.000 C 
ATOM      3  N   UNL     1       3.950   5.699  18.831  0.00  0.00    +0.000 N 
ATOM      4  H   UNL     1       4.461   6.387  19.373  0.00  0.00    +0.000 HD
ENDROOT
BRANCH   2   5
ATOM      5  C   UNL     1       2.107   7.351  18.898  0.00  0.00    +0.000 A 
ATOM      6  C   UNL     1       2.035   8.405  17.964  0.00  0.00    +0.000 A 
ATOM      7  C   UNL     1       1.565   9.660  18.340  0.00  0.00    +0.000 A 
ATOM      8  C   UNL     1       1.162   9.875  19.651  0.00  0.00    +0.000 A 
ATOM      9  F   UNL     1       0.727  11.087  20.017  0.00  0.00    +0.000 F 
ATOM     10  C   UNL     1       1.202   8.847  20.588  0.00  0.00    +0.000 A 
ATOM     11  C   UNL     1       1.666   7.589  20.202  0.00  0.00    +0.000 A 
ATOM     12  F   UNL     1       1.673   6.610  21.118  0.00  0.00    +0.000 F 
ENDBRANCH   2   5
BRANCH   3  13
ATOM     13  C   UNL     1       4.629   4.489  18.653  0.00  0.00    +0.000 C 
ATOM     14  S   UNL     1       4.309   3.077  19.514  0.00  0.00    +0.000 S 
BRANCH  13  15
ATOM     15  N   UNL     1       5.664   4.569  17.684  0.00  0.00    +0.000 N 
ATOM     16  C   UNL     1       5.412   4.294  16.266  0.00  0.00    +0.000 C 
ATOM     17  C   UNL     1       6.794   4.105  15.671  0.00  0.00    +0.000 C 
ATOM     18  N   UNL     1       7.625   4.874  16.547  0.00  0.00    +0.000 N 
ATOM     19  C   UNL     1       7.013   5.045  17.784  0.00  0.00    +0.000 C 
ATOM     20  S   UNL     1       7.821   5.722  19.060  0.00  0.00    +0.000 S 
ATOM     21  H   UNL     1       8.618   5.040  16.425  0.00  0.00    +0.000 HD
ENDBRANCH  13  15
ENDBRANCH   3  13
TORSDOF 3
ENDMDL
MODEL 4
REMARK VINA RESULT:      -6.8      4.197      5.897
REMARK  Name = 
REMARK  3 active torsions:
REMARK  status: ('A' for Active; 'I' for Inactive)
REMARK    1  A    between atoms: C_2  and  C_12
REMARK    2  A    between atoms: N_3  and  C_4
REMARK    3  A    between atoms: C_4  and  N_6
REMARK                            x       y       z     vdW  Elec       q    Type
REMARK                         _______ _______ _______ _____ _____    ______ ____
ROOT
ATOM      1  O   UNL     1       4.797   4.016  16.593  0.00  0.00    +0.000 OA
ATOM      2  C   UNL     1       5.227   4.272  17.717  0.00  0.00    +0.000 C 
ATOM      3  N   UNL     1       4.959   3.508  18.848  0.00  0.00    +0.000 N 
ATOM      4  H   UNL     1       5.484   3.736  19.684  0.00  0.00    +0.000 HD
ENDROOT
BRANCH   2   5
ATOM      5  C   UNL     1       6.174   5.416  17.841  0.00  0.00    +0.000 A 
ATOM      6  C   UNL     1       7.184   5.321  18.821  0.00  0.00    +0.000 A 
ATOM      7  C   UNL     1       8.079   6.368  19.028  0.00  0.00    +0.000 A 
ATOM      8  C   UNL     1       7.974   7.518  18.259  0.00  0.00    +0.000 A 
ATOM      9  F   UNL     1       8.823   8.532  18.469  0.00  0.00    +0.000 F 
ATOM     10  C   UNL     1       7.000   7.631  17.271  0.00  0.00    +0.000 A 
ATOM     11  C   UNL     1       6.113   6.575  17.063  0.00  0.00    +0.000 A 
ATOM     12  F   UNL     1       5.200   6.699  16.089  0.00  0.00    +0.000 F 
ENDBRANCH   2   5
BRANCH   3  13
ATOM     13  C   UNL     1       4.009   2.496  19.024  0.00  0.00    +0.000 C 
ATOM     14  S   UNL     1       4.163   0.928  18.429  0.00  0.00    +0.000 S 
BRANCH  13  15
ATOM     15  N   UNL     1       2.859   2.929  19.734  0.00  0.00    +0.000 N 
ATOM     16  C   UNL     1       2.738   2.748  21.184  0.00  0.00    +0.000 C 
ATOM     17  C   UNL     1       1.264   2.970  21.466  0.00  0.00    +0.000 C 
ATOM     18  N   UNL     1       0.860   3.827  20.393  0.00  0.00    +0.000 N 
ATOM     19  C   UNL     1       1.733   3.712  19.316  0.00  0.00    +0.000 C 
ATOM     20  S   UNL     1       1.408   4.434  17.861  0.00  0.00    +0.000 S 
ATOM     21  H   UNL     1      -0.056   4.245  20.283  0.00  0.00    +0.000 HD
ENDBRANCH  13  15
ENDBRANCH   3  13
TORSDOF 3
ENDMDL
MODEL 5
REMARK VINA RESULT:      -6.7      1.308      1.713
REMARK  Name = 
REMARK  3 active torsions:
REMARK  status: ('A' for Active; 'I' for Inactive)
REMARK    1  A    between atoms: C_2  and  C_12
REMARK    2  A    between atoms: N_3  and  C_4
REMARK    3  A    between atoms: C_4  and  N_6
REMARK                            x       y       z     vdW  Elec       q    Type
REMARK                         _______ _______ _______ _____ _____    ______ ____
ROOT
ATOM      1  O   UNL     1       2.723   5.567  20.240  0.00  0.00    +0.000 OA
ATOM      2  C   UNL     1       2.792   6.179  19.175  0.00  0.00    +0.000 C 
ATOM      3  N   UNL     1       3.312   5.645  18.001  0.00  0.00    +0.000 N 
ATOM      4  H   UNL     1       3.183   6.194  17.158  0.00  0.00    +0.000 HD
ENDROOT
BRANCH   2   5
ATOM      5  C   UNL     1       2.186   7.540  19.130  0.00  0.00    +0.000 A 
ATOM      6  C   UNL     1       2.307   8.266  17.927  0.00  0.00    +0.000 A 
ATOM      7  C   UNL     1       1.807   9.561  17.822  0.00  0.00    +0.000 A 
ATOM      8  C   UNL     1       1.181  10.143  18.915  0.00  0.00    +0.000 A 
ATOM      9  F   UNL     1       0.716  11.394  18.819  0.00  0.00    +0.000 F 
ATOM     10  C   UNL     1       1.029   9.442  20.108  0.00  0.00    +0.000 A 
ATOM     11  C   UNL     1       1.524   8.142  20.203  0.00  0.00    +0.000 A 
ATOM     12  F   UNL     1       1.344   7.480  21.356  0.00  0.00    +0.000 F 
ENDBRANCH   2   5
BRANCH   3  13
ATOM     13  C   UNL     1       4.055   4.475  17.816  0.00  0.00    +0.000 C 
ATOM     14  S   UNL     1       3.395   2.926  17.741  0.00  0.00    +0.000 S 
BRANCH  13  15
ATOM     15  N   UNL     1       5.452   4.709  17.734  0.00  0.00    +0.000 N 
ATOM     16  C   UNL     1       6.251   5.019  18.923  0.00  0.00    +0.000 C 
ATOM     17  C   UNL     1       7.550   5.568  18.367  0.00  0.00    +0.000 C 
ATOM     18  N   UNL     1       7.630   4.954  17.077  0.00  0.00    +0.000 N 
ATOM     19  C   UNL     1       6.370   4.555  16.643  0.00  0.00    +0.000 C 
ATOM     20  S   UNL     1       6.125   3.995  15.104  0.00  0.00    +0.000 S 
ATOM     21  H   UNL     1       8.407   5.034  16.431  0.00  0.00    +0.000 HD
ENDBRANCH  13  15
ENDBRANCH   3  13
TORSDOF 3
ENDMDL
MODEL 6
REMARK VINA RESULT:      -6.7      1.097      1.566
REMARK  Name = 
REMARK  3 active torsions:
REMARK  status: ('A' for Active; 'I' for Inactive)
REMARK    1  A    between atoms: C_2  and  C_12
REMARK    2  A    between atoms: N_3  and  C_4
REMARK    3  A    between atoms: C_4  and  N_6
REMARK                            x       y       z     vdW  Elec       q    Type
REMARK                         _______ _______ _______ _____ _____    ______ ____
ROOT
ATOM      1  O   UNL     1       3.627   5.432  20.041  0.00  0.00    +0.000 OA
ATOM      2  C   UNL     1       3.238   5.923  18.981  0.00  0.00    +0.000 C 
ATOM      3  N   UNL     1       3.342   5.294  17.745  0.00  0.00    +0.000 N 
ATOM      4  H   UNL     1       2.858   5.734  16.971  0.00  0.00    +0.000 HD
ENDROOT
BRANCH   2   5
ATOM      5  C   UNL     1       2.523   7.229  19.057  0.00  0.00    +0.000 A 
ATOM      6  C   UNL     1       1.841   7.527  20.255  0.00  0.00    +0.000 A 
ATOM      7  C   UNL     1       1.113   8.707  20.385  0.00  0.00    +0.000 A 
ATOM      8  C   UNL     1       1.060   9.599  19.323  0.00  0.00    +0.000 A 
ATOM      9  F   UNL     1       0.345  10.725  19.443  0.00  0.00    +0.000 F 
ATOM     10  C   UNL     1       1.741   9.340  18.138  0.00  0.00    +0.000 A 
ATOM     11  C   UNL     1       2.476   8.160  18.017  0.00  0.00    +0.000 A 
ATOM     12  F   UNL     1       3.142   7.945  16.873  0.00  0.00    +0.000 F 
ENDBRANCH   2   5
BRANCH   3  13
ATOM     13  C   UNL     1       4.080   4.160  17.392  0.00  0.00    +0.000 C 
ATOM     14  S   UNL     1       3.652   2.580  17.787  0.00  0.00    +0.000 S 
BRANCH  13  15
ATOM     15  N   UNL     1       5.272   4.470  16.684  0.00  0.00    +0.000 N 
ATOM     16  C   UNL     1       5.321   4.459  15.219  0.00  0.00    +0.000 C 
ATOM     17  C   UNL     1       6.802   4.449  14.896  0.00  0.00    +0.000 C 
ATOM     18  N   UNL     1       7.383   5.074  16.044  0.00  0.00    +0.000 N 
ATOM     19  C   UNL     1       6.532   4.979  17.140  0.00  0.00    +0.000 C 
ATOM     20  S   UNL     1       7.021   5.438  18.655  0.00  0.00    +0.000 S 
ATOM     21  H   UNL     1       8.363   5.305  16.160  0.00  0.00    +0.000 HD
ENDBRANCH  13  15
ENDBRANCH   3  13
TORSDOF 3
ENDMDL
MODEL 7
REMARK VINA RESULT:      -6.6      4.730      6.550
REMARK  Name = 
REMARK  3 active torsions:
REMARK  status: ('A' for Active; 'I' for Inactive)
REMARK    1  A    between atoms: C_2  and  C_12
REMARK    2  A    between atoms: N_3  and  C_4
REMARK    3  A    between atoms: C_4  and  N_6
REMARK                            x       y       z     vdW  Elec       q    Type
REMARK                         _______ _______ _______ _____ _____    ______ ____
ROOT
ATOM      1  O   UNL     1       5.363   4.945  19.377  0.00  0.00    +0.000 OA
ATOM      2  C   UNL     1       5.303   4.051  18.534  0.00  0.00    +0.000 C 
ATOM      3  N   UNL     1       4.687   2.821  18.742  0.00  0.00    +0.000 N 
ATOM      4  H   UNL     1       4.577   2.226  17.929  0.00  0.00    +0.000 HD
ENDROOT
BRANCH   2   5
ATOM      5  C   UNL     1       5.840   4.355  17.177  0.00  0.00    +0.000 A 
ATOM      6  C   UNL     1       4.936   4.313  16.096  0.00  0.00    +0.000 A 
ATOM      7  C   UNL     1       5.371   4.542  14.793  0.00  0.00    +0.000 A 
ATOM      8  C   UNL     1       6.711   4.815  14.558  0.00  0.00    +0.000 A 
ATOM      9  F   UNL     1       7.133   5.017  13.303  0.00  0.00    +0.000 F 
ATOM     10  C   UNL     1       7.621   4.884  15.609  0.00  0.00    +0.000 A 
ATOM     11  C   UNL     1       7.177   4.663  16.912  0.00  0.00    +0.000 A 
ATOM     12  F   UNL     1       8.069   4.758  17.909  0.00  0.00    +0.000 F 
ENDBRANCH   2   5
BRANCH   3  13
ATOM     13  C   UNL     1       4.246   2.247  19.939  0.00  0.00    +0.000 C 
ATOM     14  S   UNL     1       5.140   1.157  20.862  0.00  0.00    +0.000 S 
BRANCH  13  15
ATOM     15  N   UNL     1       2.932   2.645  20.297  0.00  0.00    +0.000 N 
ATOM     16  C   UNL     1       2.537   2.825  21.697  0.00  0.00    +0.000 C 
ATOM     17  C   UNL     1       1.022   2.857  21.657  0.00  0.00    +0.000 C 
ATOM     18  N   UNL     1       0.748   3.327  20.332  0.00  0.00    +0.000 N 
ATOM     19  C   UNL     1       1.831   3.090  19.492  0.00  0.00    +0.000 C 
ATOM     20  S   UNL     1       1.729   3.347  17.860  0.00  0.00    +0.000 S 
ATOM     21  H   UNL     1      -0.170   3.540  19.958  0.00  0.00    +0.000 HD
ENDBRANCH  13  15
ENDBRANCH   3  13
TORSDOF 3
ENDMDL
MODEL 8
REMARK VINA RESULT:      -6.5      2.843      3.850
REMARK  Name = 
REMARK  3 active torsions:
REMARK  status: ('A' for Active; 'I' for Inactive)
REMARK    1  A    between atoms: C_2  and  C_12
REMARK    2  A    between atoms: N_3  and  C_4
REMARK    3  A    between atoms: C_4  and  N_6
REMARK                            x       y       z     vdW  Elec       q    Type
REMARK                         _______ _______ _______ _____ _____    ______ ____
ROOT
ATOM      1  O   UNL     1       3.177   7.333  17.673  0.00  0.00    +0.000 OA
ATOM      2  C   UNL     1       2.842   7.152  18.843  0.00  0.00    +0.000 C 
ATOM      3  N   UNL     1       3.377   6.166  19.665  0.00  0.00    +0.000 N 
ATOM      4  H   UNL     1       3.127   6.209  20.647  0.00  0.00    +0.000 HD
ENDROOT
BRANCH   2   5
ATOM      5  C   UNL     1       1.874   8.121  19.433  0.00  0.00    +0.000 A 
ATOM      6  C   UNL     1       1.468   7.903  20.766  0.00  0.00    +0.000 A 
ATOM      7  C   UNL     1       0.533   8.738  21.372  0.00  0.00    +0.000 A 
ATOM      8  C   UNL     1      -0.005   9.796  20.653  0.00  0.00    +0.000 A 
ATOM      9  F   UNL     1      -0.918  10.588  21.230  0.00  0.00    +0.000 F 
ATOM     10  C   UNL     1       0.393  10.047  19.344  0.00  0.00    +0.000 A 
ATOM     11  C   UNL     1       1.337   9.212  18.746  0.00  0.00    +0.000 A 
ATOM     12  F   UNL     1       1.721   9.489  17.492  0.00  0.00    +0.000 F 
ENDBRANCH   2   5
BRANCH   3  13
ATOM     13  C   UNL     1       4.173   5.068  19.322  0.00  0.00    +0.000 C 
ATOM     14  S   UNL     1       5.850   5.112  19.176  0.00  0.00    +0.000 S 
BRANCH  13  15
ATOM     15  N   UNL     1       3.419   3.893  19.065  0.00  0.00    +0.000 N 
ATOM     16  C   UNL     1       3.585   3.129  17.825  0.00  0.00    +0.000 C 
ATOM     17  C   UNL     1       2.368   2.226  17.777  0.00  0.00    +0.000 C 
ATOM     18  N   UNL     1       2.021   2.084  19.159  0.00  0.00    +0.000 N 
ATOM     19  C   UNL     1       2.537   3.137  19.907  0.00  0.00    +0.000 C 
ATOM     20  S   UNL     1       2.132   3.344  21.499  0.00  0.00    +0.000 S 
ATOM     21  H   UNL     1       1.287   1.489  19.526  0.00  0.00    +0.000 HD
ENDBRANCH  13  15
ENDBRANCH   3  13
TORSDOF 3
ENDMDL
MODEL 9
REMARK VINA RESULT:      -6.4      1.669      2.285
REMARK  Name = 
REMARK  3 active torsions:
REMARK  status: ('A' for Active; 'I' for Inactive)
REMARK    1  A    between atoms: C_2  and  C_12
REMARK    2  A    between atoms: N_3  and  C_4
REMARK    3  A    between atoms: C_4  and  N_6
REMARK                            x       y       z     vdW  Elec       q    Type
REMARK                         _______ _______ _______ _____ _____    ______ ____
ROOT
ATOM      1  O   UNL     1       2.856   5.185  20.506  0.00  0.00    +0.000 OA
ATOM      2  C   UNL     1       2.812   5.842  19.466  0.00  0.00    +0.000 C 
ATOM      3  N   UNL     1       3.238   5.374  18.228  0.00  0.00    +0.000 N 
ATOM      4  H   UNL     1       3.018   5.952  17.425  0.00  0.00    +0.000 HD
ENDROOT
BRANCH   2   5
ATOM      5  C   UNL     1       2.167   7.185  19.535  0.00  0.00    +0.000 A 
ATOM      6  C   UNL     1       1.458   7.506  20.712  0.00  0.00    +0.000 A 
ATOM      7  C   UNL     1       0.792   8.722  20.833  0.00  0.00    +0.000 A 
ATOM      8  C   UNL     1       0.826   9.628  19.782  0.00  0.00    +0.000 A 
ATOM      9  F   UNL     1       0.170  10.790  19.892  0.00  0.00    +0.000 F 
ATOM     10  C   UNL     1       1.535   9.346  18.618  0.00  0.00    +0.000 A 
ATOM     11  C   UNL     1       2.209   8.130  18.507  0.00  0.00    +0.000 A 
ATOM     12  F   UNL     1       2.903   7.892  17.385  0.00  0.00    +0.000 F 
ENDBRANCH   2   5
BRANCH   3  13
ATOM     13  C   UNL     1       3.993   4.235  17.928  0.00  0.00    +0.000 C 
ATOM     14  S   UNL     1       3.369   2.674  17.824  0.00  0.00    +0.000 S 
BRANCH  13  15
ATOM     15  N   UNL     1       5.374   4.514  17.751  0.00  0.00    +0.000 N 
ATOM     16  C   UNL     1       6.261   4.761  18.891  0.00  0.00    +0.000 C 
ATOM     17  C   UNL     1       7.497   5.384  18.274  0.00  0.00    +0.000 C 
ATOM     18  N   UNL     1       7.484   4.865  16.940  0.00  0.00    +0.000 N 
ATOM     19  C   UNL     1       6.202   4.463  16.581  0.00  0.00    +0.000 C 
ATOM     20  S   UNL     1       5.843   4.006  15.030  0.00  0.00    +0.000 S 
ATOM     21  H   UNL     1       8.203   5.012  16.241  0.00  0.00    +0.000 HD
ENDBRANCH  13  15
ENDBRANCH   3  13
TORSDOF 3
ENDMDL
