MODEL 1
REMARK VINA RESULT:      -8.3      0.000      0.000
REMARK  Name = 
REMARK  5 active torsions:
REMARK  status: ('A' for Active; 'I' for Inactive)
REMARK    1  A    between atoms: C_1  and  C_2
REMARK    2  A    between atoms: C_5  and  S_6
REMARK    3  A    between atoms: S_6  and  N_9
REMARK    4  A    between atoms: N_9  and  C_10
REMARK    5  A    between atoms: C_20  and  C_21
REMARK                            x       y       z     vdW  Elec       q    Type
REMARK                         _______ _______ _______ _____ _____    ______ ____
ROOT
ATOM      1  N   UNL     1       4.121   2.724  18.185  0.00  0.00    +0.000 N 
ATOM      2  H   UNL     1       4.413   1.863  17.725  0.00  0.00    +0.000 HD
ENDROOT
BRANCH   1   3
ATOM      3  C   UNL     1       5.024   3.827  18.129  0.00  0.00    +0.000 A 
ATOM      4  C   UNL     1       5.439   4.430  19.361  0.00  0.00    +0.000 A 
ATOM      5  C   UNL     1       6.362   5.497  19.445  0.00  0.00    +0.000 A 
ATOM      6  C   UNL     1       6.784   5.885  18.180  0.00  0.00    +0.000 A 
ATOM      7  C   UNL     1       7.683   6.876  17.905  0.00  0.00    +0.000 A 
ATOM      8  N   UNL     1       7.779   6.885  16.543  0.00  0.00    +0.000 N 
ATOM      9  N   UNL     1       7.008   5.970  15.924  0.00  0.00    +0.000 NA
ATOM     10  C   UNL     1       6.379   5.322  16.918  0.00  0.00    +0.000 A 
ATOM     11  C   UNL     1       5.469   4.257  16.862  0.00  0.00    +0.000 A 
ATOM     12  H   UNL     1       8.357   7.486  15.964  0.00  0.00    +0.000 HD
ENDBRANCH   1   3
BRANCH   1  13
ATOM     13  S   UNL     1       2.460   2.988  18.023  0.00  0.00    +0.000 S 
ATOM     14  O   UNL     1       1.743   1.970  18.759  0.00  0.00    +0.000 OA
ATOM     15  O   UNL     1       2.226   3.194  16.606  0.00  0.00    +0.000 OA
BRANCH  13  20
ATOM     16  C   UNL     1       1.604   8.344  20.787  0.00  0.00    +0.000 C 
ATOM     17  C   UNL     1       1.829   7.029  20.092  0.00  0.00    +0.000 A 
ATOM     18  C   UNL     1       1.679   5.831  20.812  0.00  0.00    +0.000 A 
ATOM     19  C   UNL     1       1.868   4.593  20.190  0.00  0.00    +0.000 A 
ATOM     20  C   UNL     1       2.196   4.550  18.833  0.00  0.00    +0.000 A 
ATOM     21  C   UNL     1       2.381   5.732  18.112  0.00  0.00    +0.000 A 
ATOM     22  C   UNL     1       2.194   6.978  18.730  0.00  0.00    +0.000 A 
ATOM     23  C   UNL     1       2.398   8.229  17.921  0.00  0.00    +0.000 C 
ENDBRANCH  13  20
ENDBRANCH   1  13
TORSDOF 3
ENDMDL
MODEL 2
REMARK VINA RESULT:      -7.8      3.205      6.455
REMARK  Name = 
REMARK  5 active torsions:
REMARK  status: ('A' for Active; 'I' for Inactive)
REMARK    1  A    between atoms: C_1  and  C_2
REMARK    2  A    between atoms: C_5  and  S_6
REMARK    3  A    between atoms: S_6  and  N_9
REMARK    4  A    between atoms: N_9  and  C_10
REMARK    5  A    between atoms: C_20  and  C_21
REMARK                            x       y       z     vdW  Elec       q    Type
REMARK                         _______ _______ _______ _____ _____    ______ ____
ROOT
ATOM      1  N   UNL     1       4.864   6.148  18.132  0.00  0.00    +0.000 N 
ATOM      2  H   UNL     1       4.681   6.845  17.412  0.00  0.00    +0.000 HD
ENDROOT
BRANCH   1   3
ATOM      3  C   UNL     1       3.755   5.365  18.573  0.00  0.00    +0.000 A 
ATOM      4  C   UNL     1       2.810   4.912  17.595  0.00  0.00    +0.000 A 
ATOM      5  C   UNL     1       1.696   4.095  17.894  0.00  0.00    +0.000 A 
ATOM      6  C   UNL     1       1.639   3.818  19.253  0.00  0.00    +0.000 A 
ATOM      7  C   UNL     1       0.698   3.046  19.874  0.00  0.00    +0.000 A 
ATOM      8  N   UNL     1       1.054   3.062  21.193  0.00  0.00    +0.000 N 
ATOM      9  N   UNL     1       2.157   3.787  21.462  0.00  0.00    +0.000 NA
ATOM     10  C   UNL     1       2.553   4.266  20.272  0.00  0.00    +0.000 A 
ATOM     11  C   UNL     1       3.656   5.069  19.948  0.00  0.00    +0.000 A 
ATOM     12  H   UNL     1       0.595   2.595  21.967  0.00  0.00    +0.000 HD
ENDBRANCH   1   3
BRANCH   1  13
ATOM     13  S   UNL     1       6.377   5.424  17.934  0.00  0.00    +0.000 S 
ATOM     14  O   UNL     1       6.479   4.285  18.820  0.00  0.00    +0.000 OA
ATOM     15  O   UNL     1       7.345   6.503  17.985  0.00  0.00    +0.000 OA
BRANCH  13  20
ATOM     16  C   UNL     1       6.258   3.414  12.188  0.00  0.00    +0.000 C 
ATOM     17  C   UNL     1       6.293   3.928  13.602  0.00  0.00    +0.000 A 
ATOM     18  C   UNL     1       5.401   3.403  14.553  0.00  0.00    +0.000 A 
ATOM     19  C   UNL     1       5.419   3.850  15.876  0.00  0.00    +0.000 A 
ATOM     20  C   UNL     1       6.346   4.823  16.259  0.00  0.00    +0.000 A 
ATOM     21  C   UNL     1       7.217   5.379  15.319  0.00  0.00    +0.000 A 
ATOM     22  C   UNL     1       7.204   4.935  13.988  0.00  0.00    +0.000 A 
ATOM     23  C   UNL     1       8.159   5.554  13.005  0.00  0.00    +0.000 C 
ENDBRANCH  13  20
ENDBRANCH   1  13
TORSDOF 3
ENDMDL
MODEL 3
REMARK VINA RESULT:      -7.8      2.687      5.414
REMARK  Name = 
REMARK  5 active torsions:
REMARK  status: ('A' for Active; 'I' for Inactive)
REMARK    1  A    between atoms: C_1  and  C_2
REMARK    2  A    between atoms: C_5  and  S_6
REMARK    3  A    between atoms: S_6  and  N_9
REMARK    4  A    between atoms: N_9  and  C_10
REMARK    5  A    between atoms: C_20  and  C_21
REMARK                            x       y       z     vdW  Elec       q    Type
REMARK                         _______ _______ _______ _____ _____    ______ ____
ROOT
ATOM      1  N   UNL     1       2.760   5.660  20.709  0.00  0.00    +0.000 N 
ATOM      2  H   UNL     1       3.677   5.720  21.151  0.00  0.00    +0.000 HD
ENDROOT
BRANCH   1   3
ATOM      3  C   UNL     1       2.183   6.881  20.249  0.00  0.00    +0.000 A 
ATOM      4  C   UNL     1       1.276   7.575  21.115  0.00  0.00    +0.000 A 
ATOM      5  C   UNL     1       0.673   8.813  20.798  0.00  0.00    +0.000 A 
ATOM      6  C   UNL     1       1.062   9.241  19.535  0.00  0.00    +0.000 A 
ATOM      7  C   UNL     1       0.674  10.402  18.929  0.00  0.00    +0.000 A 
ATOM      8  N   UNL     1       1.309  10.388  17.719  0.00  0.00    +0.000 N 
ATOM      9  N   UNL     1       2.077   9.302  17.507  0.00  0.00    +0.000 NA
ATOM     10  C   UNL     1       1.953   8.569  18.625  0.00  0.00    +0.000 A 
ATOM     11  C   UNL     1       2.547   7.346  18.968  0.00  0.00    +0.000 A 
ATOM     12  H   UNL     1       1.269  11.089  16.988  0.00  0.00    +0.000 HD
ENDBRANCH   1   3
BRANCH   1  13
ATOM     13  S   UNL     1       2.598   4.254  19.788  0.00  0.00    +0.000 S 
ATOM     14  O   UNL     1       1.345   4.299  19.068  0.00  0.00    +0.000 OA
ATOM     15  O   UNL     1       2.911   3.155  20.682  0.00  0.00    +0.000 OA
BRANCH  13  20
ATOM     16  C   UNL     1       7.135   4.679  15.750  0.00  0.00    +0.000 C 
ATOM     17  C   UNL     1       6.021   4.590  16.758  0.00  0.00    +0.000 A 
ATOM     18  C   UNL     1       4.752   4.144  16.350  0.00  0.00    +0.000 A 
ATOM     19  C   UNL     1       3.702   4.037  17.266  0.00  0.00    +0.000 A 
ATOM     20  C   UNL     1       3.924   4.364  18.606  0.00  0.00    +0.000 A 
ATOM     21  C   UNL     1       5.170   4.839  19.021  0.00  0.00    +0.000 A 
ATOM     22  C   UNL     1       6.229   4.951  18.107  0.00  0.00    +0.000 A 
ATOM     23  C   UNL     1       7.557   5.463  18.590  0.00  0.00    +0.000 C 
ENDBRANCH  13  20
ENDBRANCH   1  13
TORSDOF 3
ENDMDL
MODEL 4
REMARK VINA RESULT:      -7.7      0.900      1.444
REMARK  Name = 
REMARK  5 active torsions:
REMARK  status: ('A' for Active; 'I' for Inactive)
REMARK    1  A    between atoms: C_1  and  C_2
REMARK    2  A    between atoms: C_5  and  S_6
REMARK    3  A    between atoms: S_6  and  N_9
REMARK    4  A    between atoms: N_9  and  C_10
REMARK    5  A    between atoms: C_20  and  C_21
REMARK                            x       y       z     vdW  Elec       q    Type
REMARK                         _______ _______ _______ _____ _____    ______ ____
ROOT
ATOM      1  N   UNL     1       4.227   2.832  17.906  0.00  0.00    +0.000 N 
ATOM      2  H   UNL     1       4.512   1.947  17.490  0.00  0.00    +0.000 HD
ENDROOT
BRANCH   1   3
ATOM      3  C   UNL     1       5.084   3.953  17.697  0.00  0.00    +0.000 A 
ATOM      4  C   UNL     1       5.026   4.628  16.434  0.00  0.00    +0.000 A 
ATOM      5  C   UNL     1       5.788   5.776  16.117  0.00  0.00    +0.000 A 
ATOM      6  C   UNL     1       6.604   6.134  17.181  0.00  0.00    +0.000 A 
ATOM      7  C   UNL     1       7.456   7.202  17.212  0.00  0.00    +0.000 A 
ATOM      8  N   UNL     1       8.030   7.148  18.451  0.00  0.00    +0.000 N 
ATOM      9  N   UNL     1       7.607   6.125  19.217  0.00  0.00    +0.000 NA
ATOM     10  C   UNL     1       6.709   5.476  18.458  0.00  0.00    +0.000 A 
ATOM     11  C   UNL     1       5.935   4.344  18.751  0.00  0.00    +0.000 A 
ATOM     12  H   UNL     1       8.717   7.782  18.846  0.00  0.00    +0.000 HD
ENDBRANCH   1   3
BRANCH   1  13
ATOM     13  S   UNL     1       2.551   3.035  17.858  0.00  0.00    +0.000 S 
ATOM     14  O   UNL     1       1.921   1.968  18.604  0.00  0.00    +0.000 OA
ATOM     15  O   UNL     1       2.218   3.276  16.467  0.00  0.00    +0.000 OA
BRANCH  13  20
ATOM     16  C   UNL     1       1.676   8.266  20.849  0.00  0.00    +0.000 C 
ATOM     17  C   UNL     1       1.905   6.982  20.098  0.00  0.00    +0.000 A 
ATOM     18  C   UNL     1       1.812   5.756  20.778  0.00  0.00    +0.000 A 
ATOM     19  C   UNL     1       2.006   4.547  20.105  0.00  0.00    +0.000 A 
ATOM     20  C   UNL     1       2.282   4.561  18.735  0.00  0.00    +0.000 A 
ATOM     21  C   UNL     1       2.409   5.772  18.052  0.00  0.00    +0.000 A 
ATOM     22  C   UNL     1       2.217   6.989  18.722  0.00  0.00    +0.000 A 
ATOM     23  C   UNL     1       2.359   8.274  17.952  0.00  0.00    +0.000 C 
ENDBRANCH  13  20
ENDBRANCH   1  13
TORSDOF 3
ENDMDL
MODEL 5
REMARK VINA RESULT:      -7.6      3.388      6.769
REMARK  Name = 
REMARK  5 active torsions:
REMARK  status: ('A' for Active; 'I' for Inactive)
REMARK    1  A    between atoms: C_1  and  C_2
REMARK    2  A    between atoms: C_5  and  S_6
REMARK    3  A    between atoms: S_6  and  N_9
REMARK    4  A    between atoms: N_9  and  C_10
REMARK    5  A    between atoms: C_20  and  C_21
REMARK                            x       y       z     vdW  Elec       q    Type
REMARK                         _______ _______ _______ _____ _____    ______ ____
ROOT
ATOM      1  N   UNL     1       4.751   3.174  17.170  0.00  0.00    +0.000 N 
ATOM      2  H   UNL     1       5.275   2.317  17.004  0.00  0.00    +0.000 HD
ENDROOT
BRANCH   1   3
ATOM      3  C   UNL     1       3.745   3.134  18.180  0.00  0.00    +0.000 A 
ATOM      4  C   UNL     1       2.389   3.403  17.802  0.00  0.00    +0.000 A 
ATOM      5  C   UNL     1       1.295   3.351  18.696  0.00  0.00    +0.000 A 
ATOM      6  C   UNL     1       1.722   3.028  19.978  0.00  0.00    +0.000 A 
ATOM      7  C   UNL     1       0.921   2.882  21.075  0.00  0.00    +0.000 A 
ATOM      8  N   UNL     1       1.780   2.564  22.088  0.00  0.00    +0.000 N 
ATOM      9  N   UNL     1       3.074   2.493  21.720  0.00  0.00    +0.000 NA
ATOM     10  C   UNL     1       3.072   2.769  20.406  0.00  0.00    +0.000 A 
ATOM     11  C   UNL     1       4.139   2.818  19.497  0.00  0.00    +0.000 A 
ATOM     12  H   UNL     1       1.554   2.375  23.059  0.00  0.00    +0.000 HD
ENDBRANCH   1   3
BRANCH   1  13
ATOM     13  S   UNL     1       5.725   4.545  17.007  0.00  0.00    +0.000 S 
ATOM     14  O   UNL     1       6.916   4.380  17.811  0.00  0.00    +0.000 OA
ATOM     15  O   UNL     1       4.845   5.683  17.194  0.00  0.00    +0.000 OA
BRANCH  13  20
ATOM     16  C   UNL     1       7.369   4.431  11.146  0.00  0.00    +0.000 C 
ATOM     17  C   UNL     1       6.955   4.442  12.592  0.00  0.00    +0.000 A 
ATOM     18  C   UNL     1       7.766   5.088  13.541  0.00  0.00    +0.000 A 
ATOM     19  C   UNL     1       7.400   5.126  14.889  0.00  0.00    +0.000 A 
ATOM     20  C   UNL     1       6.205   4.526  15.293  0.00  0.00    +0.000 A 
ATOM     21  C   UNL     1       5.404   3.852  14.369  0.00  0.00    +0.000 A 
ATOM     22  C   UNL     1       5.766   3.808  13.014  0.00  0.00    +0.000 A 
ATOM     23  C   UNL     1       4.877   3.076  12.046  0.00  0.00    +0.000 C 
ENDBRANCH  13  20
ENDBRANCH   1  13
TORSDOF 3
ENDMDL
MODEL 6
REMARK VINA RESULT:      -7.5      3.241      5.855
REMARK  Name = 
REMARK  5 active torsions:
REMARK  status: ('A' for Active; 'I' for Inactive)
REMARK    1  A    between atoms: C_1  and  C_2
REMARK    2  A    between atoms: C_5  and  S_6
REMARK    3  A    between atoms: S_6  and  N_9
REMARK    4  A    between atoms: N_9  and  C_10
REMARK    5  A    between atoms: C_20  and  C_21
REMARK                            x       y       z     vdW  Elec       q    Type
REMARK                         _______ _______ _______ _____ _____    ______ ____
ROOT
ATOM      1  N   UNL     1       2.825   5.902  20.494  0.00  0.00    +0.000 N 
ATOM      2  H   UNL     1       3.744   5.984  20.926  0.00  0.00    +0.000 HD
ENDROOT
BRANCH   1   3
ATOM      3  C   UNL     1       2.256   7.093  19.951  0.00  0.00    +0.000 A 
ATOM      4  C   UNL     1       2.533   7.418  18.583  0.00  0.00    +0.000 A 
ATOM      5  C   UNL     1       1.996   8.542  17.915  0.00  0.00    +0.000 A 
ATOM      6  C   UNL     1       1.192   9.285  18.769  0.00  0.00    +0.000 A 
ATOM      7  C   UNL     1       0.510  10.422  18.440  0.00  0.00    +0.000 A 
ATOM      8  N   UNL     1      -0.133  10.783  19.589  0.00  0.00    +0.000 N 
ATOM      9  N   UNL     1       0.085   9.959  20.632  0.00  0.00    +0.000 NA
ATOM     10  C   UNL     1       0.901   9.007  20.152  0.00  0.00    +0.000 A 
ATOM     11  C   UNL     1       1.440   7.880  20.790  0.00  0.00    +0.000 A 
ATOM     12  H   UNL     1      -0.745  11.579  19.736  0.00  0.00    +0.000 HD
ENDBRANCH   1   3
BRANCH   1  13
ATOM     13  S   UNL     1       2.646   4.436  19.674  0.00  0.00    +0.000 S 
ATOM     14  O   UNL     1       1.391   4.444  18.955  0.00  0.00    +0.000 OA
ATOM     15  O   UNL     1       2.951   3.399  20.641  0.00  0.00    +0.000 OA
BRANCH  13  20
ATOM     16  C   UNL     1       7.175   4.531  15.605  0.00  0.00    +0.000 C 
ATOM     17  C   UNL     1       6.064   4.523  16.620  0.00  0.00    +0.000 A 
ATOM     18  C   UNL     1       4.777   4.108  16.236  0.00  0.00    +0.000 A 
ATOM     19  C   UNL     1       3.729   4.076  17.159  0.00  0.00    +0.000 A 
ATOM     20  C   UNL     1       3.969   4.450  18.483  0.00  0.00    +0.000 A 
ATOM     21  C   UNL     1       5.233   4.896  18.873  0.00  0.00    +0.000 A 
ATOM     22  C   UNL     1       6.290   4.932  17.952  0.00  0.00    +0.000 A 
ATOM     23  C   UNL     1       7.639   5.415  18.410  0.00  0.00    +0.000 C 
ENDBRANCH  13  20
ENDBRANCH   1  13
TORSDOF 3
ENDMDL
MODEL 7
REMARK VINA RESULT:      -7.5      3.167      6.429
REMARK  Name = 
REMARK  5 active torsions:
REMARK  status: ('A' for Active; 'I' for Inactive)
REMARK    1  A    between atoms: C_1  and  C_2
REMARK    2  A    between atoms: C_5  and  S_6
REMARK    3  A    between atoms: S_6  and  N_9
REMARK    4  A    between atoms: N_9  and  C_10
REMARK    5  A    between atoms: C_20  and  C_21
REMARK                            x       y       z     vdW  Elec       q    Type
REMARK                         _______ _______ _______ _____ _____    ______ ____
ROOT
ATOM      1  N   UNL     1       4.593   6.163  17.746  0.00  0.00    +0.000 N 
ATOM      2  H   UNL     1       4.295   6.602  16.877  0.00  0.00    +0.000 HD
ENDROOT
BRANCH   1   3
ATOM      3  C   UNL     1       3.611   5.422  18.469  0.00  0.00    +0.000 A 
ATOM      4  C   UNL     1       3.405   5.733  19.853  0.00  0.00    +0.000 A 
ATOM      5  C   UNL     1       2.434   5.106  20.666  0.00  0.00    +0.000 A 
ATOM      6  C   UNL     1       1.735   4.145  19.947  0.00  0.00    +0.000 A 
ATOM      7  C   UNL     1       0.721   3.366  20.428  0.00  0.00    +0.000 A 
ATOM      8  N   UNL     1       0.350   2.590  19.367  0.00  0.00    +0.000 N 
ATOM      9  N   UNL     1       1.053   2.816  18.240  0.00  0.00    +0.000 NA
ATOM     10  C   UNL     1       1.920   3.788  18.565  0.00  0.00    +0.000 A 
ATOM     11  C   UNL     1       2.884   4.432  17.776  0.00  0.00    +0.000 A 
ATOM     12  H   UNL     1      -0.379   1.886  19.336  0.00  0.00    +0.000 HD
ENDBRANCH   1   3
BRANCH   1  13
ATOM     13  S   UNL     1       6.176   5.583  17.645  0.00  0.00    +0.000 S 
ATOM     14  O   UNL     1       6.342   4.487  18.573  0.00  0.00    +0.000 OA
ATOM     15  O   UNL     1       7.033   6.752  17.704  0.00  0.00    +0.000 OA
BRANCH  13  20
ATOM     16  C   UNL     1       6.539   3.401  11.972  0.00  0.00    +0.000 C 
ATOM     17  C   UNL     1       6.454   3.958  13.367  0.00  0.00    +0.000 A 
ATOM     18  C   UNL     1       5.523   3.422  14.272  0.00  0.00    +0.000 A 
ATOM     19  C   UNL     1       5.430   3.909  15.579  0.00  0.00    +0.000 A 
ATOM     20  C   UNL     1       6.286   4.933  15.992  0.00  0.00    +0.000 A 
ATOM     21  C   UNL     1       7.196   5.498  15.095  0.00  0.00    +0.000 A 
ATOM     22  C   UNL     1       7.293   5.016  13.782  0.00  0.00    +0.000 A 
ATOM     23  C   UNL     1       8.286   5.647  12.846  0.00  0.00    +0.000 C 
ENDBRANCH  13  20
ENDBRANCH   1  13
TORSDOF 3
ENDMDL
MODEL 8
REMARK VINA RESULT:      -7.5      1.935      3.069
REMARK  Name = 
REMARK  5 active torsions:
REMARK  status: ('A' for Active; 'I' for Inactive)
REMARK    1  A    between atoms: C_1  and  C_2
REMARK    2  A    between atoms: C_5  and  S_6
REMARK    3  A    between atoms: S_6  and  N_9
REMARK    4  A    between atoms: N_9  and  C_10
REMARK    5  A    between atoms: C_20  and  C_21
REMARK                            x       y       z     vdW  Elec       q    Type
REMARK                         _______ _______ _______ _____ _____    ______ ____
ROOT
ATOM      1  N   UNL     1       4.217   5.514  19.655  0.00  0.00    +0.000 N 
ATOM      2  H   UNL     1       4.631   5.147  20.510  0.00  0.00    +0.000 HD
ENDROOT
BRANCH   1   3
ATOM      3  C   UNL     1       4.873   5.195  18.429  0.00  0.00    +0.000 A 
ATOM      4  C   UNL     1       4.433   4.041  17.701  0.00  0.00    +0.000 A 
ATOM      5  C   UNL     1       4.967   3.643  16.455  0.00  0.00    +0.000 A 
ATOM      6  C   UNL     1       5.980   4.505  16.055  0.00  0.00    +0.000 A 
ATOM      7  C   UNL     1       6.695   4.416  14.895  0.00  0.00    +0.000 A 
ATOM      8  N   UNL     1       7.561   5.471  14.942  0.00  0.00    +0.000 N 
ATOM      9  N   UNL     1       7.451   6.232  16.048  0.00  0.00    +0.000 NA
ATOM     10  C   UNL     1       6.466   5.662  16.761  0.00  0.00    +0.000 A 
ATOM     11  C   UNL     1       5.913   6.042  17.992  0.00  0.00    +0.000 A 
ATOM     12  H   UNL     1       8.253   5.739  14.251  0.00  0.00    +0.000 HD
ENDBRANCH   1   3
BRANCH   1  13
ATOM     13  S   UNL     1       2.530   5.522  19.728  0.00  0.00    +0.000 S 
ATOM     14  O   UNL     1       2.110   5.169  21.067  0.00  0.00    +0.000 OA
ATOM     15  O   UNL     1       2.078   4.766  18.576  0.00  0.00    +0.000 OA
BRANCH  13  20
ATOM     16  C   UNL     1       1.011  11.338  18.758  0.00  0.00    +0.000 C 
ATOM     17  C   UNL     1       1.371   9.899  19.011  0.00  0.00    +0.000 A 
ATOM     18  C   UNL     1       1.945   9.137  17.978  0.00  0.00    +0.000 A 
ATOM     19  C   UNL     1       2.304   7.803  18.187  0.00  0.00    +0.000 A 
ATOM     20  C   UNL     1       2.099   7.226  19.443  0.00  0.00    +0.000 A 
ATOM     21  C   UNL     1       1.501   7.959  20.469  0.00  0.00    +0.000 A 
ATOM     22  C   UNL     1       1.137   9.299  20.267  0.00  0.00    +0.000 A 
ATOM     23  C   UNL     1       0.498  10.059  21.396  0.00  0.00    +0.000 C 
ENDBRANCH  13  20
ENDBRANCH   1  13
TORSDOF 3
ENDMDL
MODEL 9
REMARK VINA RESULT:      -7.3      3.411      6.369
REMARK  Name = 
REMARK  5 active torsions:
REMARK  status: ('A' for Active; 'I' for Inactive)
REMARK    1  A    between atoms: C_1  and  C_2
REMARK    2  A    between atoms: C_5  and  S_6
REMARK    3  A    between atoms: S_6  and  N_9
REMARK    4  A    between atoms: N_9  and  C_10
REMARK    5  A    between atoms: C_20  and  C_21
REMARK                            x       y       z     vdW  Elec       q    Type
REMARK                         _______ _______ _______ _____ _____    ______ ____
ROOT
ATOM      1  N   UNL     1       5.543   6.034  17.935  0.00  0.00    +0.000 N 
ATOM      2  H   UNL     1       5.166   6.855  17.464  0.00  0.00    +0.000 HD
ENDROOT
BRANCH   1   3
ATOM      3  C   UNL     1       4.618   5.008  18.290  0.00  0.00    +0.000 A 
ATOM      4  C   UNL     1       5.027   4.023  19.247  0.00  0.00    +0.000 A 
ATOM      5  C   UNL     1       4.192   2.983  19.716  0.00  0.00    +0.000 A 
ATOM      6  C   UNL     1       2.945   3.041  19.108  0.00  0.00    +0.000 A 
ATOM      7  C   UNL     1       1.899   2.195  19.344  0.00  0.00    +0.000 A 
ATOM      8  N   UNL     1       0.900   2.645  18.527  0.00  0.00    +0.000 N 
ATOM      9  N   UNL     1       1.230   3.720  17.786  0.00  0.00    +0.000 NA
ATOM     10  C   UNL     1       2.497   3.999  18.130  0.00  0.00    +0.000 A 
ATOM     11  C   UNL     1       3.343   5.027  17.688  0.00  0.00    +0.000 A 
ATOM     12  H   UNL     1      -0.037   2.270  18.427  0.00  0.00    +0.000 HD
ENDBRANCH   1   3
BRANCH   1  13
ATOM     13  S   UNL     1       7.071   5.620  17.345  0.00  0.00    +0.000 S 
ATOM     14  O   UNL     1       7.658   4.618  18.207  0.00  0.00    +0.000 OA
ATOM     15  O   UNL     1       7.750   6.875  17.083  0.00  0.00    +0.000 OA
BRANCH  13  20
ATOM     16  C   UNL     1       5.885   3.086  11.937  0.00  0.00    +0.000 C 
ATOM     17  C   UNL     1       6.181   3.730  13.265  0.00  0.00    +0.000 A 
ATOM     18  C   UNL     1       5.546   3.251  14.424  0.00  0.00    +0.000 A 
ATOM     19  C   UNL     1       5.811   3.819  15.673  0.00  0.00    +0.000 A 
ATOM     20  C   UNL     1       6.730   4.867  15.769  0.00  0.00    +0.000 A 
ATOM     21  C   UNL     1       7.344   5.376  14.623  0.00  0.00    +0.000 A 
ATOM     22  C   UNL     1       7.082   4.812  13.365  0.00  0.00    +0.000 A 
ATOM     23  C   UNL     1       7.765   5.383  12.154  0.00  0.00    +0.000 C 
ENDBRANCH  13  20
ENDBRANCH   1  13
TORSDOF 3
ENDMDL
