MODEL 1
REMARK VINA RESULT:      -8.8      0.000      0.000
REMARK  Name = 
REMARK  7 active torsions:
REMARK  status: ('A' for Active; 'I' for Inactive)
REMARK    1  A    between atoms: C_1  and  C_2
REMARK    2  A    between atoms: C_5  and  N_6
REMARK    3  A    between atoms: C_7  and  C_9
REMARK    4  A    between atoms: C_9  and  S_10
REMARK    5  A    between atoms: S_10  and  C_11
REMARK    6  A    between atoms: C_13  and  C_14
REMARK    7  A    between atoms: C_20  and  C_21
REMARK                            x       y       z     vdW  Elec       q    Type
REMARK                         _______ _______ _______ _____ _____    ______ ____
ROOT
ATOM      1  C   UNL     1       5.142   3.652  17.420  0.00  0.00    +0.000 A 
ATOM      2  N   UNL     1       5.376   3.748  16.106  0.00  0.00    +0.000 NA
ATOM      3  C   UNL     1       6.446   4.494  15.742  0.00  0.00    +0.000 A 
ATOM      4  C   UNL     1       7.243   5.160  16.654  0.00  0.00    +0.000 A 
ATOM      5  C   UNL     1       6.927   5.002  17.986  0.00  0.00    +0.000 A 
ATOM      6  N   UNL     1       5.873   4.250  18.375  0.00  0.00    +0.000 NA
ENDROOT
BRANCH   3   7
ATOM      7  C   UNL     1       6.758   4.526  14.316  0.00  0.00    +0.000 A 
ATOM      8  C   UNL     1       6.323   3.820  13.211  0.00  0.00    +0.000 A 
ATOM      9  C   UNL     1       7.078   4.287  12.104  0.00  0.00    +0.000 A 
ATOM     10  C   UNL     1       7.917   5.259  12.594  0.00  0.00    +0.000 A 
ATOM     11  O   UNL     1       7.726   5.416  13.928  0.00  0.00    +0.000 OA
ENDBRANCH   3   7
BRANCH   5  12
ATOM     12  C   UNL     1       7.790   5.654  19.053  0.00  0.00    +0.000 C 
ATOM     13  F   UNL     1       7.138   5.825  20.242  0.00  0.00    +0.000 F 
ATOM     14  F   UNL     1       8.905   4.931  19.352  0.00  0.00    +0.000 F 
ATOM     15  F   UNL     1       8.223   6.896  18.696  0.00  0.00    +0.000 F 
ENDBRANCH   5  12
BRANCH   1  16
ATOM     16  S   UNL     1       3.755   2.727  18.031  0.00  0.00    +0.000 S 
BRANCH  16  17
ATOM     17  C   UNL     1       3.229   3.750  19.427  0.00  0.00    +0.000 C 
BRANCH  17  19
ATOM     18  N   UNL     1       2.886   6.173  19.529  0.00  0.00    +0.000 N 
ATOM     19  C   UNL     1       2.438   4.970  19.003  0.00  0.00    +0.000 C 
ATOM     20  O   UNL     1       1.531   4.845  18.176  0.00  0.00    +0.000 OA
ATOM     21  H   UNL     1       3.751   6.160  20.054  0.00  0.00    +0.000 HD
BRANCH  18  26
ATOM     22  C   UNL     1       0.420  11.309  18.820  0.00  0.00    +0.000 C 
ATOM     23  C   UNL     1       1.061   9.964  18.997  0.00  0.00    +0.000 A 
ATOM     24  C   UNL     1       1.764   9.374  17.947  0.00  0.00    +0.000 A 
ATOM     25  C   UNL     1       2.367   8.124  18.112  0.00  0.00    +0.000 A 
ATOM     26  C   UNL     1       2.284   7.437  19.323  0.00  0.00    +0.000 A 
ATOM     27  C   UNL     1       1.559   8.017  20.372  0.00  0.00    +0.000 A 
ATOM     28  C   UNL     1       0.962   9.277  20.212  0.00  0.00    +0.000 A 
ENDBRANCH  18  26
ENDBRANCH  17  19
ENDBRANCH  16  17
ENDBRANCH   1  16
TORSDOF 6
ENDMDL
MODEL 2
REMARK VINA RESULT:      -8.7      0.180      1.189
REMARK  Name = 
REMARK  7 active torsions:
REMARK  status: ('A' for Active; 'I' for Inactive)
REMARK    1  A    between atoms: C_1  and  C_2
REMARK    2  A    between atoms: C_5  and  N_6
REMARK    3  A    between atoms: C_7  and  C_9
REMARK    4  A    between atoms: C_9  and  S_10
REMARK    5  A    between atoms: S_10  and  C_11
REMARK    6  A    between atoms: C_13  and  C_14
REMARK    7  A    between atoms: C_20  and  C_21
REMARK                            x       y       z     vdW  Elec       q    Type
REMARK                         _______ _______ _______ _____ _____    ______ ____
ROOT
ATOM      1  C   UNL     1       5.108   3.721  17.518  0.00  0.00    +0.000 A 
ATOM      2  N   UNL     1       5.328   3.796  16.200  0.00  0.00    +0.000 NA
ATOM      3  C   UNL     1       6.411   4.511  15.815  0.00  0.00    +0.000 A 
ATOM      4  C   UNL     1       7.235   5.167  16.708  0.00  0.00    +0.000 A 
ATOM      5  C   UNL     1       6.932   5.034  18.046  0.00  0.00    +0.000 A 
ATOM      6  N   UNL     1       5.865   4.312  18.456  0.00  0.00    +0.000 NA
ENDROOT
BRANCH   3   7
ATOM      7  C   UNL     1       6.705   4.518  14.385  0.00  0.00    +0.000 A 
ATOM      8  C   UNL     1       6.252   3.799  13.295  0.00  0.00    +0.000 A 
ATOM      9  C   UNL     1       6.997   4.242  12.172  0.00  0.00    +0.000 A 
ATOM     10  C   UNL     1       7.850   5.214  12.637  0.00  0.00    +0.000 A 
ATOM     11  O   UNL     1       7.677   5.393  13.971  0.00  0.00    +0.000 OA
ENDBRANCH   3   7
BRANCH   5  12
ATOM     12  C   UNL     1       7.824   5.677  19.094  0.00  0.00    +0.000 C 
ATOM     13  F   UNL     1       8.285   6.909  18.726  0.00  0.00    +0.000 F 
ATOM     14  F   UNL     1       7.193   5.867  20.286  0.00  0.00    +0.000 F 
ATOM     15  F   UNL     1       8.937   4.939  19.365  0.00  0.00    +0.000 F 
ENDBRANCH   5  12
BRANCH   1  16
ATOM     16  S   UNL     1       3.706   2.838  18.156  0.00  0.00    +0.000 S 
BRANCH  16  17
ATOM     17  C   UNL     1       3.194   3.915  19.517  0.00  0.00    +0.000 C 
BRANCH  17  19
ATOM     18  N   UNL     1       2.739   6.308  19.780  0.00  0.00    +0.000 N 
ATOM     19  C   UNL     1       2.471   5.160  19.047  0.00  0.00    +0.000 C 
ATOM     20  O   UNL     1       1.782   5.111  18.025  0.00  0.00    +0.000 OA
ATOM     21  H   UNL     1       3.462   6.253  20.485  0.00  0.00    +0.000 HD
BRANCH  18  26
ATOM     22  C   UNL     1       0.373  11.446  18.797  0.00  0.00    +0.000 C 
ATOM     23  C   UNL     1       0.994  10.106  19.062  0.00  0.00    +0.000 A 
ATOM     24  C   UNL     1       0.860   9.500  20.311  0.00  0.00    +0.000 A 
ATOM     25  C   UNL     1       1.432   8.250  20.558  0.00  0.00    +0.000 A 
ATOM     26  C   UNL     1       2.150   7.577  19.569  0.00  0.00    +0.000 A 
ATOM     27  C   UNL     1       2.308   8.194  18.322  0.00  0.00    +0.000 A 
ATOM     28  C   UNL     1       1.723   9.444  18.067  0.00  0.00    +0.000 A 
ENDBRANCH  18  26
ENDBRANCH  17  19
ENDBRANCH  16  17
ENDBRANCH   1  16
TORSDOF 6
ENDMDL
MODEL 3
REMARK VINA RESULT:      -8.5      2.629      3.931
REMARK  Name = 
REMARK  7 active torsions:
REMARK  status: ('A' for Active; 'I' for Inactive)
REMARK    1  A    between atoms: C_1  and  C_2
REMARK    2  A    between atoms: C_5  and  N_6
REMARK    3  A    between atoms: C_7  and  C_9
REMARK    4  A    between atoms: C_9  and  S_10
REMARK    5  A    between atoms: S_10  and  C_11
REMARK    6  A    between atoms: C_13  and  C_14
REMARK    7  A    between atoms: C_20  and  C_21
REMARK                            x       y       z     vdW  Elec       q    Type
REMARK                         _______ _______ _______ _____ _____    ______ ____
ROOT
ATOM      1  C   UNL     1       4.998   3.926  17.104  0.00  0.00    +0.000 A 
ATOM      2  N   UNL     1       5.731   4.876  17.694  0.00  0.00    +0.000 NA
ATOM      3  C   UNL     1       6.588   5.553  16.895  0.00  0.00    +0.000 A 
ATOM      4  C   UNL     1       6.745   5.272  15.551  0.00  0.00    +0.000 A 
ATOM      5  C   UNL     1       5.947   4.277  15.029  0.00  0.00    +0.000 A 
ATOM      6  N   UNL     1       5.072   3.597  15.804  0.00  0.00    +0.000 NA
ENDROOT
BRANCH   3   7
ATOM      7  C   UNL     1       7.321   6.652  17.517  0.00  0.00    +0.000 A 
ATOM      8  C   UNL     1       8.095   6.784  18.654  0.00  0.00    +0.000 A 
ATOM      9  C   UNL     1       8.470   8.149  18.739  0.00  0.00    +0.000 A 
ATOM     10  C   UNL     1       7.918   8.768  17.642  0.00  0.00    +0.000 A 
ATOM     11  O   UNL     1       7.229   7.871  16.894  0.00  0.00    +0.000 OA
ENDBRANCH   3   7
BRANCH   5  12
ATOM     12  C   UNL     1       6.017   3.947  13.548  0.00  0.00    +0.000 C 
ATOM     13  F   UNL     1       6.355   2.646  13.301  0.00  0.00    +0.000 F 
ATOM     14  F   UNL     1       4.834   4.143  12.901  0.00  0.00    +0.000 F 
ATOM     15  F   UNL     1       6.943   4.693  12.883  0.00  0.00    +0.000 F 
ENDBRANCH   5  12
BRANCH   1  16
ATOM     16  S   UNL     1       3.855   2.943  18.044  0.00  0.00    +0.000 S 
BRANCH  16  17
ATOM     17  C   UNL     1       3.719   3.911  19.566  0.00  0.00    +0.000 C 
BRANCH  17  19
ATOM     18  N   UNL     1       3.117   6.283  19.455  0.00  0.00    +0.000 N 
ATOM     19  C   UNL     1       2.647   4.978  19.496  0.00  0.00    +0.000 C 
ATOM     20  O   UNL     1       1.465   4.641  19.393  0.00  0.00    +0.000 OA
ATOM     21  H   UNL     1       4.116   6.417  19.365  0.00  0.00    +0.000 HD
BRANCH  18  26
ATOM     22  C   UNL     1      -0.136  11.009  19.263  0.00  0.00    +0.000 C 
ATOM     23  C   UNL     1       0.718   9.777  19.321  0.00  0.00    +0.000 A 
ATOM     24  C   UNL     1       0.895   9.098  20.526  0.00  0.00    +0.000 A 
ATOM     25  C   UNL     1       1.685   7.946  20.581  0.00  0.00    +0.000 A 
ATOM     26  C   UNL     1       2.314   7.448  19.439  0.00  0.00    +0.000 A 
ATOM     27  C   UNL     1       2.158   8.142  18.234  0.00  0.00    +0.000 A 
ATOM     28  C   UNL     1       1.355   9.292  18.173  0.00  0.00    +0.000 A 
ENDBRANCH  18  26
ENDBRANCH  17  19
ENDBRANCH  16  17
ENDBRANCH   1  16
TORSDOF 6
ENDMDL
MODEL 4
REMARK VINA RESULT:      -8.2      1.362      1.620
REMARK  Name = 
REMARK  7 active torsions:
REMARK  status: ('A' for Active; 'I' for Inactive)
REMARK    1  A    between atoms: C_1  and  C_2
REMARK    2  A    between atoms: C_5  and  N_6
REMARK    3  A    between atoms: C_7  and  C_9
REMARK    4  A    between atoms: C_9  and  S_10
REMARK    5  A    between atoms: S_10  and  C_11
REMARK    6  A    between atoms: C_13  and  C_14
REMARK    7  A    between atoms: C_20  and  C_21
REMARK                            x       y       z     vdW  Elec       q    Type
REMARK                         _______ _______ _______ _____ _____    ______ ____
ROOT
ATOM      1  C   UNL     1       4.586   4.838  17.364  0.00  0.00    +0.000 A 
ATOM      2  N   UNL     1       4.862   4.677  16.066  0.00  0.00    +0.000 NA
ATOM      3  C   UNL     1       6.153   4.857  15.701  0.00  0.00    +0.000 A 
ATOM      4  C   UNL     1       7.142   5.226  16.594  0.00  0.00    +0.000 A 
ATOM      5  C   UNL     1       6.765   5.369  17.912  0.00  0.00    +0.000 A 
ATOM      6  N   UNL     1       5.484   5.179  18.303  0.00  0.00    +0.000 NA
ENDROOT
BRANCH   3   7
ATOM      7  C   UNL     1       6.474   4.592  14.302  0.00  0.00    +0.000 A 
ATOM      8  C   UNL     1       6.034   3.682  13.360  0.00  0.00    +0.000 A 
ATOM      9  C   UNL     1       6.804   3.900  12.188  0.00  0.00    +0.000 A 
ATOM     10  C   UNL     1       7.656   4.939  12.477  0.00  0.00    +0.000 A 
ATOM     11  O   UNL     1       7.460   5.369  13.749  0.00  0.00    +0.000 OA
ENDBRANCH   3   7
BRANCH   5  12
ATOM     12  C   UNL     1       7.804   5.715  18.965  0.00  0.00    +0.000 C 
ATOM     13  F   UNL     1       7.289   5.781  20.229  0.00  0.00    +0.000 F 
ATOM     14  F   UNL     1       8.817   4.808  19.033  0.00  0.00    +0.000 F 
ATOM     15  F   UNL     1       8.390   6.927  18.750  0.00  0.00    +0.000 F 
ENDBRANCH   5  12
BRANCH   1  16
ATOM     16  S   UNL     1       2.927   4.658  17.970  0.00  0.00    +0.000 S 
BRANCH  16  17
ATOM     17  C   UNL     1       3.141   5.050  19.723  0.00  0.00    +0.000 C 
BRANCH  17  19
ATOM     18  N   UNL     1       2.297   7.318  20.100  0.00  0.00    +0.000 N 
ATOM     19  C   UNL     1       2.059   5.961  20.264  0.00  0.00    +0.000 C 
ATOM     20  O   UNL     1       1.026   5.467  20.722  0.00  0.00    +0.000 OA
ATOM     21  H   UNL     1       3.100   7.588  19.548  0.00  0.00    +0.000 HD
BRANCH  18  26
ATOM     22  C   UNL     1      -1.051  11.529  22.105  0.00  0.00    +0.000 C 
ATOM     23  C   UNL     1      -0.183  10.427  21.575  0.00  0.00    +0.000 A 
ATOM     24  C   UNL     1       0.054  10.313  20.205  0.00  0.00    +0.000 A 
ATOM     25  C   UNL     1       0.869   9.291  19.709  0.00  0.00    +0.000 A 
ATOM     26  C   UNL     1       1.463   8.363  20.564  0.00  0.00    +0.000 A 
ATOM     27  C   UNL     1       1.207   8.460  21.937  0.00  0.00    +0.000 A 
ATOM     28  C   UNL     1       0.400   9.492  22.439  0.00  0.00    +0.000 A 
ENDBRANCH  18  26
ENDBRANCH  17  19
ENDBRANCH  16  17
ENDBRANCH   1  16
TORSDOF 6
ENDMDL
MODEL 5
REMARK VINA RESULT:      -8.1      1.158      1.662
REMARK  Name = 
REMARK  7 active torsions:
REMARK  status: ('A' for Active; 'I' for Inactive)
REMARK    1  A    between atoms: C_1  and  C_2
REMARK    2  A    between atoms: C_5  and  N_6
REMARK    3  A    between atoms: C_7  and  C_9
REMARK    4  A    between atoms: C_9  and  S_10
REMARK    5  A    between atoms: S_10  and  C_11
REMARK    6  A    between atoms: C_13  and  C_14
REMARK    7  A    between atoms: C_20  and  C_21
REMARK                            x       y       z     vdW  Elec       q    Type
REMARK                         _______ _______ _______ _____ _____    ______ ____
ROOT
ATOM      1  C   UNL     1       5.452   4.212  17.682  0.00  0.00    +0.000 A 
ATOM      2  N   UNL     1       5.359   3.836  16.401  0.00  0.00    +0.000 NA
ATOM      3  C   UNL     1       5.987   4.626  15.499  0.00  0.00    +0.000 A 
ATOM      4  C   UNL     1       6.658   5.781  15.850  0.00  0.00    +0.000 A 
ATOM      5  C   UNL     1       6.702   6.090  17.192  0.00  0.00    +0.000 A 
ATOM      6  N   UNL     1       6.096   5.307  18.114  0.00  0.00    +0.000 NA
ENDROOT
BRANCH   3   7
ATOM      7  C   UNL     1       5.966   4.167  14.113  0.00  0.00    +0.000 A 
ATOM      8  C   UNL     1       5.054   3.488  13.327  0.00  0.00    +0.000 A 
ATOM      9  C   UNL     1       5.672   3.282  12.067  0.00  0.00    +0.000 A 
ATOM     10  C   UNL     1       6.916   3.860  12.150  0.00  0.00    +0.000 A 
ATOM     11  O   UNL     1       7.100   4.404  13.379  0.00  0.00    +0.000 OA
ENDBRANCH   3   7
BRANCH   5  12
ATOM     12  C   UNL     1       7.470   7.312  17.665  0.00  0.00    +0.000 C 
ATOM     13  F   UNL     1       6.665   8.382  17.935  0.00  0.00    +0.000 F 
ATOM     14  F   UNL     1       8.173   7.090  18.811  0.00  0.00    +0.000 F 
ATOM     15  F   UNL     1       8.371   7.759  16.745  0.00  0.00    +0.000 F 
ENDBRANCH   5  12
BRANCH   1  16
ATOM     16  S   UNL     1       4.651   3.280  18.963  0.00  0.00    +0.000 S 
BRANCH  16  17
ATOM     17  C   UNL     1       2.971   3.140  18.308  0.00  0.00    +0.000 C 
BRANCH  17  19
ATOM     18  N   UNL     1       2.876   5.522  18.874  0.00  0.00    +0.000 N 
ATOM     19  C   UNL     1       2.266   4.476  18.195  0.00  0.00    +0.000 C 
ATOM     20  O   UNL     1       1.279   4.579  17.462  0.00  0.00    +0.000 OA
ATOM     21  H   UNL     1       3.780   5.344  19.291  0.00  0.00    +0.000 HD
BRANCH  18  26
ATOM     22  C   UNL     1       0.892  10.905  19.098  0.00  0.00    +0.000 C 
ATOM     23  C   UNL     1       1.415   9.500  19.048  0.00  0.00    +0.000 A 
ATOM     24  C   UNL     1       1.322   8.672  20.167  0.00  0.00    +0.000 A 
ATOM     25  C   UNL     1       1.802   7.360  20.120  0.00  0.00    +0.000 A 
ATOM     26  C   UNL     1       2.383   6.846  18.960  0.00  0.00    +0.000 A 
ATOM     27  C   UNL     1       2.499   7.682  17.843  0.00  0.00    +0.000 A 
ATOM     28  C   UNL     1       2.007   8.996  17.884  0.00  0.00    +0.000 A 
ENDBRANCH  18  26
ENDBRANCH  17  19
ENDBRANCH  16  17
ENDBRANCH   1  16
TORSDOF 6
ENDMDL
MODEL 6
REMARK VINA RESULT:      -8.1      1.176      1.449
REMARK  Name = 
REMARK  7 active torsions:
REMARK  status: ('A' for Active; 'I' for Inactive)
REMARK    1  A    between atoms: C_1  and  C_2
REMARK    2  A    between atoms: C_5  and  N_6
REMARK    3  A    between atoms: C_7  and  C_9
REMARK    4  A    between atoms: C_9  and  S_10
REMARK    5  A    between atoms: S_10  and  C_11
REMARK    6  A    between atoms: C_13  and  C_14
REMARK    7  A    between atoms: C_20  and  C_21
REMARK                            x       y       z     vdW  Elec       q    Type
REMARK                         _______ _______ _______ _____ _____    ______ ____
ROOT
ATOM      1  C   UNL     1       5.326   4.101  17.558  0.00  0.00    +0.000 A 
ATOM      2  N   UNL     1       5.270   3.735  16.273  0.00  0.00    +0.000 NA
ATOM      3  C   UNL     1       5.913   4.539  15.393  0.00  0.00    +0.000 A 
ATOM      4  C   UNL     1       6.565   5.697  15.771  0.00  0.00    +0.000 A 
ATOM      5  C   UNL     1       6.572   5.994  17.117  0.00  0.00    +0.000 A 
ATOM      6  N   UNL     1       5.949   5.199  18.016  0.00  0.00    +0.000 NA
ENDROOT
BRANCH   3   7
ATOM      7  C   UNL     1       5.931   4.092  14.003  0.00  0.00    +0.000 A 
ATOM      8  C   UNL     1       5.027   3.457  13.174  0.00  0.00    +0.000 A 
ATOM      9  C   UNL     1       5.688   3.236  11.939  0.00  0.00    +0.000 A 
ATOM     10  C   UNL     1       6.950   3.762  12.079  0.00  0.00    +0.000 A 
ATOM     11  O   UNL     1       7.104   4.288  13.320  0.00  0.00    +0.000 OA
ENDBRANCH   3   7
BRANCH   5  12
ATOM     12  C   UNL     1       7.316   7.219  17.620  0.00  0.00    +0.000 C 
ATOM     13  F   UNL     1       8.002   6.993  18.780  0.00  0.00    +0.000 F 
ATOM     14  F   UNL     1       8.242   7.681  16.734  0.00  0.00    +0.000 F 
ATOM     15  F   UNL     1       6.488   8.268  17.888  0.00  0.00    +0.000 F 
ENDBRANCH   5  12
BRANCH   1  16
ATOM     16  S   UNL     1       4.500   3.151  18.811  0.00  0.00    +0.000 S 
BRANCH  16  17
ATOM     17  C   UNL     1       2.820   3.064  18.146  0.00  0.00    +0.000 C 
BRANCH  17  19
ATOM     18  N   UNL     1       2.813   5.446  18.718  0.00  0.00    +0.000 N 
ATOM     19  C   UNL     1       2.139   4.415  18.080  0.00  0.00    +0.000 C 
ATOM     20  O   UNL     1       1.108   4.540  17.414  0.00  0.00    +0.000 OA
ATOM     21  H   UNL     1       3.739   5.248  19.075  0.00  0.00    +0.000 HD
BRANCH  18  26
ATOM     22  C   UNL     1       0.952  10.842  19.332  0.00  0.00    +0.000 C 
ATOM     23  C   UNL     1       1.433   9.431  19.163  0.00  0.00    +0.000 A 
ATOM     24  C   UNL     1       1.909   8.991  17.928  0.00  0.00    +0.000 A 
ATOM     25  C   UNL     1       2.364   7.679  17.771  0.00  0.00    +0.000 A 
ATOM     26  C   UNL     1       2.356   6.780  18.838  0.00  0.00    +0.000 A 
ATOM     27  C   UNL     1       1.857   7.212  20.072  0.00  0.00    +0.000 A 
ATOM     28  C   UNL     1       1.410   8.533  20.236  0.00  0.00    +0.000 A 
ENDBRANCH  18  26
ENDBRANCH  17  19
ENDBRANCH  16  17
ENDBRANCH   1  16
TORSDOF 6
ENDMDL
MODEL 7
REMARK VINA RESULT:      -8.0      5.275      6.612
REMARK  Name = 
REMARK  7 active torsions:
REMARK  status: ('A' for Active; 'I' for Inactive)
REMARK    1  A    between atoms: C_1  and  C_2
REMARK    2  A    between atoms: C_5  and  N_6
REMARK    3  A    between atoms: C_7  and  C_9
REMARK    4  A    between atoms: C_9  and  S_10
REMARK    5  A    between atoms: S_10  and  C_11
REMARK    6  A    between atoms: C_13  and  C_14
REMARK    7  A    between atoms: C_20  and  C_21
REMARK                            x       y       z     vdW  Elec       q    Type
REMARK                         _______ _______ _______ _____ _____    ______ ____
ROOT
ATOM      1  C   UNL     1       6.831   6.041  17.454  0.00  0.00    +0.000 A 
ATOM      2  N   UNL     1       7.159   5.682  16.208  0.00  0.00    +0.000 NA
ATOM      3  C   UNL     1       6.244   4.944  15.537  0.00  0.00    +0.000 A 
ATOM      4  C   UNL     1       5.049   4.538  16.098  0.00  0.00    +0.000 A 
ATOM      5  C   UNL     1       4.795   4.955  17.387  0.00  0.00    +0.000 A 
ATOM      6  N   UNL     1       5.687   5.706  18.072  0.00  0.00    +0.000 NA
ENDROOT
BRANCH   3   7
ATOM      7  C   UNL     1       6.560   4.630  14.146  0.00  0.00    +0.000 A 
ATOM      8  C   UNL     1       6.121   3.685  13.239  0.00  0.00    +0.000 A 
ATOM      9  C   UNL     1       6.883   3.866  12.057  0.00  0.00    +0.000 A 
ATOM     10  C   UNL     1       7.731   4.919  12.304  0.00  0.00    +0.000 A 
ATOM     11  O   UNL     1       7.538   5.393  13.561  0.00  0.00    +0.000 OA
ENDBRANCH   3   7
BRANCH   5  12
ATOM     12  C   UNL     1       3.478   4.599  18.054  0.00  0.00    +0.000 C 
ATOM     13  F   UNL     1       2.782   5.692  18.490  0.00  0.00    +0.000 F 
ATOM     14  F   UNL     1       2.624   3.932  17.228  0.00  0.00    +0.000 F 
ATOM     15  F   UNL     1       3.638   3.811  19.154  0.00  0.00    +0.000 F 
ENDBRANCH   5  12
BRANCH   1  16
ATOM     16  S   UNL     1       7.953   6.986  18.454  0.00  0.00    +0.000 S 
BRANCH  16  17
ATOM     17  C   UNL     1       7.822   8.622  17.691  0.00  0.00    +0.000 C 
BRANCH  17  19
ATOM     18  N   UNL     1       8.749  10.889  17.722  0.00  0.00    +0.000 N 
ATOM     19  C   UNL     1       8.685   9.663  18.371  0.00  0.00    +0.000 C 
ATOM     20  O   UNL     1       9.193   9.408  19.466  0.00  0.00    +0.000 OA
ATOM     21  H   UNL     1       8.143  11.027  16.924  0.00  0.00    +0.000 HD
BRANCH  18  26
ATOM     22  C   UNL     1      12.001  15.347  19.306  0.00  0.00    +0.000 C 
ATOM     23  C   UNL     1      11.148  14.182  18.900  0.00  0.00    +0.000 A 
ATOM     24  C   UNL     1       9.797  14.142  19.246  0.00  0.00    +0.000 A 
ATOM     25  C   UNL     1       8.999  13.061  18.863  0.00  0.00    +0.000 A 
ATOM     26  C   UNL     1       9.527  11.998  18.131  0.00  0.00    +0.000 A 
ATOM     27  C   UNL     1      10.888  12.023  17.804  0.00  0.00    +0.000 A 
ATOM     28  C   UNL     1      11.689  13.114  18.176  0.00  0.00    +0.000 A 
ENDBRANCH  18  26
ENDBRANCH  17  19
ENDBRANCH  16  17
ENDBRANCH   1  16
TORSDOF 6
ENDMDL
MODEL 8
REMARK VINA RESULT:      -8.0      1.491      1.970
REMARK  Name = 
REMARK  7 active torsions:
REMARK  status: ('A' for Active; 'I' for Inactive)
REMARK    1  A    between atoms: C_1  and  C_2
REMARK    2  A    between atoms: C_5  and  N_6
REMARK    3  A    between atoms: C_7  and  C_9
REMARK    4  A    between atoms: C_9  and  S_10
REMARK    5  A    between atoms: S_10  and  C_11
REMARK    6  A    between atoms: C_13  and  C_14
REMARK    7  A    between atoms: C_20  and  C_21
REMARK                            x       y       z     vdW  Elec       q    Type
REMARK                         _______ _______ _______ _____ _____    ______ ____
ROOT
ATOM      1  C   UNL     1       4.546   4.901  17.463  0.00  0.00    +0.000 A 
ATOM      2  N   UNL     1       4.802   4.721  16.162  0.00  0.00    +0.000 NA
ATOM      3  C   UNL     1       6.091   4.876  15.779  0.00  0.00    +0.000 A 
ATOM      4  C   UNL     1       7.097   5.239  16.654  0.00  0.00    +0.000 A 
ATOM      5  C   UNL     1       6.741   5.403  17.976  0.00  0.00    +0.000 A 
ATOM      6  N   UNL     1       5.462   5.238  18.385  0.00  0.00    +0.000 NA
ENDROOT
BRANCH   3   7
ATOM      7  C   UNL     1       6.389   4.589  14.379  0.00  0.00    +0.000 A 
ATOM      8  C   UNL     1       5.912   3.686  13.449  0.00  0.00    +0.000 A 
ATOM      9  C   UNL     1       6.675   3.871  12.268  0.00  0.00    +0.000 A 
ATOM     10  C   UNL     1       7.560   4.886  12.538  0.00  0.00    +0.000 A 
ATOM     11  O   UNL     1       7.391   5.332  13.808  0.00  0.00    +0.000 OA
ENDBRANCH   3   7
BRANCH   5  12
ATOM     12  C   UNL     1       7.799   5.745  19.010  0.00  0.00    +0.000 C 
ATOM     13  F   UNL     1       8.832   4.852  19.039  0.00  0.00    +0.000 F 
ATOM     14  F   UNL     1       8.376   6.961  18.801  0.00  0.00    +0.000 F 
ATOM     15  F   UNL     1       7.307   5.769  20.281  0.00  0.00    +0.000 F 
ENDBRANCH   5  12
BRANCH   1  16
ATOM     16  S   UNL     1       2.892   4.755  18.093  0.00  0.00    +0.000 S 
BRANCH  16  17
ATOM     17  C   UNL     1       3.026   5.647  19.661  0.00  0.00    +0.000 C 
BRANCH  17  19
ATOM     18  N   UNL     1       1.824   7.432  20.832  0.00  0.00    +0.000 N 
ATOM     19  C   UNL     1       2.366   7.009  19.626  0.00  0.00    +0.000 C 
ATOM     20  O   UNL     1       2.422   7.682  18.594  0.00  0.00    +0.000 OA
ATOM     21  H   UNL     1       2.003   6.862  21.649  0.00  0.00    +0.000 HD
BRANCH  18  26
ATOM     22  C   UNL     1      -1.051  12.306  21.797  0.00  0.00    +0.000 C 
ATOM     23  C   UNL     1      -0.305  11.031  21.537  0.00  0.00    +0.000 A 
ATOM     24  C   UNL     1       0.192  10.751  20.265  0.00  0.00    +0.000 A 
ATOM     25  C   UNL     1       0.894   9.568  20.022  0.00  0.00    +0.000 A 
ATOM     26  C   UNL     1       1.115   8.638  21.039  0.00  0.00    +0.000 A 
ATOM     27  C   UNL     1       0.596   8.905  22.311  0.00  0.00    +0.000 A 
ATOM     28  C   UNL     1      -0.098  10.099  22.561  0.00  0.00    +0.000 A 
ENDBRANCH  18  26
ENDBRANCH  17  19
ENDBRANCH  16  17
ENDBRANCH   1  16
TORSDOF 6
ENDMDL
MODEL 9
REMARK VINA RESULT:      -8.0      4.416      7.138
REMARK  Name = 
REMARK  7 active torsions:
REMARK  status: ('A' for Active; 'I' for Inactive)
REMARK    1  A    between atoms: C_1  and  C_2
REMARK    2  A    between atoms: C_5  and  N_6
REMARK    3  A    between atoms: C_7  and  C_9
REMARK    4  A    between atoms: C_9  and  S_10
REMARK    5  A    between atoms: S_10  and  C_11
REMARK    6  A    between atoms: C_13  and  C_14
REMARK    7  A    between atoms: C_20  and  C_21
REMARK                            x       y       z     vdW  Elec       q    Type
REMARK                         _______ _______ _______ _____ _____    ______ ____
ROOT
ATOM      1  C   UNL     1       5.272   5.751  17.463  0.00  0.00    +0.000 A 
ATOM      2  N   UNL     1       4.495   6.822  17.659  0.00  0.00    +0.000 NA
ATOM      3  C   UNL     1       3.241   6.577  18.109  0.00  0.00    +0.000 A 
ATOM      4  C   UNL     1       2.755   5.302  18.324  0.00  0.00    +0.000 A 
ATOM      5  C   UNL     1       3.627   4.259  18.096  0.00  0.00    +0.000 A 
ATOM      6  N   UNL     1       4.889   4.479  17.662  0.00  0.00    +0.000 NA
ENDROOT
BRANCH   3   7
ATOM      7  C   UNL     1       2.423   7.748  18.412  0.00  0.00    +0.000 A 
ATOM      8  C   UNL     1       2.048   8.879  17.713  0.00  0.00    +0.000 A 
ATOM      9  C   UNL     1       1.292   9.682  18.605  0.00  0.00    +0.000 A 
ATOM     10  C   UNL     1       1.235   8.988  19.790  0.00  0.00    +0.000 A 
ATOM     11  O   UNL     1       1.909   7.815  19.681  0.00  0.00    +0.000 OA
ENDBRANCH   3   7
BRANCH   5  12
ATOM     12  C   UNL     1       3.188   2.830  18.364  0.00  0.00    +0.000 C 
ATOM     13  F   UNL     1       2.924   2.124  17.224  0.00  0.00    +0.000 F 
ATOM     14  F   UNL     1       4.125   2.101  19.033  0.00  0.00    +0.000 F 
ATOM     15  F   UNL     1       2.047   2.758  19.107  0.00  0.00    +0.000 F 
ENDBRANCH   5  12
BRANCH   1  16
ATOM     16  S   UNL     1       6.928   5.929  16.848  0.00  0.00    +0.000 S 
BRANCH  16  17
ATOM     17  C   UNL     1       7.765   6.652  18.279  0.00  0.00    +0.000 C 
BRANCH  17  19
ATOM     18  N   UNL     1       8.927   8.675  19.028  0.00  0.00    +0.000 N 
ATOM     19  C   UNL     1       8.010   8.139  18.134  0.00  0.00    +0.000 C 
ATOM     20  O   UNL     1       7.472   8.753  17.209  0.00  0.00    +0.000 OA
ATOM     21  H   UNL     1       9.432   8.030  19.621  0.00  0.00    +0.000 HD
BRANCH  18  26
ATOM     22  C   UNL     1      10.365  14.227  19.288  0.00  0.00    +0.000 C 
ATOM     23  C   UNL     1       9.995  12.774  19.227  0.00  0.00    +0.000 A 
ATOM     24  C   UNL     1       9.680  12.077  20.393  0.00  0.00    +0.000 A 
ATOM     25  C   UNL     1       9.328  10.726  20.338  0.00  0.00    +0.000 A 
ATOM     26  C   UNL     1       9.283  10.041  19.123  0.00  0.00    +0.000 A 
ATOM     27  C   UNL     1       9.622  10.732  17.954  0.00  0.00    +0.000 A 
ATOM     28  C   UNL     1       9.964  12.092  18.005  0.00  0.00    +0.000 A 
ENDBRANCH  18  26
ENDBRANCH  17  19
ENDBRANCH  16  17
ENDBRANCH   1  16
TORSDOF 6
ENDMDL
