MODEL 1
REMARK VINA RESULT:      -8.8      0.000      0.000
REMARK  Name = 
REMARK  4 active torsions:
REMARK  status: ('A' for Active; 'I' for Inactive)
REMARK    1  A    between atoms: C_2  and  C_3
REMARK    2  A    between atoms: C_4  and  C_5
REMARK    3  A    between atoms: N_12  and  C_13
REMARK    4  A    between atoms: N_21  and  C_22
REMARK                            x       y       z     vdW  Elec       q    Type
REMARK                         _______ _______ _______ _____ _____    ______ ____
ROOT
ATOM      1  C   UNL     1       1.704   5.566  20.373  0.00  0.00    +0.000 A 
ATOM      2  C   UNL     1       1.118   4.427  20.913  0.00  0.00    +0.000 A 
ATOM      3  C   UNL     1       1.453   3.160  20.419  0.00  0.00    +0.000 A 
ATOM      4  C   UNL     1       2.389   2.989  19.411  0.00  0.00    +0.000 A 
ATOM      5  N   UNL     1       2.692   1.745  19.031  0.00  0.00    +0.000 NA
ATOM      6  C   UNL     1       3.618   1.619  18.077  0.00  0.00    +0.000 A 
ATOM      7  N   UNL     1       4.258   2.619  17.470  0.00  0.00    +0.000 NA
ATOM      8  C   UNL     1       3.948   3.871  17.859  0.00  0.00    +0.000 A 
ATOM      9  N   UNL     1       4.662   4.957  17.271  0.00  0.00    +0.000 N 
ATOM     10  C   UNL     1       2.984   4.127  18.850  0.00  0.00    +0.000 A 
ATOM     11  C   UNL     1       2.598   5.415  19.309  0.00  0.00    +0.000 A 
ATOM     12  H   UNL     1       5.120   5.476  18.014  0.00  0.00    +0.000 HD
ENDROOT
BRANCH   9  13
ATOM     13  C   UNL     1       5.497   4.821  16.135  0.00  0.00    +0.000 A 
ATOM     14  C   UNL     1       6.818   5.295  16.159  0.00  0.00    +0.000 A 
ATOM     15  C   UNL     1       7.631   5.222  15.028  0.00  0.00    +0.000 A 
ATOM     16  C   UNL     1       7.135   4.657  13.856  0.00  0.00    +0.000 A 
ATOM     17  C   UNL     1       5.836   4.153  13.832  0.00  0.00    +0.000 A 
ATOM     18 BR   UNL     1       5.161   3.395  12.235  0.00  0.00    +0.000 Br
ATOM     19  C   UNL     1       5.022   4.216  14.965  0.00  0.00    +0.000 A 
ENDBRANCH   9  13
BRANCH   1  22
ATOM     20  O   UNL     1       2.013   8.147  18.967  0.00  0.00    +0.000 OA
ATOM     21  C   UNL     1       1.642   8.044  20.131  0.00  0.00    +0.000 C 
ATOM     22  N   UNL     1       1.459   6.873  20.842  0.00  0.00    +0.000 N 
ATOM     23  H   UNL     1       1.007   6.947  21.743  0.00  0.00    +0.000 HD
BRANCH  21  24
ATOM     24  C   UNL     1       1.301   9.248  20.941  0.00  0.00    +0.000 C 
ATOM     25  C   UNL     1       0.264  10.023  20.588  0.00  0.00    +0.000 C 
BRANCH  25  26
ATOM     26  C   UNL     1      -0.062  11.255  21.315  0.00  0.00    +0.000 A 
ATOM     27  C   UNL     1      -1.007  11.176  22.349  0.00  0.00    +0.000 A 
ATOM     28  C   UNL     1      -1.355  12.311  23.087  0.00  0.00    +0.000 A 
ATOM     29  C   UNL     1      -0.759  13.538  22.798  0.00  0.00    +0.000 A 
ATOM     30  C   UNL     1       0.181  13.629  21.770  0.00  0.00    +0.000 A 
ATOM     31  C   UNL     1       0.526  12.497  21.027  0.00  0.00    +0.000 A 
ATOM     32 CL   UNL     1       1.688  12.682  19.761  0.00  0.00    +0.000 Cl
ENDBRANCH  25  26
ENDBRANCH  21  24
ENDBRANCH   1  22
TORSDOF 4
ENDMDL
MODEL 2
REMARK VINA RESULT:      -8.6      5.862     11.416
REMARK  Name = 
REMARK  4 active torsions:
REMARK  status: ('A' for Active; 'I' for Inactive)
REMARK    1  A    between atoms: C_2  and  C_3
REMARK    2  A    between atoms: C_4  and  C_5
REMARK    3  A    between atoms: N_12  and  C_13
REMARK    4  A    between atoms: N_21  and  C_22
REMARK                            x       y       z     vdW  Elec       q    Type
REMARK                         _______ _______ _______ _____ _____    ______ ____
ROOT
ATOM      1  C   UNL     1      -1.621  10.094  17.534  0.00  0.00    +0.000 A 
ATOM      2  C   UNL     1      -2.308   9.929  16.336  0.00  0.00    +0.000 A 
ATOM      3  C   UNL     1      -3.555  10.539  16.149  0.00  0.00    +0.000 A 
ATOM      4  C   UNL     1      -4.132  11.342  17.119  0.00  0.00    +0.000 A 
ATOM      5  N   UNL     1      -5.300  11.931  16.844  0.00  0.00    +0.000 NA
ATOM      6  C   UNL     1      -5.811  12.719  17.793  0.00  0.00    +0.000 A 
ATOM      7  N   UNL     1      -5.266  12.965  18.985  0.00  0.00    +0.000 NA
ATOM      8  C   UNL     1      -4.089  12.369  19.255  0.00  0.00    +0.000 A 
ATOM      9  N   UNL     1      -3.453  12.664  20.497  0.00  0.00    +0.000 N 
ATOM     10  C   UNL     1      -3.457  11.513  18.336  0.00  0.00    +0.000 A 
ATOM     11  C   UNL     1      -2.222  10.845  18.549  0.00  0.00    +0.000 A 
ATOM     12  H   UNL     1      -2.535  13.051  20.302  0.00  0.00    +0.000 HD
ENDROOT
BRANCH   9  13
ATOM     13  C   UNL     1      -4.092  13.345  21.563  0.00  0.00    +0.000 A 
ATOM     14  C   UNL     1      -3.527  14.506  22.110  0.00  0.00    +0.000 A 
ATOM     15  C   UNL     1      -4.115  15.152  23.198  0.00  0.00    +0.000 A 
ATOM     16  C   UNL     1      -5.291  14.648  23.746  0.00  0.00    +0.000 A 
ATOM     17  C   UNL     1      -5.880  13.515  23.188  0.00  0.00    +0.000 A 
ATOM     18 BR   UNL     1      -7.474  12.828  23.942  0.00  0.00    +0.000 Br
ATOM     19  C   UNL     1      -5.299  12.872  22.093  0.00  0.00    +0.000 A 
ENDBRANCH   9  13
BRANCH   1  22
ATOM     20  O   UNL     1       0.820  11.445  18.507  0.00  0.00    +0.000 OA
ATOM     21  C   UNL     1       0.766  10.253  18.228  0.00  0.00    +0.000 C 
ATOM     22  N   UNL     1      -0.343   9.555  17.787  0.00  0.00    +0.000 N 
ATOM     23  H   UNL     1      -0.266   8.548  17.742  0.00  0.00    +0.000 HD
BRANCH  21  24
ATOM     24  C   UNL     1       1.959   9.372  18.373  0.00  0.00    +0.000 C 
ATOM     25  C   UNL     1       1.887   8.081  18.014  0.00  0.00    +0.000 C 
BRANCH  25  26
ATOM     26  C   UNL     1       3.015   7.162  18.206  0.00  0.00    +0.000 A 
ATOM     27  C   UNL     1       4.067   7.210  17.278  0.00  0.00    +0.000 A 
ATOM     28  C   UNL     1       5.174   6.368  17.410  0.00  0.00    +0.000 A 
ATOM     29  C   UNL     1       5.242   5.470  18.474  0.00  0.00    +0.000 A 
ATOM     30  C   UNL     1       4.201   5.412  19.402  0.00  0.00    +0.000 A 
ATOM     31  C   UNL     1       3.090   6.248  19.268  0.00  0.00    +0.000 A 
ATOM     32 CL   UNL     1       1.831   6.116  20.446  0.00  0.00    +0.000 Cl
ENDBRANCH  25  26
ENDBRANCH  21  24
ENDBRANCH   1  22
TORSDOF 4
ENDMDL
MODEL 3
REMARK VINA RESULT:      -8.6      5.020     11.349
REMARK  Name = 
REMARK  4 active torsions:
REMARK  status: ('A' for Active; 'I' for Inactive)
REMARK    1  A    between atoms: C_2  and  C_3
REMARK    2  A    between atoms: C_4  and  C_5
REMARK    3  A    between atoms: N_12  and  C_13
REMARK    4  A    between atoms: N_21  and  C_22
REMARK                            x       y       z     vdW  Elec       q    Type
REMARK                         _______ _______ _______ _____ _____    ______ ____
ROOT
ATOM      1  C   UNL     1       1.023  10.676  19.304  0.00  0.00    +0.000 A 
ATOM      2  C   UNL     1       1.716  11.634  18.572  0.00  0.00    +0.000 A 
ATOM      3  C   UNL     1       1.310  12.974  18.601  0.00  0.00    +0.000 A 
ATOM      4  C   UNL     1       0.239  13.400  19.371  0.00  0.00    +0.000 A 
ATOM      5  N   UNL     1      -0.053  14.703  19.387  0.00  0.00    +0.000 NA
ATOM      6  C   UNL     1      -1.074  15.078  20.162  0.00  0.00    +0.000 A 
ATOM      7  N   UNL     1      -1.825  14.273  20.912  0.00  0.00    +0.000 NA
ATOM      8  C   UNL     1      -1.524  12.960  20.893  0.00  0.00    +0.000 A 
ATOM      9  N   UNL     1      -2.272  12.084  21.734  0.00  0.00    +0.000 N 
ATOM     10  C   UNL     1      -0.476  12.446  20.109  0.00  0.00    +0.000 A 
ATOM     11  C   UNL     1      -0.101  11.078  20.031  0.00  0.00    +0.000 A 
ATOM     12  H   UNL     1      -1.626  11.615  22.361  0.00  0.00    +0.000 HD
ENDROOT
BRANCH   9  13
ATOM     13  C   UNL     1      -3.464  12.464  22.398  0.00  0.00    +0.000 A 
ATOM     14  C   UNL     1      -3.474  12.668  23.786  0.00  0.00    +0.000 A 
ATOM     15  C   UNL     1      -4.653  12.984  24.462  0.00  0.00    +0.000 A 
ATOM     16  C   UNL     1      -5.842  13.114  23.749  0.00  0.00    +0.000 A 
ATOM     17  C   UNL     1      -5.837  12.947  22.366  0.00  0.00    +0.000 A 
ATOM     18 BR   UNL     1      -7.457  13.114  21.402  0.00  0.00    +0.000 Br
ATOM     19  C   UNL     1      -4.657  12.639  21.686  0.00  0.00    +0.000 A 
ENDBRANCH   9  13
BRANCH   1  22
ATOM     20  O   UNL     1       2.294   8.985  17.241  0.00  0.00    +0.000 OA
ATOM     21  C   UNL     1       1.971   8.579  18.351  0.00  0.00    +0.000 C 
ATOM     22  N   UNL     1       1.392   9.316  19.367  0.00  0.00    +0.000 N 
ATOM     23  H   UNL     1       1.321   8.877  20.274  0.00  0.00    +0.000 HD
BRANCH  21  24
ATOM     24  C   UNL     1       2.212   7.165  18.757  0.00  0.00    +0.000 C 
ATOM     25  C   UNL     1       2.598   6.262  17.843  0.00  0.00    +0.000 C 
BRANCH  25  26
ATOM     26  C   UNL     1       2.777   4.846  18.185  0.00  0.00    +0.000 A 
ATOM     27  C   UNL     1       1.712   3.969  17.933  0.00  0.00    +0.000 A 
ATOM     28  C   UNL     1       1.822   2.607  18.227  0.00  0.00    +0.000 A 
ATOM     29  C   UNL     1       3.001   2.108  18.777  0.00  0.00    +0.000 A 
ATOM     30  C   UNL     1       4.067   2.971  19.035  0.00  0.00    +0.000 A 
ATOM     31  C   UNL     1       3.957   4.334  18.747  0.00  0.00    +0.000 A 
ATOM     32 CL   UNL     1       5.311   5.348  19.103  0.00  0.00    +0.000 Cl
ENDBRANCH  25  26
ENDBRANCH  21  24
ENDBRANCH   1  22
TORSDOF 4
ENDMDL
MODEL 4
REMARK VINA RESULT:      -8.6      4.320     10.053
REMARK  Name = 
REMARK  4 active torsions:
REMARK  status: ('A' for Active; 'I' for Inactive)
REMARK    1  A    between atoms: C_2  and  C_3
REMARK    2  A    between atoms: C_4  and  C_5
REMARK    3  A    between atoms: N_12  and  C_13
REMARK    4  A    between atoms: N_21  and  C_22
REMARK                            x       y       z     vdW  Elec       q    Type
REMARK                         _______ _______ _______ _____ _____    ______ ____
ROOT
ATOM      1  C   UNL     1       1.169   8.667  20.746  0.00  0.00    +0.000 A 
ATOM      2  C   UNL     1       0.292   8.200  21.719  0.00  0.00    +0.000 A 
ATOM      3  C   UNL     1      -0.497   9.098  22.447  0.00  0.00    +0.000 A 
ATOM      4  C   UNL     1      -0.462  10.464  22.213  0.00  0.00    +0.000 A 
ATOM      5  N   UNL     1      -1.283  11.250  22.914  0.00  0.00    +0.000 NA
ATOM      6  C   UNL     1      -1.239  12.556  22.640  0.00  0.00    +0.000 A 
ATOM      7  N   UNL     1      -0.451  13.142  21.740  0.00  0.00    +0.000 NA
ATOM      8  C   UNL     1       0.374  12.343  21.035  0.00  0.00    +0.000 A 
ATOM      9  N   UNL     1       1.184  12.935  20.022  0.00  0.00    +0.000 N 
ATOM     10  C   UNL     1       0.422  10.953  21.241  0.00  0.00    +0.000 A 
ATOM     11  C   UNL     1       1.266  10.047  20.545  0.00  0.00    +0.000 A 
ATOM     12  H   UNL     1       0.964  12.490  19.136  0.00  0.00    +0.000 HD
ENDROOT
BRANCH   9  13
ATOM     13  C   UNL     1       1.358  14.334  19.875  0.00  0.00    +0.000 A 
ATOM     14  C   UNL     1       2.370  15.005  20.577  0.00  0.00    +0.000 A 
ATOM     15  C   UNL     1       2.514  16.390  20.487  0.00  0.00    +0.000 A 
ATOM     16  C   UNL     1       1.650  17.123  19.678  0.00  0.00    +0.000 A 
ATOM     17  C   UNL     1       0.663  16.462  18.950  0.00  0.00    +0.000 A 
ATOM     18 BR   UNL     1      -0.516  17.462  17.858  0.00  0.00    +0.000 Br
ATOM     19  C   UNL     1       0.522  15.075  19.030  0.00  0.00    +0.000 A 
ENDBRANCH   9  13
BRANCH   1  22
ATOM     20  O   UNL     1       1.584   8.739  17.821  0.00  0.00    +0.000 OA
ATOM     21  C   UNL     1       2.098   7.910  18.562  0.00  0.00    +0.000 C 
ATOM     22  N   UNL     1       1.963   7.829  19.936  0.00  0.00    +0.000 N 
ATOM     23  H   UNL     1       2.567   7.182  20.422  0.00  0.00    +0.000 HD
BRANCH  21  24
ATOM     24  C   UNL     1       3.005   6.854  18.028  0.00  0.00    +0.000 C 
ATOM     25  C   UNL     1       4.186   7.193  17.490  0.00  0.00    +0.000 C 
BRANCH  25  26
ATOM     26  C   UNL     1       5.076   6.193  16.890  0.00  0.00    +0.000 A 
ATOM     27  C   UNL     1       5.136   6.122  15.490  0.00  0.00    +0.000 A 
ATOM     28  C   UNL     1       5.970   5.199  14.856  0.00  0.00    +0.000 A 
ATOM     29  C   UNL     1       6.757   4.335  15.617  0.00  0.00    +0.000 A 
ATOM     30  C   UNL     1       6.704   4.394  17.010  0.00  0.00    +0.000 A 
ATOM     31  C   UNL     1       5.866   5.314  17.646  0.00  0.00    +0.000 A 
ATOM     32 CL   UNL     1       5.841   5.326  19.375  0.00  0.00    +0.000 Cl
ENDBRANCH  25  26
ENDBRANCH  21  24
ENDBRANCH   1  22
TORSDOF 4
ENDMDL
MODEL 5
REMARK VINA RESULT:      -8.6      1.750      2.273
REMARK  Name = 
REMARK  4 active torsions:
REMARK  status: ('A' for Active; 'I' for Inactive)
REMARK    1  A    between atoms: C_2  and  C_3
REMARK    2  A    between atoms: C_4  and  C_5
REMARK    3  A    between atoms: N_12  and  C_13
REMARK    4  A    between atoms: N_21  and  C_22
REMARK                            x       y       z     vdW  Elec       q    Type
REMARK                         _______ _______ _______ _____ _____    ______ ____
ROOT
ATOM      1  C   UNL     1       2.050   6.915  19.815  0.00  0.00    +0.000 A 
ATOM      2  C   UNL     1       1.564   5.971  20.712  0.00  0.00    +0.000 A 
ATOM      3  C   UNL     1       1.908   4.621  20.570  0.00  0.00    +0.000 A 
ATOM      4  C   UNL     1       2.759   4.181  19.568  0.00  0.00    +0.000 A 
ATOM      5  N   UNL     1       3.081   2.885  19.531  0.00  0.00    +0.000 NA
ATOM      6  C   UNL     1       3.924   2.505  18.567  0.00  0.00    +0.000 A 
ATOM      7  N   UNL     1       4.464   3.298  17.642  0.00  0.00    +0.000 NA
ATOM      8  C   UNL     1       4.136   4.603  17.685  0.00  0.00    +0.000 A 
ATOM      9  N   UNL     1       4.748   5.485  16.746  0.00  0.00    +0.000 N 
ATOM     10  C   UNL     1       3.252   5.119  18.650  0.00  0.00    +0.000 A 
ATOM     11  C   UNL     1       2.854   6.478  18.758  0.00  0.00    +0.000 A 
ATOM     12  H   UNL     1       5.247   6.204  17.261  0.00  0.00    +0.000 HD
ENDROOT
BRANCH   9  13
ATOM     13  C   UNL     1       5.485   5.041  15.621  0.00  0.00    +0.000 A 
ATOM     14  C   UNL     1       6.875   5.221  15.561  0.00  0.00    +0.000 A 
ATOM     15  C   UNL     1       7.605   4.843  14.433  0.00  0.00    +0.000 A 
ATOM     16  C   UNL     1       6.949   4.264  13.350  0.00  0.00    +0.000 A 
ATOM     17  C   UNL     1       5.574   4.049  13.413  0.00  0.00    +0.000 A 
ATOM     18 BR   UNL     1       4.685   3.270  11.935  0.00  0.00    +0.000 Br
ATOM     19  C   UNL     1       4.842   4.418  14.544  0.00  0.00    +0.000 A 
ENDBRANCH   9  13
BRANCH   1  22
ATOM     20  O   UNL     1       0.058   8.333  21.474  0.00  0.00    +0.000 OA
ATOM     21  C   UNL     1       0.826   8.895  20.702  0.00  0.00    +0.000 C 
ATOM     22  N   UNL     1       1.791   8.298  19.913  0.00  0.00    +0.000 N 
ATOM     23  H   UNL     1       2.444   8.908  19.442  0.00  0.00    +0.000 HD
BRANCH  21  24
ATOM     24  C   UNL     1       0.817  10.377  20.547  0.00  0.00    +0.000 C 
ATOM     25  C   UNL     1       0.843  10.924  19.322  0.00  0.00    +0.000 C 
BRANCH  25  26
ATOM     26  C   UNL     1       0.908  12.377  19.126  0.00  0.00    +0.000 A 
ATOM     27  C   UNL     1       2.174  12.967  19.001  0.00  0.00    +0.000 A 
ATOM     28  C   UNL     1       2.304  14.344  18.804  0.00  0.00    +0.000 A 
ATOM     29  C   UNL     1       1.166  15.146  18.728  0.00  0.00    +0.000 A 
ATOM     30  C   UNL     1      -0.099  14.570  18.853  0.00  0.00    +0.000 A 
ATOM     31  C   UNL     1      -0.231  13.194  19.057  0.00  0.00    +0.000 A 
ATOM     32 CL   UNL     1      -1.827  12.548  19.215  0.00  0.00    +0.000 Cl
ENDBRANCH  25  26
ENDBRANCH  21  24
ENDBRANCH   1  22
TORSDOF 4
ENDMDL
MODEL 6
REMARK VINA RESULT:      -8.6      4.395     10.144
REMARK  Name = 
REMARK  4 active torsions:
REMARK  status: ('A' for Active; 'I' for Inactive)
REMARK    1  A    between atoms: C_2  and  C_3
REMARK    2  A    between atoms: C_4  and  C_5
REMARK    3  A    between atoms: N_12  and  C_13
REMARK    4  A    between atoms: N_21  and  C_22
REMARK                            x       y       z     vdW  Elec       q    Type
REMARK                         _______ _______ _______ _____ _____    ______ ____
ROOT
ATOM      1  C   UNL     1       1.221   8.706  20.767  0.00  0.00    +0.000 A 
ATOM      2  C   UNL     1       0.565   8.235  21.899  0.00  0.00    +0.000 A 
ATOM      3  C   UNL     1      -0.165   9.114  22.708  0.00  0.00    +0.000 A 
ATOM      4  C   UNL     1      -0.290  10.460  22.404  0.00  0.00    +0.000 A 
ATOM      5  N   UNL     1      -1.047  11.224  23.197  0.00  0.00    +0.000 NA
ATOM      6  C   UNL     1      -1.165  12.509  22.855  0.00  0.00    +0.000 A 
ATOM      7  N   UNL     1      -0.593  13.095  21.804  0.00  0.00    +0.000 NA
ATOM      8  C   UNL     1       0.168  12.320  21.008  0.00  0.00    +0.000 A 
ATOM      9  N   UNL     1       0.741  12.907  19.841  0.00  0.00    +0.000 N 
ATOM     10  C   UNL     1       0.371  10.954  21.270  0.00  0.00    +0.000 A 
ATOM     11  C   UNL     1       1.162  10.074  20.484  0.00  0.00    +0.000 A 
ATOM     12  H   UNL     1       0.414  12.390  19.030  0.00  0.00    +0.000 HD
ENDROOT
BRANCH   9  13
ATOM     13  C   UNL     1       0.764  14.303  19.597  0.00  0.00    +0.000 A 
ATOM     14  C   UNL     1      -0.214  14.903  18.790  0.00  0.00    +0.000 A 
ATOM     15  C   UNL     1      -0.168  16.266  18.493  0.00  0.00    +0.000 A 
ATOM     16  C   UNL     1       0.855  17.052  19.016  0.00  0.00    +0.000 A 
ATOM     17  C   UNL     1       1.813  16.472  19.847  0.00  0.00    +0.000 A 
ATOM     18 BR   UNL     1       3.208  17.541  20.547  0.00  0.00    +0.000 Br
ATOM     19  C   UNL     1       1.764  15.110  20.153  0.00  0.00    +0.000 A 
ENDBRANCH   9  13
BRANCH   1  22
ATOM     20  O   UNL     1       1.525   5.767  20.767  0.00  0.00    +0.000 OA
ATOM     21  C   UNL     1       2.052   6.506  19.945  0.00  0.00    +0.000 C 
ATOM     22  N   UNL     1       1.938   7.882  19.875  0.00  0.00    +0.000 N 
ATOM     23  H   UNL     1       2.311   8.335  19.052  0.00  0.00    +0.000 HD
BRANCH  21  24
ATOM     24  C   UNL     1       2.900   5.961  18.847  0.00  0.00    +0.000 C 
ATOM     25  C   UNL     1       4.201   5.716  19.064  0.00  0.00    +0.000 C 
BRANCH  25  26
ATOM     26  C   UNL     1       5.087   5.247  17.992  0.00  0.00    +0.000 A 
ATOM     27  C   UNL     1       4.501   4.854  16.779  0.00  0.00    +0.000 A 
ATOM     28  C   UNL     1       5.289   4.406  15.716  0.00  0.00    +0.000 A 
ATOM     29  C   UNL     1       6.675   4.348  15.854  0.00  0.00    +0.000 A 
ATOM     30  C   UNL     1       7.270   4.734  17.056  0.00  0.00    +0.000 A 
ATOM     31  C   UNL     1       6.483   5.177  18.123  0.00  0.00    +0.000 A 
ATOM     32 CL   UNL     1       7.284   5.628  19.587  0.00  0.00    +0.000 Cl
ENDBRANCH  25  26
ENDBRANCH  21  24
ENDBRANCH   1  22
TORSDOF 4
ENDMDL
MODEL 7
REMARK VINA RESULT:      -8.6      5.111     11.298
REMARK  Name = 
REMARK  4 active torsions:
REMARK  status: ('A' for Active; 'I' for Inactive)
REMARK    1  A    between atoms: C_2  and  C_3
REMARK    2  A    between atoms: C_4  and  C_5
REMARK    3  A    between atoms: N_12  and  C_13
REMARK    4  A    between atoms: N_21  and  C_22
REMARK                            x       y       z     vdW  Elec       q    Type
REMARK                         _______ _______ _______ _____ _____    ______ ____
ROOT
ATOM      1  C   UNL     1       1.634  11.988  18.284  0.00  0.00    +0.000 A 
ATOM      2  C   UNL     1       2.461  13.105  18.281  0.00  0.00    +0.000 A 
ATOM      3  C   UNL     1       1.999  14.325  18.792  0.00  0.00    +0.000 A 
ATOM      4  C   UNL     1       0.734  14.459  19.342  0.00  0.00    +0.000 A 
ATOM      5  N   UNL     1       0.388  15.642  19.857  0.00  0.00    +0.000 NA
ATOM      6  C   UNL     1      -0.829  15.725  20.401  0.00  0.00    +0.000 A 
ATOM      7  N   UNL     1      -1.724  14.740  20.472  0.00  0.00    +0.000 NA
ATOM      8  C   UNL     1      -1.367  13.549  19.952  0.00  0.00    +0.000 A 
ATOM      9  N   UNL     1      -2.281  12.460  20.070  0.00  0.00    +0.000 N 
ATOM     10  C   UNL     1      -0.115  13.344  19.346  0.00  0.00    +0.000 A 
ATOM     11  C   UNL     1       0.331  12.124  18.772  0.00  0.00    +0.000 A 
ATOM     12  H   UNL     1      -1.820  11.709  20.573  0.00  0.00    +0.000 HD
ENDROOT
BRANCH   9  13
ATOM     13  C   UNL     1      -3.630  12.610  20.476  0.00  0.00    +0.000 A 
ATOM     14  C   UNL     1      -3.954  12.780  21.830  0.00  0.00    +0.000 A 
ATOM     15  C   UNL     1      -5.282  12.869  22.250  0.00  0.00    +0.000 A 
ATOM     16  C   UNL     1      -6.308  12.803  21.311  0.00  0.00    +0.000 A 
ATOM     17  C   UNL     1      -5.996  12.670  19.959  0.00  0.00    +0.000 A 
ATOM     18 BR   UNL     1      -7.394  12.571  18.687  0.00  0.00    +0.000 Br
ATOM     19  C   UNL     1      -4.668  12.590  19.535  0.00  0.00    +0.000 A 
ENDBRANCH   9  13
BRANCH   1  22
ATOM     20  O   UNL     1       1.147   9.336  19.493  0.00  0.00    +0.000 OA
ATOM     21  C   UNL     1       1.784   9.508  18.461  0.00  0.00    +0.000 C 
ATOM     22  N   UNL     1       2.034  10.713  17.832  0.00  0.00    +0.000 N 
ATOM     23  H   UNL     1       2.448  10.676  16.911  0.00  0.00    +0.000 HD
BRANCH  21  24
ATOM     24  C   UNL     1       2.369   8.357  17.714  0.00  0.00    +0.000 C 
ATOM     25  C   UNL     1       2.815   7.282  18.380  0.00  0.00    +0.000 C 
BRANCH  25  26
ATOM     26  C   UNL     1       3.461   6.160  17.690  0.00  0.00    +0.000 A 
ATOM     27  C   UNL     1       4.574   6.439  16.882  0.00  0.00    +0.000 A 
ATOM     28  C   UNL     1       5.240   5.414  16.205  0.00  0.00    +0.000 A 
ATOM     29  C   UNL     1       4.801   4.097  16.331  0.00  0.00    +0.000 A 
ATOM     30  C   UNL     1       3.693   3.808  17.130  0.00  0.00    +0.000 A 
ATOM     31  C   UNL     1       3.022   4.832  17.803  0.00  0.00    +0.000 A 
ATOM     32 CL   UNL     1       1.651   4.405  18.766  0.00  0.00    +0.000 Cl
ENDBRANCH  25  26
ENDBRANCH  21  24
ENDBRANCH   1  22
TORSDOF 4
ENDMDL
MODEL 8
REMARK VINA RESULT:      -8.6      4.740     10.635
REMARK  Name = 
REMARK  4 active torsions:
REMARK  status: ('A' for Active; 'I' for Inactive)
REMARK    1  A    between atoms: C_2  and  C_3
REMARK    2  A    between atoms: C_4  and  C_5
REMARK    3  A    between atoms: N_12  and  C_13
REMARK    4  A    between atoms: N_21  and  C_22
REMARK                            x       y       z     vdW  Elec       q    Type
REMARK                         _______ _______ _______ _____ _____    ______ ____
ROOT
ATOM      1  C   UNL     1       0.751   9.749  20.863  0.00  0.00    +0.000 A 
ATOM      2  C   UNL     1       0.040   9.190  21.919  0.00  0.00    +0.000 A 
ATOM      3  C   UNL     1      -0.692  10.009  22.788  0.00  0.00    +0.000 A 
ATOM      4  C   UNL     1      -0.762  11.383  22.618  0.00  0.00    +0.000 A 
ATOM      5  N   UNL     1      -1.523  12.089  23.459  0.00  0.00    +0.000 NA
ATOM      6  C   UNL     1      -1.587  13.406  23.246  0.00  0.00    +0.000 A 
ATOM      7  N   UNL     1      -0.959  14.074  22.279  0.00  0.00    +0.000 NA
ATOM      8  C   UNL     1      -0.194  13.356  21.434  0.00  0.00    +0.000 A 
ATOM      9  N   UNL     1       0.439  14.037  20.352  0.00  0.00    +0.000 N 
ATOM     10  C   UNL     1      -0.045  11.964  21.563  0.00  0.00    +0.000 A 
ATOM     11  C   UNL     1       0.746  11.140  20.718  0.00  0.00    +0.000 A 
ATOM     12  H   UNL     1       0.126  13.616  19.483  0.00  0.00    +0.000 HD
ENDROOT
BRANCH   9  13
ATOM     13  C   UNL     1       0.516  15.448  20.252  0.00  0.00    +0.000 A 
ATOM     14  C   UNL     1       1.398  16.175  21.065  0.00  0.00    +0.000 A 
ATOM     15  C   UNL     1       1.441  17.568  21.019  0.00  0.00    +0.000 A 
ATOM     16  C   UNL     1       0.606  18.255  20.143  0.00  0.00    +0.000 A 
ATOM     17  C   UNL     1      -0.251  17.542  19.306  0.00  0.00    +0.000 A 
ATOM     18 BR   UNL     1      -1.392  18.480  18.124  0.00  0.00    +0.000 Br
ATOM     19  C   UNL     1      -0.289  16.147  19.344  0.00  0.00    +0.000 A 
ENDBRANCH   9  13
BRANCH   1  22
ATOM     20  O   UNL     1       0.577   9.789  17.914  0.00  0.00    +0.000 OA
ATOM     21  C   UNL     1       1.327   9.053  18.542  0.00  0.00    +0.000 C 
ATOM     22  N   UNL     1       1.473   8.994  19.915  0.00  0.00    +0.000 N 
ATOM     23  H   UNL     1       2.238   8.442  20.276  0.00  0.00    +0.000 HD
BRANCH  21  24
ATOM     24  C   UNL     1       2.240   8.103  17.844  0.00  0.00    +0.000 C 
ATOM     25  C   UNL     1       2.387   6.852  18.305  0.00  0.00    +0.000 C 
BRANCH  25  26
ATOM     26  C   UNL     1       3.328   5.909  17.690  0.00  0.00    +0.000 A 
ATOM     27  C   UNL     1       4.518   6.423  17.153  0.00  0.00    +0.000 A 
ATOM     28  C   UNL     1       5.460   5.577  16.563  0.00  0.00    +0.000 A 
ATOM     29  C   UNL     1       5.222   4.205  16.504  0.00  0.00    +0.000 A 
ATOM     30  C   UNL     1       4.041   3.681  17.033  0.00  0.00    +0.000 A 
ATOM     31  C   UNL     1       3.095   4.526  17.619  0.00  0.00    +0.000 A 
ATOM     32 CL   UNL     1       1.649   3.813  18.243  0.00  0.00    +0.000 Cl
ENDBRANCH  25  26
ENDBRANCH  21  24
ENDBRANCH   1  22
TORSDOF 4
ENDMDL
MODEL 9
REMARK VINA RESULT:      -8.6      4.320     10.042
REMARK  Name = 
REMARK  4 active torsions:
REMARK  status: ('A' for Active; 'I' for Inactive)
REMARK    1  A    between atoms: C_2  and  C_3
REMARK    2  A    between atoms: C_4  and  C_5
REMARK    3  A    between atoms: N_12  and  C_13
REMARK    4  A    between atoms: N_21  and  C_22
REMARK                            x       y       z     vdW  Elec       q    Type
REMARK                         _______ _______ _______ _____ _____    ______ ____
ROOT
ATOM      1  C   UNL     1       1.250   8.563  20.647  0.00  0.00    +0.000 A 
ATOM      2  C   UNL     1       0.505   8.070  21.713  0.00  0.00    +0.000 A 
ATOM      3  C   UNL     1      -0.293   8.934  22.474  0.00  0.00    +0.000 A 
ATOM      4  C   UNL     1      -0.397  10.284  22.184  0.00  0.00    +0.000 A 
ATOM      5  N   UNL     1      -1.220  11.032  22.925  0.00  0.00    +0.000 NA
ATOM      6  C   UNL     1      -1.314  12.323  22.597  0.00  0.00    +0.000 A 
ATOM      7  N   UNL     1      -0.661  12.929  21.606  0.00  0.00    +0.000 NA
ATOM      8  C   UNL     1       0.166  12.170  20.862  0.00  0.00    +0.000 A 
ATOM      9  N   UNL     1       0.830  12.779  19.756  0.00  0.00    +0.000 N 
ATOM     10  C   UNL     1       0.352  10.800  21.117  0.00  0.00    +0.000 A 
ATOM     11  C   UNL     1       1.209   9.935  20.384  0.00  0.00    +0.000 A 
ATOM     12  H   UNL     1       0.573  12.275  18.913  0.00  0.00    +0.000 HD
ENDROOT
BRANCH   9  13
ATOM     13  C   UNL     1       0.868  14.178  19.539  0.00  0.00    +0.000 A 
ATOM     14  C   UNL     1      -0.162  14.819  18.835  0.00  0.00    +0.000 A 
ATOM     15  C   UNL     1      -0.108  16.187  18.562  0.00  0.00    +0.000 A 
ATOM     16  C   UNL     1       0.978  16.936  19.007  0.00  0.00    +0.000 A 
ATOM     17  C   UNL     1       1.989  16.316  19.738  0.00  0.00    +0.000 A 
ATOM     18 BR   UNL     1       3.468  17.336  20.332  0.00  0.00    +0.000 Br
ATOM     19  C   UNL     1       1.934  14.949  20.020  0.00  0.00    +0.000 A 
ENDBRANCH   9  13
BRANCH   1  22
ATOM     20  O   UNL     1       1.561   8.673  17.711  0.00  0.00    +0.000 OA
ATOM     21  C   UNL     1       2.126   7.854  18.426  0.00  0.00    +0.000 C 
ATOM     22  N   UNL     1       2.041   7.757  19.802  0.00  0.00    +0.000 N 
ATOM     23  H   UNL     1       2.681   7.124  20.261  0.00  0.00    +0.000 HD
BRANCH  21  24
ATOM     24  C   UNL     1       3.046   6.831  17.851  0.00  0.00    +0.000 C 
ATOM     25  C   UNL     1       4.314   7.157  17.560  0.00  0.00    +0.000 C 
BRANCH  25  26
ATOM     26  C   UNL     1       5.231   6.201  16.928  0.00  0.00    +0.000 A 
ATOM     27  C   UNL     1       5.195   6.083  15.530  0.00  0.00    +0.000 A 
ATOM     28  C   UNL     1       6.048   5.198  14.866  0.00  0.00    +0.000 A 
ATOM     29  C   UNL     1       6.949   4.422  15.594  0.00  0.00    +0.000 A 
ATOM     30  C   UNL     1       6.992   4.530  16.985  0.00  0.00    +0.000 A 
ATOM     31  C   UNL     1       6.136   5.410  17.652  0.00  0.00    +0.000 A 
ATOM     32 CL   UNL     1       6.234   5.484  19.376  0.00  0.00    +0.000 Cl
ENDBRANCH  25  26
ENDBRANCH  21  24
ENDBRANCH   1  22
TORSDOF 4
ENDMDL
