MODEL 1
REMARK VINA RESULT:      -8.8      0.000      0.000
REMARK  Name = 
REMARK  9 active torsions:
REMARK  status: ('A' for Active; 'I' for Inactive)
REMARK    1  A    between atoms: C_1  and  C_2
REMARK    2  A    between atoms: C_6  and  C_7
REMARK    3  A    between atoms: C_9  and  C_10
REMARK    4  A    between atoms: C_10  and  N_11
REMARK    5  A    between atoms: N_11  and  C_12
REMARK    6  A    between atoms: C_15  and  N_16
REMARK    7  A    between atoms: N_16  and  S_17
REMARK    8  A    between atoms: S_17  and  C_18
REMARK    9  A    between atoms: C_24  and  C_25
REMARK                            x       y       z     vdW  Elec       q    Type
REMARK                         _______ _______ _______ _____ _____    ______ ____
ROOT
ATOM      1  C   UNL     1       2.411   6.614  18.875  0.00  0.00    +0.000 A 
ATOM      2  N   UNL     1       1.580   7.701  19.038  0.00  0.00    +0.000 N 
ATOM      3  C   UNL     1       2.102   8.764  18.340  0.00  0.00    +0.000 A 
ATOM      4  N   UNL     1       3.206   8.415  17.720  0.00  0.00    +0.000 NA
ATOM      5  C   UNL     1       3.414   7.102  18.059  0.00  0.00    +0.000 A 
ATOM      6  H   UNL     1       0.742   7.730  19.602  0.00  0.00    +0.000 HD
ENDROOT
BRANCH   5   7
ATOM      7  C   UNL     1       4.533   6.394  17.533  0.00  0.00    +0.000 A 
ATOM      8  C   UNL     1       5.490   5.755  18.443  0.00  0.00    +0.000 A 
ATOM      9  C   UNL     1       6.580   5.106  17.995  0.00  0.00    +0.000 A 
ATOM     10  C   UNL     1       6.819   5.025  16.598  0.00  0.00    +0.000 A 
ATOM     11  N   UNL     1       7.789   4.477  15.899  0.00  0.00    +0.000 NA
ATOM     12  C   UNL     1       7.420   4.753  14.617  0.00  0.00    +0.000 A 
ATOM     13  N   UNL     1       6.286   5.433  14.459  0.00  0.00    +0.000 NA
ATOM     14  N   UNL     1       5.886   5.622  15.743  0.00  0.00    +0.000 N 
ATOM     15  C   UNL     1       4.760   6.289  16.209  0.00  0.00    +0.000 A 
ENDBRANCH   5   7
BRANCH   1  21
ATOM     16  C   UNL     1       2.068   1.887  18.217  0.00  0.00    +0.000 C 
ATOM     17  C   UNL     1       2.048   3.031  19.184  0.00  0.00    +0.000 A 
ATOM     18  C   UNL     1       1.904   2.809  20.550  0.00  0.00    +0.000 A 
ATOM     19  C   UNL     1       1.898   3.904  21.408  0.00  0.00    +0.000 A 
ATOM     20  C   UNL     1       2.044   5.185  20.885  0.00  0.00    +0.000 A 
ATOM     21  C   UNL     1       2.193   5.324  19.511  0.00  0.00    +0.000 A 
ATOM     22  N   UNL     1       2.190   4.273  18.663  0.00  0.00    +0.000 NA
ENDBRANCH   1  21
BRANCH   3  23
ATOM     23  C   UNL     1       1.428  10.100  18.314  0.00  0.00    +0.000 C 
BRANCH  23  24
ATOM     24  N   UNL     1       0.480  10.326  19.392  0.00  0.00    +0.000 N 
ATOM     25  H   UNL     1       0.841  10.309  20.339  0.00  0.00    +0.000 HD
BRANCH  24  26
ATOM     26  C   UNL     1      -0.816  10.758  19.177  0.00  0.00    +0.000 A 
ATOM     27  C   UNL     1      -1.424  11.747  19.961  0.00  0.00    +0.000 A 
ATOM     28  C   UNL     1      -2.692  12.244  19.655  0.00  0.00    +0.000 A 
ATOM     29  C   UNL     1      -3.387  11.744  18.564  0.00  0.00    +0.000 A 
ATOM     30  C   UNL     1      -2.827  10.734  17.785  0.00  0.00    +0.000 A 
ATOM     31  C   UNL     1      -1.548  10.250  18.095  0.00  0.00    +0.000 A 
BRANCH  29  32
ATOM     32  N   UNL     1      -4.647  12.323  18.239  0.00  0.00    +0.000 N 
ATOM     33  H   UNL     1      -4.688  13.344  18.266  0.00  0.00    +0.000 HD
BRANCH  32  34
ATOM     34  S   UNL     1      -6.016  11.673  18.982  0.00  0.00    +0.000 S 
ATOM     35  C   UNL     1      -7.327  12.500  18.104  0.00  0.00    +0.000 C 
ATOM     36  O   UNL     1      -6.102  10.249  18.722  0.00  0.00    +0.000 OA
ATOM     37  O   UNL     1      -6.006  12.178  20.338  0.00  0.00    +0.000 OA
ENDBRANCH  32  34
ENDBRANCH  29  32
ENDBRANCH  24  26
ENDBRANCH  23  24
ENDBRANCH   3  23
TORSDOF 7
ENDMDL
MODEL 2
REMARK VINA RESULT:      -8.8      0.856      1.284
REMARK  Name = 
REMARK  9 active torsions:
REMARK  status: ('A' for Active; 'I' for Inactive)
REMARK    1  A    between atoms: C_1  and  C_2
REMARK    2  A    between atoms: C_6  and  C_7
REMARK    3  A    between atoms: C_9  and  C_10
REMARK    4  A    between atoms: C_10  and  N_11
REMARK    5  A    between atoms: N_11  and  C_12
REMARK    6  A    between atoms: C_15  and  N_16
REMARK    7  A    between atoms: N_16  and  S_17
REMARK    8  A    between atoms: S_17  and  C_18
REMARK    9  A    between atoms: C_24  and  C_25
REMARK                            x       y       z     vdW  Elec       q    Type
REMARK                         _______ _______ _______ _____ _____    ______ ____
ROOT
ATOM      1  C   UNL     1       2.256   6.495  19.190  0.00  0.00    +0.000 A 
ATOM      2  N   UNL     1       1.425   7.580  19.362  0.00  0.00    +0.000 N 
ATOM      3  C   UNL     1       1.936   8.644  18.658  0.00  0.00    +0.000 A 
ATOM      4  N   UNL     1       3.035   8.297  18.025  0.00  0.00    +0.000 NA
ATOM      5  C   UNL     1       3.248   6.984  18.363  0.00  0.00    +0.000 A 
ATOM      6  H   UNL     1       0.593   7.607  19.936  0.00  0.00    +0.000 HD
ENDROOT
BRANCH   5   7
ATOM      7  C   UNL     1       4.363   6.279  17.824  0.00  0.00    +0.000 A 
ATOM      8  C   UNL     1       5.245   5.513  18.713  0.00  0.00    +0.000 A 
ATOM      9  C   UNL     1       6.330   4.861  18.256  0.00  0.00    +0.000 A 
ATOM     10  C   UNL     1       6.637   4.901  16.871  0.00  0.00    +0.000 A 
ATOM     11  N   UNL     1       7.618   4.377  16.170  0.00  0.00    +0.000 NA
ATOM     12  C   UNL     1       7.328   4.790  14.904  0.00  0.00    +0.000 A 
ATOM     13  N   UNL     1       6.232   5.532  14.759  0.00  0.00    +0.000 NA
ATOM     14  N   UNL     1       5.774   5.617  16.035  0.00  0.00    +0.000 N 
ATOM     15  C   UNL     1       4.654   6.289  16.509  0.00  0.00    +0.000 A 
ENDBRANCH   5   7
BRANCH   1  21
ATOM     16  C   UNL     1       0.727   1.997  18.615  0.00  0.00    +0.000 C 
ATOM     17  C   UNL     1       1.323   3.019  19.535  0.00  0.00    +0.000 A 
ATOM     18  C   UNL     1       1.686   2.686  20.836  0.00  0.00    +0.000 A 
ATOM     19  C   UNL     1       2.241   3.669  21.648  0.00  0.00    +0.000 A 
ATOM     20  C   UNL     1       2.426   4.951  21.141  0.00  0.00    +0.000 A 
ATOM     21  C   UNL     1       2.048   5.204  19.829  0.00  0.00    +0.000 A 
ATOM     22  N   UNL     1       1.498   4.264  19.030  0.00  0.00    +0.000 NA
ENDBRANCH   1  21
BRANCH   3  23
ATOM     23  C   UNL     1       1.259   9.978  18.639  0.00  0.00    +0.000 C 
BRANCH  23  24
ATOM     24  N   UNL     1      -0.018  10.024  19.332  0.00  0.00    +0.000 N 
ATOM     25  H   UNL     1      -0.023   9.770  20.313  0.00  0.00    +0.000 HD
BRANCH  24  26
ATOM     26  C   UNL     1      -1.154  10.586  18.780  0.00  0.00    +0.000 A 
ATOM     27  C   UNL     1      -1.748  10.097  17.608  0.00  0.00    +0.000 A 
ATOM     28  C   UNL     1      -2.955  10.612  17.132  0.00  0.00    +0.000 A 
ATOM     29  C   UNL     1      -3.584  11.643  17.813  0.00  0.00    +0.000 A 
ATOM     30  C   UNL     1      -3.003  12.176  18.961  0.00  0.00    +0.000 A 
ATOM     31  C   UNL     1      -1.795  11.645  19.436  0.00  0.00    +0.000 A 
BRANCH  29  32
ATOM     32  N   UNL     1      -4.849  12.095  17.340  0.00  0.00    +0.000 N 
ATOM     33  H   UNL     1      -4.846  12.985  16.839  0.00  0.00    +0.000 HD
BRANCH  32  34
ATOM     34  S   UNL     1      -6.145  12.050  18.422  0.00  0.00    +0.000 S 
ATOM     35  C   UNL     1      -6.252  10.308  18.780  0.00  0.00    +0.000 C 
ATOM     36  O   UNL     1      -5.808  12.761  19.640  0.00  0.00    +0.000 OA
ATOM     37  O   UNL     1      -7.314  12.415  17.652  0.00  0.00    +0.000 OA
ENDBRANCH  32  34
ENDBRANCH  29  32
ENDBRANCH  24  26
ENDBRANCH  23  24
ENDBRANCH   3  23
TORSDOF 7
ENDMDL
MODEL 3
REMARK VINA RESULT:      -8.6      0.825      1.233
REMARK  Name = 
REMARK  9 active torsions:
REMARK  status: ('A' for Active; 'I' for Inactive)
REMARK    1  A    between atoms: C_1  and  C_2
REMARK    2  A    between atoms: C_6  and  C_7
REMARK    3  A    between atoms: C_9  and  C_10
REMARK    4  A    between atoms: C_10  and  N_11
REMARK    5  A    between atoms: N_11  and  C_12
REMARK    6  A    between atoms: C_15  and  N_16
REMARK    7  A    between atoms: N_16  and  S_17
REMARK    8  A    between atoms: S_17  and  C_18
REMARK    9  A    between atoms: C_24  and  C_25
REMARK                            x       y       z     vdW  Elec       q    Type
REMARK                         _______ _______ _______ _____ _____    ______ ____
ROOT
ATOM      1  C   UNL     1       2.361   6.374  19.003  0.00  0.00    +0.000 A 
ATOM      2  N   UNL     1       1.488   7.419  19.214  0.00  0.00    +0.000 N 
ATOM      3  C   UNL     1       1.955   8.526  18.548  0.00  0.00    +0.000 A 
ATOM      4  N   UNL     1       3.065   8.246  17.902  0.00  0.00    +0.000 NA
ATOM      5  C   UNL     1       3.331   6.931  18.192  0.00  0.00    +0.000 A 
ATOM      6  H   UNL     1       0.657   7.392  19.789  0.00  0.00    +0.000 HD
ENDROOT
BRANCH   5   7
ATOM      7  C   UNL     1       4.471   6.290  17.628  0.00  0.00    +0.000 A 
ATOM      8  C   UNL     1       5.502   5.722  18.505  0.00  0.00    +0.000 A 
ATOM      9  C   UNL     1       6.613   5.139  18.019  0.00  0.00    +0.000 A 
ATOM     10  C   UNL     1       6.803   5.059  16.615  0.00  0.00    +0.000 A 
ATOM     11  N   UNL     1       7.777   4.565  15.883  0.00  0.00    +0.000 NA
ATOM     12  C   UNL     1       7.342   4.804  14.614  0.00  0.00    +0.000 A 
ATOM     13  N   UNL     1       6.162   5.409  14.496  0.00  0.00    +0.000 NA
ATOM     14  N   UNL     1       5.801   5.586  15.793  0.00  0.00    +0.000 N 
ATOM     15  C   UNL     1       4.653   6.186  16.297  0.00  0.00    +0.000 A 
ENDBRANCH   5   7
BRANCH   1  21
ATOM     16  C   UNL     1       2.938   1.665  18.380  0.00  0.00    +0.000 C 
ATOM     17  C   UNL     1       2.508   2.773  19.291  0.00  0.00    +0.000 A 
ATOM     18  C   UNL     1       2.080   2.508  20.588  0.00  0.00    +0.000 A 
ATOM     19  C   UNL     1       1.697   3.572  21.398  0.00  0.00    +0.000 A 
ATOM     20  C   UNL     1       1.758   4.869  20.897  0.00  0.00    +0.000 A 
ATOM     21  C   UNL     1       2.206   5.054  19.595  0.00  0.00    +0.000 A 
ATOM     22  N   UNL     1       2.571   4.031  18.793  0.00  0.00    +0.000 NA
ENDBRANCH   1  21
BRANCH   3  23
ATOM     23  C   UNL     1       1.226   9.833  18.577  0.00  0.00    +0.000 C 
BRANCH  23  24
ATOM     24  N   UNL     1       0.145   9.948  17.611  0.00  0.00    +0.000 N 
ATOM     25  H   UNL     1       0.261   9.470  16.725  0.00  0.00    +0.000 HD
BRANCH  24  26
ATOM     26  C   UNL     1      -1.088  10.491  17.923  0.00  0.00    +0.000 A 
ATOM     27  C   UNL     1      -2.294   9.936  17.475  0.00  0.00    +0.000 A 
ATOM     28  C   UNL     1      -3.528  10.437  17.894  0.00  0.00    +0.000 A 
ATOM     29  C   UNL     1      -3.578  11.521  18.758  0.00  0.00    +0.000 A 
ATOM     30  C   UNL     1      -2.398  12.118  19.194  0.00  0.00    +0.000 A 
ATOM     31  C   UNL     1      -1.164  11.600  18.776  0.00  0.00    +0.000 A 
BRANCH  29  32
ATOM     32  N   UNL     1      -4.851  11.960  19.221  0.00  0.00    +0.000 N 
ATOM     33  H   UNL     1      -5.196  11.510  20.071  0.00  0.00    +0.000 HD
BRANCH  32  34
ATOM     34  S   UNL     1      -6.095  12.072  18.085  0.00  0.00    +0.000 S 
ATOM     35  C   UNL     1      -7.148  13.302  18.828  0.00  0.00    +0.000 C 
ATOM     36  O   UNL     1      -5.585  12.587  16.829  0.00  0.00    +0.000 OA
ATOM     37  O   UNL     1      -6.791  10.805  18.138  0.00  0.00    +0.000 OA
ENDBRANCH  32  34
ENDBRANCH  29  32
ENDBRANCH  24  26
ENDBRANCH  23  24
ENDBRANCH   3  23
TORSDOF 7
ENDMDL
MODEL 4
REMARK VINA RESULT:      -8.5      2.431      2.846
REMARK  Name = 
REMARK  9 active torsions:
REMARK  status: ('A' for Active; 'I' for Inactive)
REMARK    1  A    between atoms: C_1  and  C_2
REMARK    2  A    between atoms: C_6  and  C_7
REMARK    3  A    between atoms: C_9  and  C_10
REMARK    4  A    between atoms: C_10  and  N_11
REMARK    5  A    between atoms: N_11  and  C_12
REMARK    6  A    between atoms: C_15  and  N_16
REMARK    7  A    between atoms: N_16  and  S_17
REMARK    8  A    between atoms: S_17  and  C_18
REMARK    9  A    between atoms: C_24  and  C_25
REMARK                            x       y       z     vdW  Elec       q    Type
REMARK                         _______ _______ _______ _____ _____    ______ ____
ROOT
ATOM      1  C   UNL     1       2.609   5.892  18.635  0.00  0.00    +0.000 A 
ATOM      2  N   UNL     1       1.750   6.810  19.198  0.00  0.00    +0.000 N 
ATOM      3  C   UNL     1       2.176   8.074  18.868  0.00  0.00    +0.000 A 
ATOM      4  N   UNL     1       3.246   8.020  18.106  0.00  0.00    +0.000 NA
ATOM      5  C   UNL     1       3.530   6.684  17.975  0.00  0.00    +0.000 A 
ATOM      6  H   UNL     1       0.954   6.599  19.784  0.00  0.00    +0.000 HD
ENDROOT
BRANCH   5   7
ATOM      7  C   UNL     1       4.635   6.261  17.183  0.00  0.00    +0.000 A 
ATOM      8  C   UNL     1       5.997   6.676  17.541  0.00  0.00    +0.000 A 
ATOM      9  C   UNL     1       7.068   6.331  16.803  0.00  0.00    +0.000 A 
ATOM     10  C   UNL     1       6.889   5.535  15.642  0.00  0.00    +0.000 A 
ATOM     11  N   UNL     1       7.737   5.071  14.750  0.00  0.00    +0.000 NA
ATOM     12  C   UNL     1       6.924   4.384  13.900  0.00  0.00    +0.000 A 
ATOM     13  N   UNL     1       5.626   4.379  14.195  0.00  0.00    +0.000 NA
ATOM     14  N   UNL     1       5.588   5.129  15.326  0.00  0.00    +0.000 N 
ATOM     15  C   UNL     1       4.483   5.485  16.091  0.00  0.00    +0.000 A 
ENDBRANCH   5   7
BRANCH   1  21
ATOM     16  C   UNL     1       4.627   1.951  20.450  0.00  0.00    +0.000 C 
ATOM     17  C   UNL     1       3.467   2.550  19.715  0.00  0.00    +0.000 A 
ATOM     18  C   UNL     1       2.381   1.769  19.333  0.00  0.00    +0.000 A 
ATOM     19  C   UNL     1       1.326   2.374  18.659  0.00  0.00    +0.000 A 
ATOM     20  C   UNL     1       1.377   3.738  18.392  0.00  0.00    +0.000 A 
ATOM     21  C   UNL     1       2.490   4.453  18.814  0.00  0.00    +0.000 A 
ATOM     22  N   UNL     1       3.528   3.879  19.461  0.00  0.00    +0.000 NA
ENDBRANCH   1  21
BRANCH   3  23
ATOM     23  C   UNL     1       1.449   9.299  19.326  0.00  0.00    +0.000 C 
BRANCH  23  24
ATOM     24  N   UNL     1       0.440   9.063  20.345  0.00  0.00    +0.000 N 
ATOM     25  H   UNL     1       0.288   8.104  20.635  0.00  0.00    +0.000 HD
BRANCH  24  26
ATOM     26  C   UNL     1      -0.155  10.082  21.066  0.00  0.00    +0.000 A 
ATOM     27  C   UNL     1      -0.508  11.310  20.490  0.00  0.00    +0.000 A 
ATOM     28  C   UNL     1      -1.207  12.280  21.212  0.00  0.00    +0.000 A 
ATOM     29  C   UNL     1      -1.548  12.046  22.536  0.00  0.00    +0.000 A 
ATOM     30  C   UNL     1      -1.180  10.851  23.149  0.00  0.00    +0.000 A 
ATOM     31  C   UNL     1      -0.489   9.879  22.412  0.00  0.00    +0.000 A 
BRANCH  29  32
ATOM     32  N   UNL     1      -2.322  13.027  23.220  0.00  0.00    +0.000 N 
ATOM     33  H   UNL     1      -1.963  13.323  24.129  0.00  0.00    +0.000 HD
BRANCH  32  34
ATOM     34  S   UNL     1      -3.989  12.775  23.314  0.00  0.00    +0.000 S 
ATOM     35  C   UNL     1      -4.576  14.409  23.712  0.00  0.00    +0.000 C 
ATOM     36  O   UNL     1      -4.514  12.390  22.018  0.00  0.00    +0.000 OA
ATOM     37  O   UNL     1      -4.195  11.936  24.474  0.00  0.00    +0.000 OA
ENDBRANCH  32  34
ENDBRANCH  29  32
ENDBRANCH  24  26
ENDBRANCH  23  24
ENDBRANCH   3  23
TORSDOF 7
ENDMDL
MODEL 5
REMARK VINA RESULT:      -8.5      2.354      4.922
REMARK  Name = 
REMARK  9 active torsions:
REMARK  status: ('A' for Active; 'I' for Inactive)
REMARK    1  A    between atoms: C_1  and  C_2
REMARK    2  A    between atoms: C_6  and  C_7
REMARK    3  A    between atoms: C_9  and  C_10
REMARK    4  A    between atoms: C_10  and  N_11
REMARK    5  A    between atoms: N_11  and  C_12
REMARK    6  A    between atoms: C_15  and  N_16
REMARK    7  A    between atoms: N_16  and  S_17
REMARK    8  A    between atoms: S_17  and  C_18
REMARK    9  A    between atoms: C_24  and  C_25
REMARK                            x       y       z     vdW  Elec       q    Type
REMARK                         _______ _______ _______ _____ _____    ______ ____
ROOT
ATOM      1  C   UNL     1       3.696   7.358  17.654  0.00  0.00    +0.000 A 
ATOM      2  N   UNL     1       3.470   8.701  17.440  0.00  0.00    +0.000 N 
ATOM      3  C   UNL     1       2.255   9.036  17.987  0.00  0.00    +0.000 A 
ATOM      4  N   UNL     1       1.700   7.992  18.560  0.00  0.00    +0.000 NA
ATOM      5  C   UNL     1       2.569   6.953  18.343  0.00  0.00    +0.000 A 
ATOM      6  H   UNL     1       4.077   9.333  16.937  0.00  0.00    +0.000 HD
ENDROOT
BRANCH   5   7
ATOM      7  C   UNL     1       2.280   5.657  18.858  0.00  0.00    +0.000 A 
ATOM      8  C   UNL     1       1.770   4.610  17.964  0.00  0.00    +0.000 A 
ATOM      9  C   UNL     1       1.449   3.382  18.411  0.00  0.00    +0.000 A 
ATOM     10  C   UNL     1       1.610   3.075  19.787  0.00  0.00    +0.000 A 
ATOM     11  N   UNL     1       1.370   1.985  20.482  0.00  0.00    +0.000 NA
ATOM     12  C   UNL     1       1.742   2.350  21.741  0.00  0.00    +0.000 A 
ATOM     13  N   UNL     1       2.202   3.591  21.886  0.00  0.00    +0.000 NA
ATOM     14  N   UNL     1       2.118   4.077  20.621  0.00  0.00    +0.000 N 
ATOM     15  C   UNL     1       2.450   5.344  20.157  0.00  0.00    +0.000 A 
ENDBRANCH   5   7
BRANCH   1  21
ATOM     16  C   UNL     1       7.950   5.495  18.809  0.00  0.00    +0.000 C 
ATOM     17  C   UNL     1       6.922   5.728  17.744  0.00  0.00    +0.000 A 
ATOM     18  C   UNL     1       7.097   5.225  16.459  0.00  0.00    +0.000 A 
ATOM     19  C   UNL     1       6.111   5.463  15.507  0.00  0.00    +0.000 A 
ATOM     20  C   UNL     1       4.976   6.186  15.864  0.00  0.00    +0.000 A 
ATOM     21  C   UNL     1       4.869   6.646  17.170  0.00  0.00    +0.000 A 
ATOM     22  N   UNL     1       5.822   6.433  18.103  0.00  0.00    +0.000 NA
ENDBRANCH   1  21
BRANCH   3  23
ATOM     23  C   UNL     1       1.718  10.431  17.925  0.00  0.00    +0.000 C 
BRANCH  23  24
ATOM     24  N   UNL     1       0.295  10.549  18.200  0.00  0.00    +0.000 N 
ATOM     25  H   UNL     1      -0.333   9.968  17.656  0.00  0.00    +0.000 HD
BRANCH  24  26
ATOM     26  C   UNL     1      -0.207  11.244  19.285  0.00  0.00    +0.000 A 
ATOM     27  C   UNL     1      -0.715  12.545  19.181  0.00  0.00    +0.000 A 
ATOM     28  C   UNL     1      -1.317  13.183  20.267  0.00  0.00    +0.000 A 
ATOM     29  C   UNL     1      -1.404  12.534  21.489  0.00  0.00    +0.000 A 
ATOM     30  C   UNL     1      -0.877  11.253  21.637  0.00  0.00    +0.000 A 
ATOM     31  C   UNL     1      -0.284  10.617  20.536  0.00  0.00    +0.000 A 
BRANCH  29  32
ATOM     32  N   UNL     1      -2.088  13.185  22.556  0.00  0.00    +0.000 N 
ATOM     33  H   UNL     1      -1.585  13.234  23.444  0.00  0.00    +0.000 HD
BRANCH  32  34
ATOM     34  S   UNL     1      -3.696  12.749  22.830  0.00  0.00    +0.000 S 
ATOM     35  C   UNL     1      -4.416  14.311  23.295  0.00  0.00    +0.000 C 
ATOM     36  O   UNL     1      -4.312  12.296  21.597  0.00  0.00    +0.000 OA
ATOM     37  O   UNL     1      -3.680  11.903  24.003  0.00  0.00    +0.000 OA
ENDBRANCH  32  34
ENDBRANCH  29  32
ENDBRANCH  24  26
ENDBRANCH  23  24
ENDBRANCH   3  23
TORSDOF 7
ENDMDL
MODEL 6
REMARK VINA RESULT:      -8.4      0.895      1.288
REMARK  Name = 
REMARK  9 active torsions:
REMARK  status: ('A' for Active; 'I' for Inactive)
REMARK    1  A    between atoms: C_1  and  C_2
REMARK    2  A    between atoms: C_6  and  C_7
REMARK    3  A    between atoms: C_9  and  C_10
REMARK    4  A    between atoms: C_10  and  N_11
REMARK    5  A    between atoms: N_11  and  C_12
REMARK    6  A    between atoms: C_15  and  N_16
REMARK    7  A    between atoms: N_16  and  S_17
REMARK    8  A    between atoms: S_17  and  C_18
REMARK    9  A    between atoms: C_24  and  C_25
REMARK                            x       y       z     vdW  Elec       q    Type
REMARK                         _______ _______ _______ _____ _____    ______ ____
ROOT
ATOM      1  C   UNL     1       2.166   6.461  19.275  0.00  0.00    +0.000 A 
ATOM      2  N   UNL     1       1.492   7.612  19.620  0.00  0.00    +0.000 N 
ATOM      3  C   UNL     1       1.945   8.643  18.832  0.00  0.00    +0.000 A 
ATOM      4  N   UNL     1       2.855   8.214  17.985  0.00  0.00    +0.000 NA
ATOM      5  C   UNL     1       3.011   6.880  18.265  0.00  0.00    +0.000 A 
ATOM      6  H   UNL     1       0.800   7.700  20.351  0.00  0.00    +0.000 HD
ENDROOT
BRANCH   5   7
ATOM      7  C   UNL     1       3.922   6.090  17.506  0.00  0.00    +0.000 A 
ATOM      8  C   UNL     1       3.604   4.690  17.203  0.00  0.00    +0.000 A 
ATOM      9  C   UNL     1       4.449   3.895  16.521  0.00  0.00    +0.000 A 
ATOM     10  C   UNL     1       5.688   4.419  16.069  0.00  0.00    +0.000 A 
ATOM     11  N   UNL     1       6.686   3.877  15.406  0.00  0.00    +0.000 NA
ATOM     12  C   UNL     1       7.562   4.914  15.292  0.00  0.00    +0.000 A 
ATOM     13  N   UNL     1       7.185   6.071  15.833  0.00  0.00    +0.000 NA
ATOM     14  N   UNL     1       5.967   5.761  16.348  0.00  0.00    +0.000 N 
ATOM     15  C   UNL     1       5.092   6.581  17.050  0.00  0.00    +0.000 A 
ENDBRANCH   5   7
BRANCH   1  21
ATOM     16  C   UNL     1       0.524   1.989  18.833  0.00  0.00    +0.000 C 
ATOM     17  C   UNL     1       1.192   3.007  19.706  0.00  0.00    +0.000 A 
ATOM     18  C   UNL     1       1.628   2.676  20.985  0.00  0.00    +0.000 A 
ATOM     19  C   UNL     1       2.249   3.655  21.754  0.00  0.00    +0.000 A 
ATOM     20  C   UNL     1       2.426   4.929  21.226  0.00  0.00    +0.000 A 
ATOM     21  C   UNL     1       1.974   5.180  19.936  0.00  0.00    +0.000 A 
ATOM     22  N   UNL     1       1.359   4.244  19.181  0.00  0.00    +0.000 NA
ENDBRANCH   1  21
BRANCH   3  23
ATOM     23  C   UNL     1       1.405  10.032  18.958  0.00  0.00    +0.000 C 
BRANCH  23  24
ATOM     24  N   UNL     1       0.269  10.165  19.855  0.00  0.00    +0.000 N 
ATOM     25  H   UNL     1       0.418   9.937  20.831  0.00  0.00    +0.000 HD
BRANCH  24  26
ATOM     26  C   UNL     1      -0.916  10.773  19.483  0.00  0.00    +0.000 A 
ATOM     27  C   UNL     1      -1.679  10.340  18.391  0.00  0.00    +0.000 A 
ATOM     28  C   UNL     1      -2.925  10.900  18.103  0.00  0.00    +0.000 A 
ATOM     29  C   UNL     1      -3.425  11.922  18.896  0.00  0.00    +0.000 A 
ATOM     30  C   UNL     1      -2.676  12.401  19.968  0.00  0.00    +0.000 A 
ATOM     31  C   UNL     1      -1.430  11.824  20.255  0.00  0.00    +0.000 A 
BRANCH  29  32
ATOM     32  N   UNL     1      -4.729  12.420  18.617  0.00  0.00    +0.000 N 
ATOM     33  H   UNL     1      -4.853  13.429  18.720  0.00  0.00    +0.000 HD
BRANCH  32  34
ATOM     34  S   UNL     1      -6.036  11.609  19.313  0.00  0.00    +0.000 S 
ATOM     35  C   UNL     1      -7.402  12.642  18.820  0.00  0.00    +0.000 C 
ATOM     36  O   UNL     1      -6.196  10.300  18.708  0.00  0.00    +0.000 OA
ATOM     37  O   UNL     1      -5.871  11.748  20.743  0.00  0.00    +0.000 OA
ENDBRANCH  32  34
ENDBRANCH  29  32
ENDBRANCH  24  26
ENDBRANCH  23  24
ENDBRANCH   3  23
TORSDOF 7
ENDMDL
MODEL 7
REMARK VINA RESULT:      -8.4      1.480      4.519
REMARK  Name = 
REMARK  9 active torsions:
REMARK  status: ('A' for Active; 'I' for Inactive)
REMARK    1  A    between atoms: C_1  and  C_2
REMARK    2  A    between atoms: C_6  and  C_7
REMARK    3  A    between atoms: C_9  and  C_10
REMARK    4  A    between atoms: C_10  and  N_11
REMARK    5  A    between atoms: N_11  and  C_12
REMARK    6  A    between atoms: C_15  and  N_16
REMARK    7  A    between atoms: N_16  and  S_17
REMARK    8  A    between atoms: S_17  and  C_18
REMARK    9  A    between atoms: C_24  and  C_25
REMARK                            x       y       z     vdW  Elec       q    Type
REMARK                         _______ _______ _______ _____ _____    ______ ____
ROOT
ATOM      1  C   UNL     1       3.963   6.934  17.630  0.00  0.00    +0.000 A 
ATOM      2  N   UNL     1       3.850   8.276  17.340  0.00  0.00    +0.000 N 
ATOM      3  C   UNL     1       2.652   8.735  17.834  0.00  0.00    +0.000 A 
ATOM      4  N   UNL     1       2.002   7.770  18.445  0.00  0.00    +0.000 NA
ATOM      5  C   UNL     1       2.791   6.656  18.307  0.00  0.00    +0.000 A 
ATOM      6  H   UNL     1       4.516   8.832  16.822  0.00  0.00    +0.000 HD
ENDROOT
BRANCH   5   7
ATOM      7  C   UNL     1       2.387   5.416  18.880  0.00  0.00    +0.000 A 
ATOM      8  C   UNL     1       1.730   4.402  18.046  0.00  0.00    +0.000 A 
ATOM      9  C   UNL     1       1.299   3.231  18.550  0.00  0.00    +0.000 A 
ATOM     10  C   UNL     1       1.487   2.953  19.929  0.00  0.00    +0.000 A 
ATOM     11  N   UNL     1       1.162   1.918  20.673  0.00  0.00    +0.000 NA
ATOM     12  C   UNL     1       1.625   2.282  21.902  0.00  0.00    +0.000 A 
ATOM     13  N   UNL     1       2.221   3.470  21.983  0.00  0.00    +0.000 NA
ATOM     14  N   UNL     1       2.134   3.921  20.705  0.00  0.00    +0.000 N 
ATOM     15  C   UNL     1       2.580   5.129  20.182  0.00  0.00    +0.000 A 
ENDBRANCH   5   7
BRANCH   1  21
ATOM     16  C   UNL     1       5.816   4.234  14.141  0.00  0.00    +0.000 C 
ATOM     17  C   UNL     1       5.986   4.816  15.511  0.00  0.00    +0.000 A 
ATOM     18  C   UNL     1       7.156   4.609  16.235  0.00  0.00    +0.000 A 
ATOM     19  C   UNL     1       7.268   5.176  17.501  0.00  0.00    +0.000 A 
ATOM     20  C   UNL     1       6.218   5.938  18.004  0.00  0.00    +0.000 A 
ATOM     21  C   UNL     1       5.087   6.108  17.217  0.00  0.00    +0.000 A 
ATOM     22  N   UNL     1       4.958   5.555  15.991  0.00  0.00    +0.000 NA
ENDBRANCH   1  21
BRANCH   3  23
ATOM     23  C   UNL     1       2.229  10.162  17.685  0.00  0.00    +0.000 C 
BRANCH  23  24
ATOM     24  N   UNL     1       1.447  10.685  18.793  0.00  0.00    +0.000 N 
ATOM     25  H   UNL     1       1.946  10.921  19.644  0.00  0.00    +0.000 HD
BRANCH  24  26
ATOM     26  C   UNL     1       0.122  11.062  18.668  0.00  0.00    +0.000 A 
ATOM     27  C   UNL     1      -0.917  10.135  18.511  0.00  0.00    +0.000 A 
ATOM     28  C   UNL     1      -2.255  10.534  18.497  0.00  0.00    +0.000 A 
ATOM     29  C   UNL     1      -2.578  11.877  18.623  0.00  0.00    +0.000 A 
ATOM     30  C   UNL     1      -1.568  12.828  18.745  0.00  0.00    +0.000 A 
ATOM     31  C   UNL     1      -0.228  12.416  18.768  0.00  0.00    +0.000 A 
BRANCH  29  32
ATOM     32  N   UNL     1      -3.954  12.240  18.677  0.00  0.00    +0.000 N 
ATOM     33  H   UNL     1      -4.395  12.182  19.597  0.00  0.00    +0.000 HD
BRANCH  32  34
ATOM     34  S   UNL     1      -4.978  11.583  17.507  0.00  0.00    +0.000 S 
ATOM     35  C   UNL     1      -6.190  12.877  17.325  0.00  0.00    +0.000 C 
ATOM     36  O   UNL     1      -4.271  11.423  16.251  0.00  0.00    +0.000 OA
ATOM     37  O   UNL     1      -5.627  10.456  18.140  0.00  0.00    +0.000 OA
ENDBRANCH  32  34
ENDBRANCH  29  32
ENDBRANCH  24  26
ENDBRANCH  23  24
ENDBRANCH   3  23
TORSDOF 7
ENDMDL
MODEL 8
REMARK VINA RESULT:      -8.4      6.982      9.878
REMARK  Name = 
REMARK  9 active torsions:
REMARK  status: ('A' for Active; 'I' for Inactive)
REMARK    1  A    between atoms: C_1  and  C_2
REMARK    2  A    between atoms: C_6  and  C_7
REMARK    3  A    between atoms: C_9  and  C_10
REMARK    4  A    between atoms: C_10  and  N_11
REMARK    5  A    between atoms: N_11  and  C_12
REMARK    6  A    between atoms: C_15  and  N_16
REMARK    7  A    between atoms: N_16  and  S_17
REMARK    8  A    between atoms: S_17  and  C_18
REMARK    9  A    between atoms: C_24  and  C_25
REMARK                            x       y       z     vdW  Elec       q    Type
REMARK                         _______ _______ _______ _____ _____    ______ ____
ROOT
ATOM      1  C   UNL     1       6.612   5.680  16.392  0.00  0.00    +0.000 A 
ATOM      2  N   UNL     1       7.680   6.497  16.691  0.00  0.00    +0.000 N 
ATOM      3  C   UNL     1       7.518   6.987  17.965  0.00  0.00    +0.000 A 
ATOM      4  N   UNL     1       6.420   6.511  18.509  0.00  0.00    +0.000 NA
ATOM      5  C   UNL     1       5.848   5.723  17.542  0.00  0.00    +0.000 A 
ATOM      6  H   UNL     1       8.443   6.730  16.071  0.00  0.00    +0.000 HD
ENDROOT
BRANCH   5   7
ATOM      7  C   UNL     1       4.634   5.028  17.810  0.00  0.00    +0.000 A 
ATOM      8  C   UNL     1       3.344   5.699  17.612  0.00  0.00    +0.000 A 
ATOM      9  C   UNL     1       2.173   5.095  17.886  0.00  0.00    +0.000 A 
ATOM     10  C   UNL     1       2.173   3.763  18.376  0.00  0.00    +0.000 A 
ATOM     11  N   UNL     1       1.198   2.954  18.730  0.00  0.00    +0.000 NA
ATOM     12  C   UNL     1       1.871   1.830  19.104  0.00  0.00    +0.000 A 
ATOM     13  N   UNL     1       3.198   1.873  19.008  0.00  0.00    +0.000 NA
ATOM     14  N   UNL     1       3.409   3.130  18.539  0.00  0.00    +0.000 N 
ATOM     15  C   UNL     1       4.617   3.755  18.254  0.00  0.00    +0.000 A 
ENDBRANCH   5   7
BRANCH   1  21
ATOM     16  C   UNL     1       8.035   5.447  11.829  0.00  0.00    +0.000 C 
ATOM     17  C   UNL     1       7.139   4.904  12.900  0.00  0.00    +0.000 A 
ATOM     18  C   UNL     1       6.291   3.831  12.647  0.00  0.00    +0.000 A 
ATOM     19  C   UNL     1       5.483   3.360  13.677  0.00  0.00    +0.000 A 
ATOM     20  C   UNL     1       5.549   3.963  14.929  0.00  0.00    +0.000 A 
ATOM     21  C   UNL     1       6.428   5.023  15.106  0.00  0.00    +0.000 A 
ATOM     22  N   UNL     1       7.212   5.500  14.115  0.00  0.00    +0.000 NA
ENDBRANCH   1  21
BRANCH   3  23
ATOM     23  C   UNL     1       8.517   7.908  18.592  0.00  0.00    +0.000 C 
BRANCH  23  24
ATOM     24  N   UNL     1       8.328   9.315  18.277  0.00  0.00    +0.000 N 
ATOM     25  H   UNL     1       7.439   9.585  17.872  0.00  0.00    +0.000 HD
BRANCH  24  26
ATOM     26  C   UNL     1       9.203  10.302  18.691  0.00  0.00    +0.000 A 
ATOM     27  C   UNL     1       9.948  11.079  17.794  0.00  0.00    +0.000 A 
ATOM     28  C   UNL     1      10.740  12.142  18.231  0.00  0.00    +0.000 A 
ATOM     29  C   UNL     1      10.818  12.436  19.584  0.00  0.00    +0.000 A 
ATOM     30  C   UNL     1      10.119  11.662  20.506  0.00  0.00    +0.000 A 
ATOM     31  C   UNL     1       9.317  10.603  20.056  0.00  0.00    +0.000 A 
BRANCH  29  32
ATOM     32  N   UNL     1      11.578  13.571  19.988  0.00  0.00    +0.000 N 
ATOM     33  H   UNL     1      12.395  13.376  20.569  0.00  0.00    +0.000 HD
BRANCH  32  34
ATOM     34  S   UNL     1      10.731  14.891  20.613  0.00  0.00    +0.000 S 
ATOM     35  C   UNL     1       9.375  15.023  19.465  0.00  0.00    +0.000 C 
ATOM     36  O   UNL     1      10.206  14.576  21.927  0.00  0.00    +0.000 OA
ATOM     37  O   UNL     1      11.590  16.039  20.415  0.00  0.00    +0.000 OA
ENDBRANCH  32  34
ENDBRANCH  29  32
ENDBRANCH  24  26
ENDBRANCH  23  24
ENDBRANCH   3  23
TORSDOF 7
ENDMDL
MODEL 9
REMARK VINA RESULT:      -8.3      3.037      5.339
REMARK  Name = 
REMARK  9 active torsions:
REMARK  status: ('A' for Active; 'I' for Inactive)
REMARK    1  A    between atoms: C_1  and  C_2
REMARK    2  A    between atoms: C_6  and  C_7
REMARK    3  A    between atoms: C_9  and  C_10
REMARK    4  A    between atoms: C_10  and  N_11
REMARK    5  A    between atoms: N_11  and  C_12
REMARK    6  A    between atoms: C_15  and  N_16
REMARK    7  A    between atoms: N_16  and  S_17
REMARK    8  A    between atoms: S_17  and  C_18
REMARK    9  A    between atoms: C_24  and  C_25
REMARK                            x       y       z     vdW  Elec       q    Type
REMARK                         _______ _______ _______ _____ _____    ______ ____
ROOT
ATOM      1  C   UNL     1       3.751   7.299  17.618  0.00  0.00    +0.000 A 
ATOM      2  N   UNL     1       3.532   8.638  17.383  0.00  0.00    +0.000 N 
ATOM      3  C   UNL     1       2.311   8.985  17.911  0.00  0.00    +0.000 A 
ATOM      4  N   UNL     1       1.745   7.951  18.491  0.00  0.00    +0.000 NA
ATOM      5  C   UNL     1       2.614   6.907  18.299  0.00  0.00    +0.000 A 
ATOM      6  H   UNL     1       4.146   9.262  16.879  0.00  0.00    +0.000 HD
ENDROOT
BRANCH   5   7
ATOM      7  C   UNL     1       2.314   5.618  18.828  0.00  0.00    +0.000 A 
ATOM      8  C   UNL     1       1.807   4.562  17.943  0.00  0.00    +0.000 A 
ATOM      9  C   UNL     1       1.476   3.342  18.403  0.00  0.00    +0.000 A 
ATOM     10  C   UNL     1       1.624   3.052  19.785  0.00  0.00    +0.000 A 
ATOM     11  N   UNL     1       1.373   1.971  20.491  0.00  0.00    +0.000 NA
ATOM     12  C   UNL     1       1.735   2.352  21.749  0.00  0.00    +0.000 A 
ATOM     13  N   UNL     1       2.201   3.592  21.882  0.00  0.00    +0.000 NA
ATOM     14  N   UNL     1       2.129   4.062  20.610  0.00  0.00    +0.000 N 
ATOM     15  C   UNL     1       2.472   5.321  20.133  0.00  0.00    +0.000 A 
ENDBRANCH   5   7
BRANCH   1  21
ATOM     16  C   UNL     1       7.977   5.425  18.854  0.00  0.00    +0.000 C 
ATOM     17  C   UNL     1       6.966   5.654  17.772  0.00  0.00    +0.000 A 
ATOM     18  C   UNL     1       7.158   5.138  16.494  0.00  0.00    +0.000 A 
ATOM     19  C   UNL     1       6.187   5.372  15.526  0.00  0.00    +0.000 A 
ATOM     20  C   UNL     1       5.051   6.103  15.859  0.00  0.00    +0.000 A 
ATOM     21  C   UNL     1       4.927   6.576  17.159  0.00  0.00    +0.000 A 
ATOM     22  N   UNL     1       5.865   6.367  18.108  0.00  0.00    +0.000 NA
ENDBRANCH   1  21
BRANCH   3  23
ATOM     23  C   UNL     1       1.779  10.381  17.823  0.00  0.00    +0.000 C 
BRANCH  23  24
ATOM     24  N   UNL     1       0.336  10.493  17.963  0.00  0.00    +0.000 N 
ATOM     25  H   UNL     1      -0.236   9.943  17.332  0.00  0.00    +0.000 HD
BRANCH  24  26
ATOM     26  C   UNL     1      -0.269  11.136  19.027  0.00  0.00    +0.000 A 
ATOM     27  C   UNL     1      -0.228  10.636  20.336  0.00  0.00    +0.000 A 
ATOM     28  C   UNL     1      -0.752  11.359  21.410  0.00  0.00    +0.000 A 
ATOM     29  C   UNL     1      -1.348  12.592  21.190  0.00  0.00    +0.000 A 
ATOM     30  C   UNL     1      -1.438  13.100  19.897  0.00  0.00    +0.000 A 
ATOM     31  C   UNL     1      -0.899  12.372  18.826  0.00  0.00    +0.000 A 
BRANCH  29  32
ATOM     32  N   UNL     1      -1.807  13.333  22.315  0.00  0.00    +0.000 N 
ATOM     33  H   UNL     1      -2.748  13.724  22.238  0.00  0.00    +0.000 HD
BRANCH  32  34
ATOM     34  S   UNL     1      -0.759  14.484  22.968  0.00  0.00    +0.000 S 
ATOM     35  C   UNL     1      -1.342  15.979  22.195  0.00  0.00    +0.000 C 
ATOM     36  O   UNL     1      -0.956  14.589  24.402  0.00  0.00    +0.000 OA
ATOM     37  O   UNL     1       0.546  14.184  22.422  0.00  0.00    +0.000 OA
ENDBRANCH  32  34
ENDBRANCH  29  32
ENDBRANCH  24  26
ENDBRANCH  23  24
ENDBRANCH   3  23
TORSDOF 7
ENDMDL
