MODEL 1
REMARK VINA RESULT:      -7.3      0.000      0.000
REMARK  Name = 
REMARK  7 active torsions:
REMARK  status: ('A' for Active; 'I' for Inactive)
REMARK    1  A    between atoms: C_1  and  O_2
REMARK    2  A    between atoms: O_2  and  C_3
REMARK    3  A    between atoms: C_3  and  C_4
REMARK    4  A    between atoms: C_3  and  C_16
REMARK    5  A    between atoms: C_4  and  N_5
REMARK    6  A    between atoms: N_5  and  S_6
REMARK    7  A    between atoms: S_6  and  C_9
REMARK                            x       y       z     vdW  Elec       q    Type
REMARK                         _______ _______ _______ _____ _____    ______ ____
ROOT
ATOM      1  N   UNL     1       6.105   4.277  18.667  0.00  0.00    +0.000 NA
ATOM      2  H   UNL     1       5.609   3.500  18.227  0.00  0.00    +0.000 HD
ENDROOT
BRANCH   1   3
ATOM      3  S   UNL     1       7.319   4.877  17.675  0.00  0.00    +0.000 S 
ATOM      4  O   UNL     1       7.303   6.317  17.820  0.00  0.00    +0.000 OA
ATOM      5  O   UNL     1       8.513   4.094  17.905  0.00  0.00    +0.000 OA
BRANCH   3   6
ATOM      6  C   UNL     1       6.697   4.503  16.055  0.00  0.00    +0.000 A 
ATOM      7  C   UNL     1       7.434   4.898  14.934  0.00  0.00    +0.000 A 
ATOM      8  C   UNL     1       6.954   4.601  13.656  0.00  0.00    +0.000 A 
ATOM      9  C   UNL     1       5.751   3.907  13.511  0.00  0.00    +0.000 A 
ATOM     10 CL   UNL     1       5.161   3.545  11.937  0.00  0.00    +0.000 Cl
ATOM     11  C   UNL     1       5.023   3.504  14.632  0.00  0.00    +0.000 A 
ATOM     12  C   UNL     1       5.495   3.800  15.912  0.00  0.00    +0.000 A 
ENDBRANCH   3   6
ENDBRANCH   1   3
BRANCH   1  13
ATOM     13  C   UNL     1       5.281   5.253  19.414  0.00  0.00    +0.000 C 
BRANCH  13  14
ATOM     14  C   UNL     1       3.964   5.609  18.675  0.00  0.00    +0.000 C 
BRANCH  14  15
ATOM     15  C   UNL     1       2.839   4.638  19.015  0.00  0.00    +0.000 A 
ATOM     16  C   UNL     1       2.190   4.703  20.257  0.00  0.00    +0.000 A 
ATOM     17  C   UNL     1       1.164   3.807  20.569  0.00  0.00    +0.000 A 
ATOM     18  C   UNL     1       0.769   2.841  19.643  0.00  0.00    +0.000 A 
ATOM     19  C   UNL     1       1.393   2.774  18.402  0.00  0.00    +0.000 A 
ATOM     20  C   UNL     1       2.419   3.667  18.090  0.00  0.00    +0.000 A 
ENDBRANCH  14  15
BRANCH  14  22
ATOM     21  C   UNL     1       2.805   7.552  17.852  0.00  0.00    +0.000 C 
ATOM     22  O   UNL     1       3.490   6.940  18.931  0.00  0.00    +0.000 OA
ENDBRANCH  14  22
ENDBRANCH  13  14
ENDBRANCH   1  13
TORSDOF 6
ENDMDL
MODEL 2
REMARK VINA RESULT:      -7.2      1.451      1.623
REMARK  Name = 
REMARK  7 active torsions:
REMARK  status: ('A' for Active; 'I' for Inactive)
REMARK    1  A    between atoms: C_1  and  O_2
REMARK    2  A    between atoms: O_2  and  C_3
REMARK    3  A    between atoms: C_3  and  C_4
REMARK    4  A    between atoms: C_3  and  C_16
REMARK    5  A    between atoms: C_4  and  N_5
REMARK    6  A    between atoms: N_5  and  S_6
REMARK    7  A    between atoms: S_6  and  C_9
REMARK                            x       y       z     vdW  Elec       q    Type
REMARK                         _______ _______ _______ _____ _____    ______ ____
ROOT
ATOM      1  N   UNL     1       4.858   6.092  19.024  0.00  0.00    +0.000 NA
ATOM      2  H   UNL     1       4.386   6.159  19.929  0.00  0.00    +0.000 HD
ENDROOT
BRANCH   1   3
ATOM      3  S   UNL     1       5.826   4.725  18.930  0.00  0.00    +0.000 S 
ATOM      4  O   UNL     1       7.122   5.093  19.461  0.00  0.00    +0.000 OA
ATOM      5  O   UNL     1       5.072   3.605  19.448  0.00  0.00    +0.000 OA
BRANCH   3   6
ATOM      6  C   UNL     1       6.015   4.520  17.176  0.00  0.00    +0.000 A 
ATOM      7  C   UNL     1       7.122   5.090  16.539  0.00  0.00    +0.000 A 
ATOM      8  C   UNL     1       7.281   4.926  15.162  0.00  0.00    +0.000 A 
ATOM      9  C   UNL     1       6.341   4.192  14.437  0.00  0.00    +0.000 A 
ATOM     10 CL   UNL     1       6.537   3.995  12.740  0.00  0.00    +0.000 Cl
ATOM     11  C   UNL     1       5.242   3.615  15.077  0.00  0.00    +0.000 A 
ATOM     12  C   UNL     1       5.076   3.777  16.453  0.00  0.00    +0.000 A 
ENDBRANCH   3   6
ENDBRANCH   1   3
BRANCH   1  13
ATOM     13  C   UNL     1       4.060   6.455  17.833  0.00  0.00    +0.000 C 
BRANCH  13  14
ATOM     14  C   UNL     1       2.542   6.552  18.138  0.00  0.00    +0.000 C 
BRANCH  14  15
ATOM     15  C   UNL     1       1.996   5.258  18.731  0.00  0.00    +0.000 A 
ATOM     16  C   UNL     1       1.682   5.175  20.097  0.00  0.00    +0.000 A 
ATOM     17  C   UNL     1       1.187   3.985  20.639  0.00  0.00    +0.000 A 
ATOM     18  C   UNL     1       0.994   2.869  19.825  0.00  0.00    +0.000 A 
ATOM     19  C   UNL     1       1.287   2.941  18.468  0.00  0.00    +0.000 A 
ATOM     20  C   UNL     1       1.782   4.128  17.925  0.00  0.00    +0.000 A 
ENDBRANCH  14  15
BRANCH  14  22
ATOM     21  C   UNL     1       1.872   8.851  18.385  0.00  0.00    +0.000 C 
ATOM     22  O   UNL     1       2.189   7.627  19.023  0.00  0.00    +0.000 OA
ENDBRANCH  14  22
ENDBRANCH  13  14
ENDBRANCH   1  13
TORSDOF 6
ENDMDL
MODEL 3
REMARK VINA RESULT:      -7.1      1.058      1.517
REMARK  Name = 
REMARK  7 active torsions:
REMARK  status: ('A' for Active; 'I' for Inactive)
REMARK    1  A    between atoms: C_1  and  O_2
REMARK    2  A    between atoms: O_2  and  C_3
REMARK    3  A    between atoms: C_3  and  C_4
REMARK    4  A    between atoms: C_3  and  C_16
REMARK    5  A    between atoms: C_4  and  N_5
REMARK    6  A    between atoms: N_5  and  S_6
REMARK    7  A    between atoms: S_6  and  C_9
REMARK                            x       y       z     vdW  Elec       q    Type
REMARK                         _______ _______ _______ _____ _____    ______ ____
ROOT
ATOM      1  N   UNL     1       5.443   6.741  17.384  0.00  0.00    +0.000 NA
ATOM      2  H   UNL     1       5.495   7.761  17.431  0.00  0.00    +0.000 HD
ENDROOT
BRANCH   1   3
ATOM      3  S   UNL     1       6.930   6.064  16.998  0.00  0.00    +0.000 S 
ATOM      4  O   UNL     1       7.797   7.157  16.609  0.00  0.00    +0.000 OA
ATOM      5  O   UNL     1       7.285   5.135  18.046  0.00  0.00    +0.000 OA
BRANCH   3   6
ATOM      6  C   UNL     1       6.551   5.145  15.526  0.00  0.00    +0.000 A 
ATOM      7  C   UNL     1       7.416   5.225  14.430  0.00  0.00    +0.000 A 
ATOM      8  C   UNL     1       7.129   4.499  13.273  0.00  0.00    +0.000 A 
ATOM      9  C   UNL     1       5.988   3.695  13.224  0.00  0.00    +0.000 A 
ATOM     10 CL   UNL     1       5.634   2.804  11.796  0.00  0.00    +0.000 Cl
ATOM     11  C   UNL     1       5.131   3.608  14.323  0.00  0.00    +0.000 A 
ATOM     12  C   UNL     1       5.412   4.333  15.482  0.00  0.00    +0.000 A 
ENDBRANCH   3   6
ENDBRANCH   1   3
BRANCH   1  13
ATOM     13  C   UNL     1       4.629   6.069  18.420  0.00  0.00    +0.000 C 
BRANCH  13  14
ATOM     14  C   UNL     1       3.105   6.259  18.196  0.00  0.00    +0.000 C 
BRANCH  14  15
ATOM     15  C   UNL     1       2.297   5.092  18.753  0.00  0.00    +0.000 A 
ATOM     16  C   UNL     1       1.922   4.023  17.924  0.00  0.00    +0.000 A 
ATOM     17  C   UNL     1       1.176   2.958  18.435  0.00  0.00    +0.000 A 
ATOM     18  C   UNL     1       0.802   2.943  19.779  0.00  0.00    +0.000 A 
ATOM     19  C   UNL     1       1.179   3.987  20.616  0.00  0.00    +0.000 A 
ATOM     20  C   UNL     1       1.923   5.052  20.106  0.00  0.00    +0.000 A 
ENDBRANCH  14  15
BRANCH  14  22
ATOM     21  C   UNL     1       2.249   8.477  17.817  0.00  0.00    +0.000 C 
ATOM     22  O   UNL     1       2.576   7.470  18.759  0.00  0.00    +0.000 OA
ENDBRANCH  14  22
ENDBRANCH  13  14
ENDBRANCH   1  13
TORSDOF 6
ENDMDL
MODEL 4
REMARK VINA RESULT:      -7.0      1.020      1.482
REMARK  Name = 
REMARK  7 active torsions:
REMARK  status: ('A' for Active; 'I' for Inactive)
REMARK    1  A    between atoms: C_1  and  O_2
REMARK    2  A    between atoms: O_2  and  C_3
REMARK    3  A    between atoms: C_3  and  C_4
REMARK    4  A    between atoms: C_3  and  C_16
REMARK    5  A    between atoms: C_4  and  N_5
REMARK    6  A    between atoms: N_5  and  S_6
REMARK    7  A    between atoms: S_6  and  C_9
REMARK                            x       y       z     vdW  Elec       q    Type
REMARK                         _______ _______ _______ _____ _____    ______ ____
ROOT
ATOM      1  N   UNL     1       5.400   6.667  17.498  0.00  0.00    +0.000 NA
ATOM      2  H   UNL     1       5.455   7.687  17.473  0.00  0.00    +0.000 HD
ENDROOT
BRANCH   1   3
ATOM      3  S   UNL     1       6.886   5.960  17.168  0.00  0.00    +0.000 S 
ATOM      4  O   UNL     1       7.799   7.037  16.846  0.00  0.00    +0.000 OA
ATOM      5  O   UNL     1       7.167   4.999  18.210  0.00  0.00    +0.000 OA
BRANCH   3   6
ATOM      6  C   UNL     1       6.555   5.083  15.659  0.00  0.00    +0.000 A 
ATOM      7  C   UNL     1       5.418   4.273  15.578  0.00  0.00    +0.000 A 
ATOM      8  C   UNL     1       5.147   3.586  14.392  0.00  0.00    +0.000 A 
ATOM      9  C   UNL     1       6.008   3.720  13.301  0.00  0.00    +0.000 A 
ATOM     10 CL   UNL     1       5.674   2.871  11.843  0.00  0.00    +0.000 Cl
ATOM     11  C   UNL     1       7.137   4.539  13.381  0.00  0.00    +0.000 A 
ATOM     12  C   UNL     1       7.414   5.226  14.564  0.00  0.00    +0.000 A 
ENDBRANCH   3   6
ENDBRANCH   1   3
BRANCH   1  13
ATOM     13  C   UNL     1       4.579   6.073  18.575  0.00  0.00    +0.000 C 
BRANCH  13  14
ATOM     14  C   UNL     1       3.056   6.229  18.319  0.00  0.00    +0.000 C 
BRANCH  14  15
ATOM     15  C   UNL     1       2.266   5.030  18.832  0.00  0.00    +0.000 A 
ATOM     16  C   UNL     1       1.898   4.942  20.183  0.00  0.00    +0.000 A 
ATOM     17  C   UNL     1       1.180   3.839  20.652  0.00  0.00    +0.000 A 
ATOM     18  C   UNL     1       0.814   2.816  19.778  0.00  0.00    +0.000 A 
ATOM     19  C   UNL     1       1.158   2.897  18.433  0.00  0.00    +0.000 A 
ATOM     20  C   UNL     1       1.876   3.996  17.964  0.00  0.00    +0.000 A 
ENDBRANCH  14  15
BRANCH  14  22
ATOM     21  C   UNL     1       2.308   8.493  17.992  0.00  0.00    +0.000 C 
ATOM     22  O   UNL     1       2.483   7.414  18.893  0.00  0.00    +0.000 OA
ENDBRANCH  14  22
ENDBRANCH  13  14
ENDBRANCH   1  13
TORSDOF 6
ENDMDL
MODEL 5
REMARK VINA RESULT:      -6.9      3.559      6.374
REMARK  Name = 
REMARK  7 active torsions:
REMARK  status: ('A' for Active; 'I' for Inactive)
REMARK    1  A    between atoms: C_1  and  O_2
REMARK    2  A    between atoms: O_2  and  C_3
REMARK    3  A    between atoms: C_3  and  C_4
REMARK    4  A    between atoms: C_3  and  C_16
REMARK    5  A    between atoms: C_4  and  N_5
REMARK    6  A    between atoms: N_5  and  S_6
REMARK    7  A    between atoms: S_6  and  C_9
REMARK                            x       y       z     vdW  Elec       q    Type
REMARK                         _______ _______ _______ _____ _____    ______ ____
ROOT
ATOM      1  N   UNL     1       3.730   3.908  16.767  0.00  0.00    +0.000 NA
ATOM      2  H   UNL     1       3.096   3.547  16.052  0.00  0.00    +0.000 HD
ENDROOT
BRANCH   1   3
ATOM      3  S   UNL     1       3.263   3.428  18.306  0.00  0.00    +0.000 S 
ATOM      4  O   UNL     1       2.103   2.577  18.144  0.00  0.00    +0.000 OA
ATOM      5  O   UNL     1       4.443   2.992  19.018  0.00  0.00    +0.000 OA
BRANCH   3   6
ATOM      6  C   UNL     1       2.700   4.954  19.019  0.00  0.00    +0.000 A 
ATOM      7  C   UNL     1       2.890   6.147  18.314  0.00  0.00    +0.000 A 
ATOM      8  C   UNL     1       2.442   7.349  18.864  0.00  0.00    +0.000 A 
ATOM      9  C   UNL     1       1.805   7.349  20.106  0.00  0.00    +0.000 A 
ATOM     10 CL   UNL     1       1.259   8.832  20.784  0.00  0.00    +0.000 Cl
ATOM     11  C   UNL     1       1.607   6.156  20.804  0.00  0.00    +0.000 A 
ATOM     12  C   UNL     1       2.054   4.950  20.260  0.00  0.00    +0.000 A 
ENDBRANCH   3   6
ENDBRANCH   1   3
BRANCH   1  13
ATOM     13  C   UNL     1       5.174   3.885  16.448  0.00  0.00    +0.000 C 
BRANCH  13  14
ATOM     14  C   UNL     1       5.700   5.264  15.966  0.00  0.00    +0.000 C 
BRANCH  14  15
ATOM     15  C   UNL     1       6.614   5.917  16.996  0.00  0.00    +0.000 A 
ATOM     16  C   UNL     1       7.126   5.173  18.071  0.00  0.00    +0.000 A 
ATOM     17  C   UNL     1       7.958   5.775  19.018  0.00  0.00    +0.000 A 
ATOM     18  C   UNL     1       8.296   7.124  18.900  0.00  0.00    +0.000 A 
ATOM     19  C   UNL     1       7.809   7.870  17.832  0.00  0.00    +0.000 A 
ATOM     20  C   UNL     1       6.977   7.270  16.887  0.00  0.00    +0.000 A 
ENDBRANCH  14  15
BRANCH  14  22
ATOM     21  C   UNL     1       6.245   4.018  13.980  0.00  0.00    +0.000 C 
ATOM     22  O   UNL     1       6.404   5.218  14.716  0.00  0.00    +0.000 OA
ENDBRANCH  14  22
ENDBRANCH  13  14
ENDBRANCH   1  13
TORSDOF 6
ENDMDL
MODEL 6
REMARK VINA RESULT:      -6.8      1.552      2.012
REMARK  Name = 
REMARK  7 active torsions:
REMARK  status: ('A' for Active; 'I' for Inactive)
REMARK    1  A    between atoms: C_1  and  O_2
REMARK    2  A    between atoms: O_2  and  C_3
REMARK    3  A    between atoms: C_3  and  C_4
REMARK    4  A    between atoms: C_3  and  C_16
REMARK    5  A    between atoms: C_4  and  N_5
REMARK    6  A    between atoms: N_5  and  S_6
REMARK    7  A    between atoms: S_6  and  C_9
REMARK                            x       y       z     vdW  Elec       q    Type
REMARK                         _______ _______ _______ _____ _____    ______ ____
ROOT
ATOM      1  N   UNL     1       4.760   6.073  18.486  0.00  0.00    +0.000 NA
ATOM      2  H   UNL     1       4.858   6.545  19.387  0.00  0.00    +0.000 HD
ENDROOT
BRANCH   1   3
ATOM      3  S   UNL     1       5.665   4.661  18.424  0.00  0.00    +0.000 S 
ATOM      4  O   UNL     1       6.914   4.937  19.103  0.00  0.00    +0.000 OA
ATOM      5  O   UNL     1       4.808   3.562  18.805  0.00  0.00    +0.000 OA
BRANCH   3   6
ATOM      6  C   UNL     1       6.028   4.526  16.691  0.00  0.00    +0.000 A 
ATOM      7  C   UNL     1       5.125   3.859  15.856  0.00  0.00    +0.000 A 
ATOM      8  C   UNL     1       5.399   3.755  14.491  0.00  0.00    +0.000 A 
ATOM      9  C   UNL     1       6.565   4.323  13.972  0.00  0.00    +0.000 A 
ATOM     10 CL   UNL     1       6.902   4.191  12.291  0.00  0.00    +0.000 Cl
ATOM     11  C   UNL     1       7.459   4.998  14.806  0.00  0.00    +0.000 A 
ATOM     12  C   UNL     1       7.192   5.103  16.172  0.00  0.00    +0.000 A 
ENDBRANCH   3   6
ENDBRANCH   1   3
BRANCH   1  13
ATOM     13  C   UNL     1       3.404   6.048  17.895  0.00  0.00    +0.000 C 
BRANCH  13  14
ATOM     14  C   UNL     1       2.287   6.223  18.959  0.00  0.00    +0.000 C 
BRANCH  14  15
ATOM     15  C   UNL     1       1.964   4.912  19.666  0.00  0.00    +0.000 A 
ATOM     16  C   UNL     1       2.331   4.713  21.006  0.00  0.00    +0.000 A 
ATOM     17  C   UNL     1       2.040   3.508  21.650  0.00  0.00    +0.000 A 
ATOM     18  C   UNL     1       1.373   2.490  20.968  0.00  0.00    +0.000 A 
ATOM     19  C   UNL     1       0.989   2.678  19.645  0.00  0.00    +0.000 A 
ATOM     20  C   UNL     1       1.281   3.880  19.000  0.00  0.00    +0.000 A 
ENDBRANCH  14  15
BRANCH  14  22
ATOM     21  C   UNL     1       1.606   8.222  20.113  0.00  0.00    +0.000 C 
ATOM     22  O   UNL     1       2.582   7.206  19.963  0.00  0.00    +0.000 OA
ENDBRANCH  14  22
ENDBRANCH  13  14
ENDBRANCH   1  13
TORSDOF 6
ENDMDL
MODEL 7
REMARK VINA RESULT:      -6.8      3.461      6.409
REMARK  Name = 
REMARK  7 active torsions:
REMARK  status: ('A' for Active; 'I' for Inactive)
REMARK    1  A    between atoms: C_1  and  O_2
REMARK    2  A    between atoms: O_2  and  C_3
REMARK    3  A    between atoms: C_3  and  C_4
REMARK    4  A    between atoms: C_3  and  C_16
REMARK    5  A    between atoms: C_4  and  N_5
REMARK    6  A    between atoms: N_5  and  S_6
REMARK    7  A    between atoms: S_6  and  C_9
REMARK                            x       y       z     vdW  Elec       q    Type
REMARK                         _______ _______ _______ _____ _____    ______ ____
ROOT
ATOM      1  N   UNL     1       3.421   4.089  17.278  0.00  0.00    +0.000 NA
ATOM      2  H   UNL     1       2.581   3.898  16.728  0.00  0.00    +0.000 HD
ENDROOT
BRANCH   1   3
ATOM      3  S   UNL     1       3.102   4.057  18.925  0.00  0.00    +0.000 S 
ATOM      4  O   UNL     1       1.962   3.183  19.113  0.00  0.00    +0.000 OA
ATOM      5  O   UNL     1       4.352   3.851  19.620  0.00  0.00    +0.000 OA
BRANCH   3   6
ATOM      6  C   UNL     1       2.548   5.716  19.231  0.00  0.00    +0.000 A 
ATOM      7  C   UNL     1       2.721   6.687  18.239  0.00  0.00    +0.000 A 
ATOM      8  C   UNL     1       2.280   7.991  18.469  0.00  0.00    +0.000 A 
ATOM      9  C   UNL     1       1.666   8.313  19.682  0.00  0.00    +0.000 A 
ATOM     10 CL   UNL     1       1.128   9.921  19.964  0.00  0.00    +0.000 Cl
ATOM     11  C   UNL     1       1.485   7.339  20.667  0.00  0.00    +0.000 A 
ATOM     12  C   UNL     1       1.924   6.034  20.443  0.00  0.00    +0.000 A 
ENDBRANCH   3   6
ENDBRANCH   1   3
BRANCH   1  13
ATOM     13  C   UNL     1       4.678   3.468  16.808  0.00  0.00    +0.000 C 
BRANCH  13  14
ATOM     14  C   UNL     1       5.555   4.447  15.983  0.00  0.00    +0.000 C 
BRANCH  14  15
ATOM     15  C   UNL     1       6.402   5.346  16.879  0.00  0.00    +0.000 A 
ATOM     16  C   UNL     1       6.406   6.737  16.695  0.00  0.00    +0.000 A 
ATOM     17  C   UNL     1       7.187   7.558  17.513  0.00  0.00    +0.000 A 
ATOM     18  C   UNL     1       7.968   7.001  18.527  0.00  0.00    +0.000 A 
ATOM     19  C   UNL     1       7.962   5.625  18.730  0.00  0.00    +0.000 A 
ATOM     20  C   UNL     1       7.183   4.805  17.913  0.00  0.00    +0.000 A 
ENDBRANCH  14  15
BRANCH  14  22
ATOM     21  C   UNL     1       6.052   3.919  13.688  0.00  0.00    +0.000 C 
ATOM     22  O   UNL     1       6.434   3.803  15.048  0.00  0.00    +0.000 OA
ENDBRANCH  14  22
ENDBRANCH  13  14
ENDBRANCH   1  13
TORSDOF 6
ENDMDL
MODEL 8
REMARK VINA RESULT:      -6.7      1.159      1.905
REMARK  Name = 
REMARK  7 active torsions:
REMARK  status: ('A' for Active; 'I' for Inactive)
REMARK    1  A    between atoms: C_1  and  O_2
REMARK    2  A    between atoms: O_2  and  C_3
REMARK    3  A    between atoms: C_3  and  C_4
REMARK    4  A    between atoms: C_3  and  C_16
REMARK    5  A    between atoms: C_4  and  N_5
REMARK    6  A    between atoms: N_5  and  S_6
REMARK    7  A    between atoms: S_6  and  C_9
REMARK                            x       y       z     vdW  Elec       q    Type
REMARK                         _______ _______ _______ _____ _____    ______ ____
ROOT
ATOM      1  N   UNL     1       5.502   6.319  18.518  0.00  0.00    +0.000 NA
ATOM      2  H   UNL     1       6.130   7.103  18.702  0.00  0.00    +0.000 HD
ENDROOT
BRANCH   1   3
ATOM      3  S   UNL     1       6.337   4.866  18.425  0.00  0.00    +0.000 S 
ATOM      4  O   UNL     1       7.716   5.155  18.760  0.00  0.00    +0.000 OA
ATOM      5  O   UNL     1       5.569   3.862  19.125  0.00  0.00    +0.000 OA
BRANCH   3   6
ATOM      6  C   UNL     1       6.281   4.513  16.685  0.00  0.00    +0.000 A 
ATOM      7  C   UNL     1       5.191   3.805  16.168  0.00  0.00    +0.000 A 
ATOM      8  C   UNL     1       5.136   3.532  14.800  0.00  0.00    +0.000 A 
ATOM      9  C   UNL     1       6.163   3.973  13.962  0.00  0.00    +0.000 A 
ATOM     10 CL   UNL     1       6.095   3.631  12.278  0.00  0.00    +0.000 Cl
ATOM     11  C   UNL     1       7.245   4.689  14.480  0.00  0.00    +0.000 A 
ATOM     12  C   UNL     1       7.307   4.964  15.847  0.00  0.00    +0.000 A 
ENDBRANCH   3   6
ENDBRANCH   1   3
BRANCH   1  13
ATOM     13  C   UNL     1       4.206   6.324  19.232  0.00  0.00    +0.000 C 
BRANCH  13  14
ATOM     14  C   UNL     1       3.012   5.980  18.303  0.00  0.00    +0.000 C 
BRANCH  14  15
ATOM     15  C   UNL     1       2.220   4.781  18.812  0.00  0.00    +0.000 A 
ATOM     16  C   UNL     1       1.862   3.740  17.941  0.00  0.00    +0.000 A 
ATOM     17  C   UNL     1       1.131   2.644  18.409  0.00  0.00    +0.000 A 
ATOM     18  C   UNL     1       0.756   2.571  19.750  0.00  0.00    +0.000 A 
ATOM     19  C   UNL     1       1.117   3.587  20.628  0.00  0.00    +0.000 A 
ATOM     20  C   UNL     1       1.845   4.682  20.162  0.00  0.00    +0.000 A 
ENDBRANCH  14  15
BRANCH  14  22
ATOM     21  C   UNL     1       2.692   8.328  17.878  0.00  0.00    +0.000 C 
ATOM     22  O   UNL     1       2.091   7.065  18.106  0.00  0.00    +0.000 OA
ENDBRANCH  14  22
ENDBRANCH  13  14
ENDBRANCH   1  13
TORSDOF 6
ENDMDL
MODEL 9
REMARK VINA RESULT:      -6.7      3.496      6.418
REMARK  Name = 
REMARK  7 active torsions:
REMARK  status: ('A' for Active; 'I' for Inactive)
REMARK    1  A    between atoms: C_1  and  O_2
REMARK    2  A    between atoms: O_2  and  C_3
REMARK    3  A    between atoms: C_3  and  C_4
REMARK    4  A    between atoms: C_3  and  C_16
REMARK    5  A    between atoms: C_4  and  N_5
REMARK    6  A    between atoms: N_5  and  S_6
REMARK    7  A    between atoms: S_6  and  C_9
REMARK                            x       y       z     vdW  Elec       q    Type
REMARK                         _______ _______ _______ _____ _____    ______ ____
ROOT
ATOM      1  N   UNL     1       3.761   3.398  17.127  0.00  0.00    +0.000 NA
ATOM      2  H   UNL     1       3.082   3.016  16.467  0.00  0.00    +0.000 HD
ENDROOT
BRANCH   1   3
ATOM      3  S   UNL     1       3.310   3.105  18.717  0.00  0.00    +0.000 S 
ATOM      4  O   UNL     1       2.151   2.237  18.669  0.00  0.00    +0.000 OA
ATOM      5  O   UNL     1       4.498   2.760  19.464  0.00  0.00    +0.000 OA
BRANCH   3   6
ATOM      6  C   UNL     1       2.749   4.704  19.248  0.00  0.00    +0.000 A 
ATOM      7  C   UNL     1       1.948   4.801  20.390  0.00  0.00    +0.000 A 
ATOM      8  C   UNL     1       1.510   6.056  20.818  0.00  0.00    +0.000 A 
ATOM      9  C   UNL     1       1.880   7.199  20.107  0.00  0.00    +0.000 A 
ATOM     10 CL   UNL     1       1.336   8.743  20.634  0.00  0.00    +0.000 Cl
ATOM     11  C   UNL     1       2.689   7.101  18.973  0.00  0.00    +0.000 A 
ATOM     12  C   UNL     1       3.128   5.849  18.539  0.00  0.00    +0.000 A 
ENDBRANCH   3   6
ENDBRANCH   1   3
BRANCH   1  13
ATOM     13  C   UNL     1       5.189   3.240  16.777  0.00  0.00    +0.000 C 
BRANCH  13  14
ATOM     14  C   UNL     1       5.763   4.478  16.037  0.00  0.00    +0.000 C 
BRANCH  14  15
ATOM     15  C   UNL     1       6.575   5.372  16.967  0.00  0.00    +0.000 A 
ATOM     16  C   UNL     1       6.800   6.720  16.646  0.00  0.00    +0.000 A 
ATOM     17  C   UNL     1       7.550   7.535  17.497  0.00  0.00    +0.000 A 
ATOM     18  C   UNL     1       8.079   7.018  18.680  0.00  0.00    +0.000 A 
ATOM     19  C   UNL     1       7.851   5.689  19.019  0.00  0.00    +0.000 A 
ATOM     20  C   UNL     1       7.104   4.873  18.169  0.00  0.00    +0.000 A 
ENDBRANCH  14  15
BRANCH  14  22
ATOM     21  C   UNL     1       5.886   3.990  13.683  0.00  0.00    +0.000 C 
ATOM     22  O   UNL     1       6.584   4.156  14.904  0.00  0.00    +0.000 OA
ENDBRANCH  14  22
ENDBRANCH  13  14
ENDBRANCH   1  13
TORSDOF 6
ENDMDL
