MODEL 1
REMARK VINA RESULT:      -6.7      0.000      0.000
REMARK  Name = 
REMARK  8 active torsions:
REMARK  status: ('A' for Active; 'I' for Inactive)
REMARK    1  A    between atoms: C_1  and  O_2
REMARK    2  A    between atoms: O_2  and  C_3
REMARK    3  A    between atoms: C_6  and  C_7
REMARK    4  A    between atoms: C_7  and  N_8
REMARK    5  A    between atoms: N_8  and  C_9
REMARK    6  A    between atoms: N_8  and  N_10
REMARK    7  A    between atoms: N_11  and  C_12
REMARK    8  A    between atoms: C_15  and  C_16
REMARK                            x       y       z     vdW  Elec       q    Type
REMARK                         _______ _______ _______ _____ _____    ______ ____
ROOT
ATOM      1  N   UNL     1       2.785   4.225  19.401  0.00  0.00    +0.000 N 
ATOM      2  C   UNL     1       2.417   3.571  20.649  0.00  0.00    +0.000 C 
ENDROOT
BRANCH   1   3
ATOM      3  N   UNL     1       2.320   5.461  19.050  0.00  0.00    +0.000 NA
ATOM      4  N   UNL     1       2.720   6.358  19.814  0.00  0.00    +0.000 NA
BRANCH   4   5
ATOM      5  C   UNL     1       2.054   7.579  19.627  0.00  0.00    +0.000 A 
ATOM      6  C   UNL     1       2.064   8.122  18.336  0.00  0.00    +0.000 A 
ATOM      7  C   UNL     1       1.431   9.335  18.059  0.00  0.00    +0.000 A 
ATOM      8  C   UNL     1       0.767  10.018  19.080  0.00  0.00    +0.000 A 
ATOM      9  C   UNL     1       0.738   9.484  20.371  0.00  0.00    +0.000 A 
ATOM     10  C   UNL     1       1.374   8.268  20.640  0.00  0.00    +0.000 A 
BRANCH   8  11
ATOM     11  C   UNL     1       0.123  11.267  18.804  0.00  0.00    +0.000 C 
ATOM     12  N   UNL     1      -0.394  12.281  18.590  0.00  0.00    +0.000 NA
ENDBRANCH   8  11
ENDBRANCH   4   5
ENDBRANCH   1   3
BRANCH   1  13
ATOM     13  C   UNL     1       3.749   3.593  18.506  0.00  0.00    +0.000 C 
BRANCH  13  17
ATOM     14  C   UNL     1       6.846   6.275  17.070  0.00  0.00    +0.000 A 
ATOM     15  C   UNL     1       6.874   5.820  18.388  0.00  0.00    +0.000 A 
ATOM     16  C   UNL     1       5.907   4.928  18.859  0.00  0.00    +0.000 A 
ATOM     17  C   UNL     1       4.874   4.486  18.024  0.00  0.00    +0.000 A 
ATOM     18  C   UNL     1       4.878   4.917  16.686  0.00  0.00    +0.000 A 
ATOM     19  C   UNL     1       5.851   5.810  16.213  0.00  0.00    +0.000 A 
BRANCH  14  21
ATOM     20  C   UNL     1       7.927   8.315  17.614  0.00  0.00    +0.000 C 
ATOM     21  O   UNL     1       7.815   7.188  16.756  0.00  0.00    +0.000 OA
ENDBRANCH  14  21
ENDBRANCH  13  17
ENDBRANCH   1  13
TORSDOF 6
ENDMDL
MODEL 2
REMARK VINA RESULT:      -6.7      1.260      1.624
REMARK  Name = 
REMARK  8 active torsions:
REMARK  status: ('A' for Active; 'I' for Inactive)
REMARK    1  A    between atoms: C_1  and  O_2
REMARK    2  A    between atoms: O_2  and  C_3
REMARK    3  A    between atoms: C_6  and  C_7
REMARK    4  A    between atoms: C_7  and  N_8
REMARK    5  A    between atoms: N_8  and  C_9
REMARK    6  A    between atoms: N_8  and  N_10
REMARK    7  A    between atoms: N_11  and  C_12
REMARK    8  A    between atoms: C_15  and  C_16
REMARK                            x       y       z     vdW  Elec       q    Type
REMARK                         _______ _______ _______ _____ _____    ______ ____
ROOT
ATOM      1  N   UNL     1       2.876   4.060  18.839  0.00  0.00    +0.000 N 
ATOM      2  C   UNL     1       2.011   2.890  18.873  0.00  0.00    +0.000 C 
ENDROOT
BRANCH   1   3
ATOM      3  N   UNL     1       2.405   5.321  18.599  0.00  0.00    +0.000 NA
ATOM      4  N   UNL     1       2.944   6.179  19.320  0.00  0.00    +0.000 NA
BRANCH   4   5
ATOM      5  C   UNL     1       2.298   7.424  19.271  0.00  0.00    +0.000 A 
ATOM      6  C   UNL     1       2.354   8.126  18.060  0.00  0.00    +0.000 A 
ATOM      7  C   UNL     1       1.743   9.375  17.923  0.00  0.00    +0.000 A 
ATOM      8  C   UNL     1       1.057   9.933  19.002  0.00  0.00    +0.000 A 
ATOM      9  C   UNL     1       0.982   9.239  20.214  0.00  0.00    +0.000 A 
ATOM     10  C   UNL     1       1.595   7.990  20.343  0.00  0.00    +0.000 A 
BRANCH   8  11
ATOM     11  C   UNL     1       0.436  11.216  18.870  0.00  0.00    +0.000 C 
ATOM     12  N   UNL     1      -0.059  12.259  18.768  0.00  0.00    +0.000 NA
ENDBRANCH   8  11
ENDBRANCH   4   5
ENDBRANCH   1   3
BRANCH   1  13
ATOM     13  C   UNL     1       4.296   3.924  19.148  0.00  0.00    +0.000 C 
BRANCH  13  17
ATOM     14  C   UNL     1       6.874   4.808  15.768  0.00  0.00    +0.000 A 
ATOM     15  C   UNL     1       7.280   5.138  17.060  0.00  0.00    +0.000 A 
ATOM     16  C   UNL     1       6.482   4.829  18.164  0.00  0.00    +0.000 A 
ATOM     17  C   UNL     1       5.242   4.199  17.997  0.00  0.00    +0.000 A 
ATOM     18  C   UNL     1       4.860   3.833  16.695  0.00  0.00    +0.000 A 
ATOM     19  C   UNL     1       5.664   4.140  15.588  0.00  0.00    +0.000 A 
BRANCH  14  21
ATOM     20  C   UNL     1       7.317   4.938  13.441  0.00  0.00    +0.000 C 
ATOM     21  O   UNL     1       7.720   5.218  14.775  0.00  0.00    +0.000 OA
ENDBRANCH  14  21
ENDBRANCH  13  17
ENDBRANCH   1  13
TORSDOF 6
ENDMDL
MODEL 3
REMARK VINA RESULT:      -6.6      1.447      2.065
REMARK  Name = 
REMARK  8 active torsions:
REMARK  status: ('A' for Active; 'I' for Inactive)
REMARK    1  A    between atoms: C_1  and  O_2
REMARK    2  A    between atoms: O_2  and  C_3
REMARK    3  A    between atoms: C_6  and  C_7
REMARK    4  A    between atoms: C_7  and  N_8
REMARK    5  A    between atoms: N_8  and  C_9
REMARK    6  A    between atoms: N_8  and  N_10
REMARK    7  A    between atoms: N_11  and  C_12
REMARK    8  A    between atoms: C_15  and  C_16
REMARK                            x       y       z     vdW  Elec       q    Type
REMARK                         _______ _______ _______ _____ _____    ______ ____
ROOT
ATOM      1  N   UNL     1       2.856   3.901  18.246  0.00  0.00    +0.000 N 
ATOM      2  C   UNL     1       1.877   2.826  18.299  0.00  0.00    +0.000 C 
ENDROOT
BRANCH   1   3
ATOM      3  N   UNL     1       2.502   5.219  18.169  0.00  0.00    +0.000 NA
ATOM      4  N   UNL     1       2.862   5.871  19.167  0.00  0.00    +0.000 NA
BRANCH   4   5
ATOM      5  C   UNL     1       2.290   7.151  19.224  0.00  0.00    +0.000 A 
ATOM      6  C   UNL     1       2.251   7.889  18.034  0.00  0.00    +0.000 A 
ATOM      7  C   UNL     1       1.704   9.173  18.000  0.00  0.00    +0.000 A 
ATOM      8  C   UNL     1       1.177   9.732  19.165  0.00  0.00    +0.000 A 
ATOM      9  C   UNL     1       1.197   9.004  20.358  0.00  0.00    +0.000 A 
ATOM     10  C   UNL     1       1.745   7.718  20.384  0.00  0.00    +0.000 A 
BRANCH   8  11
ATOM     11  C   UNL     1       0.622  11.052  19.139  0.00  0.00    +0.000 C 
ATOM     12  N   UNL     1       0.170  12.119  19.127  0.00  0.00    +0.000 NA
ENDBRANCH   8  11
ENDBRANCH   4   5
ENDBRANCH   1   3
BRANCH   1  13
ATOM     13  C   UNL     1       4.278   3.595  18.357  0.00  0.00    +0.000 C 
BRANCH  13  17
ATOM     14  C   UNL     1       6.938   5.167  15.306  0.00  0.00    +0.000 A 
ATOM     15  C   UNL     1       5.883   4.328  14.947  0.00  0.00    +0.000 A 
ATOM     16  C   UNL     1       4.994   3.841  15.909  0.00  0.00    +0.000 A 
ATOM     17  C   UNL     1       5.155   4.166  17.262  0.00  0.00    +0.000 A 
ATOM     18  C   UNL     1       6.196   5.046  17.609  0.00  0.00    +0.000 A 
ATOM     19  C   UNL     1       7.085   5.537  16.641  0.00  0.00    +0.000 A 
BRANCH  14  21
ATOM     20  C   UNL     1       7.488   4.944  13.010  0.00  0.00    +0.000 C 
ATOM     21  O   UNL     1       7.765   5.524  14.277  0.00  0.00    +0.000 OA
ENDBRANCH  14  21
ENDBRANCH  13  17
ENDBRANCH   1  13
TORSDOF 6
ENDMDL
MODEL 4
REMARK VINA RESULT:      -6.5      0.589      1.195
REMARK  Name = 
REMARK  8 active torsions:
REMARK  status: ('A' for Active; 'I' for Inactive)
REMARK    1  A    between atoms: C_1  and  O_2
REMARK    2  A    between atoms: O_2  and  C_3
REMARK    3  A    between atoms: C_6  and  C_7
REMARK    4  A    between atoms: C_7  and  N_8
REMARK    5  A    between atoms: N_8  and  C_9
REMARK    6  A    between atoms: N_8  and  N_10
REMARK    7  A    between atoms: N_11  and  C_12
REMARK    8  A    between atoms: C_15  and  C_16
REMARK                            x       y       z     vdW  Elec       q    Type
REMARK                         _______ _______ _______ _____ _____    ______ ____
ROOT
ATOM      1  N   UNL     1       2.733   3.858  18.753  0.00  0.00    +0.000 N 
ATOM      2  C   UNL     1       2.245   3.037  19.852  0.00  0.00    +0.000 C 
ENDROOT
BRANCH   1   3
ATOM      3  N   UNL     1       2.318   5.145  18.552  0.00  0.00    +0.000 NA
ATOM      4  N   UNL     1       2.889   5.955  19.303  0.00  0.00    +0.000 NA
BRANCH   4   5
ATOM      5  C   UNL     1       2.297   7.228  19.291  0.00  0.00    +0.000 A 
ATOM      6  C   UNL     1       1.762   7.696  20.497  0.00  0.00    +0.000 A 
ATOM      7  C   UNL     1       1.150   8.949  20.576  0.00  0.00    +0.000 A 
ATOM      8  C   UNL     1       1.077   9.757  19.440  0.00  0.00    +0.000 A 
ATOM      9  C   UNL     1       1.617   9.309  18.231  0.00  0.00    +0.000 A 
ATOM     10  C   UNL     1       2.229   8.054  18.161  0.00  0.00    +0.000 A 
BRANCH   8  11
ATOM     11  C   UNL     1       0.443  11.039  19.512  0.00  0.00    +0.000 C 
ATOM     12  N   UNL     1      -0.060  12.080  19.574  0.00  0.00    +0.000 NA
ENDBRANCH   8  11
ENDBRANCH   4   5
ENDBRANCH   1   3
BRANCH   1  13
ATOM     13  C   UNL     1       3.766   3.340  17.862  0.00  0.00    +0.000 C 
BRANCH  13  17
ATOM     14  C   UNL     1       6.899   6.208  16.963  0.00  0.00    +0.000 A 
ATOM     15  C   UNL     1       6.943   5.477  18.149  0.00  0.00    +0.000 A 
ATOM     16  C   UNL     1       5.964   4.522  18.440  0.00  0.00    +0.000 A 
ATOM     17  C   UNL     1       4.902   4.294  17.556  0.00  0.00    +0.000 A 
ATOM     18  C   UNL     1       4.889   5.006  16.344  0.00  0.00    +0.000 A 
ATOM     19  C   UNL     1       5.874   5.961  16.052  0.00  0.00    +0.000 A 
BRANCH  14  21
ATOM     20  C   UNL     1       7.771   8.304  17.648  0.00  0.00    +0.000 C 
ATOM     21  O   UNL     1       7.883   7.148  16.830  0.00  0.00    +0.000 OA
ENDBRANCH  14  21
ENDBRANCH  13  17
ENDBRANCH   1  13
TORSDOF 6
ENDMDL
MODEL 5
REMARK VINA RESULT:      -6.4      1.040      1.989
REMARK  Name = 
REMARK  8 active torsions:
REMARK  status: ('A' for Active; 'I' for Inactive)
REMARK    1  A    between atoms: C_1  and  O_2
REMARK    2  A    between atoms: O_2  and  C_3
REMARK    3  A    between atoms: C_6  and  C_7
REMARK    4  A    between atoms: C_7  and  N_8
REMARK    5  A    between atoms: N_8  and  C_9
REMARK    6  A    between atoms: N_8  and  N_10
REMARK    7  A    between atoms: N_11  and  C_12
REMARK    8  A    between atoms: C_15  and  C_16
REMARK                            x       y       z     vdW  Elec       q    Type
REMARK                         _______ _______ _______ _____ _____    ______ ____
ROOT
ATOM      1  N   UNL     1       2.646   4.168  19.767  0.00  0.00    +0.000 N 
ATOM      2  C   UNL     1       1.602   3.493  20.523  0.00  0.00    +0.000 C 
ENDROOT
BRANCH   1   3
ATOM      3  N   UNL     1       2.541   5.470  19.363  0.00  0.00    +0.000 NA
ATOM      4  N   UNL     1       2.280   6.243  20.302  0.00  0.00    +0.000 NA
BRANCH   4   5
ATOM      5  C   UNL     1       1.918   7.529  19.872  0.00  0.00    +0.000 A 
ATOM      6  C   UNL     1       1.258   8.350  20.795  0.00  0.00    +0.000 A 
ATOM      7  C   UNL     1       0.857   9.642  20.452  0.00  0.00    +0.000 A 
ATOM      8  C   UNL     1       1.122  10.133  19.173  0.00  0.00    +0.000 A 
ATOM      9  C   UNL     1       1.790   9.330  18.244  0.00  0.00    +0.000 A 
ATOM     10  C   UNL     1       2.190   8.038  18.595  0.00  0.00    +0.000 A 
BRANCH   8  11
ATOM     11  C   UNL     1       0.706  11.455  18.812  0.00  0.00    +0.000 C 
ATOM     12  N   UNL     1       0.372  12.522  18.510  0.00  0.00    +0.000 NA
ENDBRANCH   8  11
ENDBRANCH   4   5
ENDBRANCH   1   3
BRANCH   1  13
ATOM     13  C   UNL     1       3.899   3.477  19.481  0.00  0.00    +0.000 C 
BRANCH  13  17
ATOM     14  C   UNL     1       6.486   5.166  16.431  0.00  0.00    +0.000 A 
ATOM     15  C   UNL     1       5.356   4.439  16.061  0.00  0.00    +0.000 A 
ATOM     16  C   UNL     1       4.490   3.918  17.028  0.00  0.00    +0.000 A 
ATOM     17  C   UNL     1       4.751   4.096  18.392  0.00  0.00    +0.000 A 
ATOM     18  C   UNL     1       5.870   4.866  18.754  0.00  0.00    +0.000 A 
ATOM     19  C   UNL     1       6.736   5.391  17.783  0.00  0.00    +0.000 A 
BRANCH  14  21
ATOM     20  C   UNL     1       7.101   4.884  14.158  0.00  0.00    +0.000 C 
ATOM     21  O   UNL     1       7.277   5.569  15.390  0.00  0.00    +0.000 OA
ENDBRANCH  14  21
ENDBRANCH  13  17
ENDBRANCH   1  13
TORSDOF 6
ENDMDL
MODEL 6
REMARK VINA RESULT:      -6.4      4.356      6.865
REMARK  Name = 
REMARK  8 active torsions:
REMARK  status: ('A' for Active; 'I' for Inactive)
REMARK    1  A    between atoms: C_1  and  O_2
REMARK    2  A    between atoms: O_2  and  C_3
REMARK    3  A    between atoms: C_6  and  C_7
REMARK    4  A    between atoms: C_7  and  N_8
REMARK    5  A    between atoms: N_8  and  C_9
REMARK    6  A    between atoms: N_8  and  N_10
REMARK    7  A    between atoms: N_11  and  C_12
REMARK    8  A    between atoms: C_15  and  C_16
REMARK                            x       y       z     vdW  Elec       q    Type
REMARK                         _______ _______ _______ _____ _____    ______ ____
ROOT
ATOM      1  N   UNL     1       6.953   6.996  17.473  0.00  0.00    +0.000 N 
ATOM      2  C   UNL     1       7.501   5.968  18.347  0.00  0.00    +0.000 C 
ENDROOT
BRANCH   1   3
ATOM      3  N   UNL     1       7.476   8.257  17.397  0.00  0.00    +0.000 NA
ATOM      4  N   UNL     1       8.294   8.490  18.305  0.00  0.00    +0.000 NA
BRANCH   4   5
ATOM      5  C   UNL     1       8.643   9.847  18.395  0.00  0.00    +0.000 A 
ATOM      6  C   UNL     1       9.532  10.213  19.414  0.00  0.00    +0.000 A 
ATOM      7  C   UNL     1       9.930  11.541  19.580  0.00  0.00    +0.000 A 
ATOM      8  C   UNL     1       9.446  12.523  18.715  0.00  0.00    +0.000 A 
ATOM      9  C   UNL     1       8.567  12.172  17.686  0.00  0.00    +0.000 A 
ATOM     10  C   UNL     1       8.174  10.840  17.525  0.00  0.00    +0.000 A 
BRANCH   8  11
ATOM     11  C   UNL     1       9.843  13.888  18.885  0.00  0.00    +0.000 C 
ATOM     12  N   UNL     1      10.163  14.994  19.014  0.00  0.00    +0.000 NA
ENDBRANCH   8  11
ENDBRANCH   4   5
ENDBRANCH   1   3
BRANCH   1  13
ATOM     13  C   UNL     1       5.850   6.673  16.574  0.00  0.00    +0.000 C 
BRANCH  13  17
ATOM     14  C   UNL     1       2.370   4.757  18.325  0.00  0.00    +0.000 A 
ATOM     15  C   UNL     1       3.271   4.009  17.569  0.00  0.00    +0.000 A 
ATOM     16  C   UNL     1       4.416   4.599  17.027  0.00  0.00    +0.000 A 
ATOM     17  C   UNL     1       4.675   5.962  17.213  0.00  0.00    +0.000 A 
ATOM     18  C   UNL     1       3.783   6.699  18.012  0.00  0.00    +0.000 A 
ATOM     19  C   UNL     1       2.636   6.105  18.558  0.00  0.00    +0.000 A 
BRANCH  14  21
ATOM     20  C   UNL     1       1.058   4.003  20.151  0.00  0.00    +0.000 C 
ATOM     21  O   UNL     1       1.264   4.072  18.747  0.00  0.00    +0.000 OA
ENDBRANCH  14  21
ENDBRANCH  13  17
ENDBRANCH   1  13
TORSDOF 6
ENDMDL
MODEL 7
REMARK VINA RESULT:      -6.4      1.208      1.746
REMARK  Name = 
REMARK  8 active torsions:
REMARK  status: ('A' for Active; 'I' for Inactive)
REMARK    1  A    between atoms: C_1  and  O_2
REMARK    2  A    between atoms: O_2  and  C_3
REMARK    3  A    between atoms: C_6  and  C_7
REMARK    4  A    between atoms: C_7  and  N_8
REMARK    5  A    between atoms: N_8  and  C_9
REMARK    6  A    between atoms: N_8  and  N_10
REMARK    7  A    between atoms: N_11  and  C_12
REMARK    8  A    between atoms: C_15  and  C_16
REMARK                            x       y       z     vdW  Elec       q    Type
REMARK                         _______ _______ _______ _____ _____    ______ ____
ROOT
ATOM      1  N   UNL     1       2.403   3.660  19.730  0.00  0.00    +0.000 N 
ATOM      2  C   UNL     1       1.592   3.053  20.775  0.00  0.00    +0.000 C 
ENDROOT
BRANCH   1   3
ATOM      3  N   UNL     1       2.263   4.966  19.351  0.00  0.00    +0.000 NA
ATOM      4  N   UNL     1       2.396   5.757  20.302  0.00  0.00    +0.000 NA
BRANCH   4   5
ATOM      5  C   UNL     1       2.005   7.068  19.987  0.00  0.00    +0.000 A 
ATOM      6  C   UNL     1       2.310   7.536  18.703  0.00  0.00    +0.000 A 
ATOM      7  C   UNL     1       1.962   8.828  18.305  0.00  0.00    +0.000 A 
ATOM      8  C   UNL     1       1.291   9.669  19.194  0.00  0.00    +0.000 A 
ATOM      9  C   UNL     1       0.969   9.213  20.476  0.00  0.00    +0.000 A 
ATOM     10  C   UNL     1       1.319   7.918  20.866  0.00  0.00    +0.000 A 
BRANCH   8  11
ATOM     11  C   UNL     1       0.939  10.999  18.796  0.00  0.00    +0.000 C 
ATOM     12  N   UNL     1       0.651  12.071  18.464  0.00  0.00    +0.000 NA
ENDBRANCH   8  11
ENDBRANCH   4   5
ENDBRANCH   1   3
BRANCH   1  13
ATOM     13  C   UNL     1       3.470   2.891  19.098  0.00  0.00    +0.000 C 
BRANCH  13  17
ATOM     14  C   UNL     1       6.281   5.055  16.596  0.00  0.00    +0.000 A 
ATOM     15  C   UNL     1       5.156   4.460  16.027  0.00  0.00    +0.000 A 
ATOM     16  C   UNL     1       4.220   3.790  16.820  0.00  0.00    +0.000 A 
ATOM     17  C   UNL     1       4.402   3.681  18.204  0.00  0.00    +0.000 A 
ATOM     18  C   UNL     1       5.517   4.320  18.774  0.00  0.00    +0.000 A 
ATOM     19  C   UNL     1       6.454   4.995  17.977  0.00  0.00    +0.000 A 
BRANCH  14  21
ATOM     20  C   UNL     1       7.157   5.077  14.392  0.00  0.00    +0.000 C 
ATOM     21  O   UNL     1       7.144   5.627  15.702  0.00  0.00    +0.000 OA
ENDBRANCH  14  21
ENDBRANCH  13  17
ENDBRANCH   1  13
TORSDOF 6
ENDMDL
MODEL 8
REMARK VINA RESULT:      -6.3      4.302      7.766
REMARK  Name = 
REMARK  8 active torsions:
REMARK  status: ('A' for Active; 'I' for Inactive)
REMARK    1  A    between atoms: C_1  and  O_2
REMARK    2  A    between atoms: O_2  and  C_3
REMARK    3  A    between atoms: C_6  and  C_7
REMARK    4  A    between atoms: C_7  and  N_8
REMARK    5  A    between atoms: N_8  and  C_9
REMARK    6  A    between atoms: N_8  and  N_10
REMARK    7  A    between atoms: N_11  and  C_12
REMARK    8  A    between atoms: C_15  and  C_16
REMARK                            x       y       z     vdW  Elec       q    Type
REMARK                         _______ _______ _______ _____ _____    ______ ____
ROOT
ATOM      1  N   UNL     1       7.227   6.433  17.677  0.00  0.00    +0.000 N 
ATOM      2  C   UNL     1       7.757   7.788  17.696  0.00  0.00    +0.000 C 
ENDROOT
BRANCH   1   3
ATOM      3  N   UNL     1       7.307   5.624  16.578  0.00  0.00    +0.000 NA
ATOM      4  N   UNL     1       6.653   6.061  15.614  0.00  0.00    +0.000 NA
BRANCH   4   5
ATOM      5  C   UNL     1       6.515   5.127  14.574  0.00  0.00    +0.000 A 
ATOM      6  C   UNL     1       5.392   4.291  14.611  0.00  0.00    +0.000 A 
ATOM      7  C   UNL     1       5.177   3.330  13.621  0.00  0.00    +0.000 A 
ATOM      8  C   UNL     1       6.087   3.202  12.570  0.00  0.00    +0.000 A 
ATOM      9  C   UNL     1       7.206   4.038  12.513  0.00  0.00    +0.000 A 
ATOM     10  C   UNL     1       7.414   4.998  13.507  0.00  0.00    +0.000 A 
BRANCH   8  11
ATOM     11  C   UNL     1       5.877   2.213  11.556  0.00  0.00    +0.000 C 
ATOM     12  N   UNL     1       5.714   1.408  10.740  0.00  0.00    +0.000 NA
ENDBRANCH   8  11
ENDBRANCH   4   5
ENDBRANCH   1   3
BRANCH   1  13
ATOM     13  C   UNL     1       6.651   5.860  18.889  0.00  0.00    +0.000 C 
BRANCH  13  17
ATOM     14  C   UNL     1       2.652   4.186  18.643  0.00  0.00    +0.000 A 
ATOM     15  C   UNL     1       2.897   5.477  18.178  0.00  0.00    +0.000 A 
ATOM     16  C   UNL     1       4.184   6.021  18.214  0.00  0.00    +0.000 A 
ATOM     17  C   UNL     1       5.256   5.289  18.741  0.00  0.00    +0.000 A 
ATOM     18  C   UNL     1       5.007   3.973  19.169  0.00  0.00    +0.000 A 
ATOM     19  C   UNL     1       3.716   3.427  19.128  0.00  0.00    +0.000 A 
BRANCH  14  21
ATOM     20  C   UNL     1       1.086   2.409  18.754  0.00  0.00    +0.000 C 
ATOM     21  O   UNL     1       1.341   3.799  18.604  0.00  0.00    +0.000 OA
ENDBRANCH  14  21
ENDBRANCH  13  17
ENDBRANCH   1  13
TORSDOF 6
ENDMDL
MODEL 9
REMARK VINA RESULT:      -6.3      4.450      6.838
REMARK  Name = 
REMARK  8 active torsions:
REMARK  status: ('A' for Active; 'I' for Inactive)
REMARK    1  A    between atoms: C_1  and  O_2
REMARK    2  A    between atoms: O_2  and  C_3
REMARK    3  A    between atoms: C_6  and  C_7
REMARK    4  A    between atoms: C_7  and  N_8
REMARK    5  A    between atoms: N_8  and  C_9
REMARK    6  A    between atoms: N_8  and  N_10
REMARK    7  A    between atoms: N_11  and  C_12
REMARK    8  A    between atoms: C_15  and  C_16
REMARK                            x       y       z     vdW  Elec       q    Type
REMARK                         _______ _______ _______ _____ _____    ______ ____
ROOT
ATOM      1  N   UNL     1       7.203   7.145  17.683  0.00  0.00    +0.000 N 
ATOM      2  C   UNL     1       7.683   6.120  18.599  0.00  0.00    +0.000 C 
ENDROOT
BRANCH   1   3
ATOM      3  N   UNL     1       7.664   8.432  17.708  0.00  0.00    +0.000 NA
ATOM      4  N   UNL     1       8.603   8.588  18.510  0.00  0.00    +0.000 NA
BRANCH   4   5
ATOM      5  C   UNL     1       8.914   9.938  18.737  0.00  0.00    +0.000 A 
ATOM      6  C   UNL     1       8.579  10.850  17.729  0.00  0.00    +0.000 A 
ATOM      7  C   UNL     1       8.856  12.212  17.868  0.00  0.00    +0.000 A 
ATOM      8  C   UNL     1       9.467  12.679  19.032  0.00  0.00    +0.000 A 
ATOM      9  C   UNL     1       9.796  11.783  20.053  0.00  0.00    +0.000 A 
ATOM     10  C   UNL     1       9.515  10.421  19.907  0.00  0.00    +0.000 A 
BRANCH   8  11
ATOM     11  C   UNL     1       9.761  14.073  19.178  0.00  0.00    +0.000 C 
ATOM     12  N   UNL     1      10.002  15.201  19.286  0.00  0.00    +0.000 NA
ENDBRANCH   8  11
ENDBRANCH   4   5
ENDBRANCH   1   3
BRANCH   1  13
ATOM     13  C   UNL     1       6.251   6.795  16.635  0.00  0.00    +0.000 C 
BRANCH  13  17
ATOM     14  C   UNL     1       2.660   4.853  18.113  0.00  0.00    +0.000 A 
ATOM     15  C   UNL     1       2.775   6.241  18.170  0.00  0.00    +0.000 A 
ATOM     16  C   UNL     1       3.907   6.888  17.666  0.00  0.00    +0.000 A 
ATOM     17  C   UNL     1       4.963   6.155  17.112  0.00  0.00    +0.000 A 
ATOM     18  C   UNL     1       4.820   4.759  17.021  0.00  0.00    +0.000 A 
ATOM     19  C   UNL     1       3.682   4.111  17.523  0.00  0.00    +0.000 A 
BRANCH  14  21
ATOM     20  C   UNL     1       1.226   2.987  18.406  0.00  0.00    +0.000 C 
ATOM     21  O   UNL     1       1.530   4.345  18.692  0.00  0.00    +0.000 OA
ENDBRANCH  14  21
ENDBRANCH  13  17
ENDBRANCH   1  13
TORSDOF 6
ENDMDL
