MODEL 1
REMARK VINA RESULT:      -7.9      0.000      0.000
REMARK  Name = 
REMARK  8 active torsions:
REMARK  status: ('A' for Active; 'I' for Inactive)
REMARK    1  A    between atoms: C_1  and  O_2
REMARK    2  A    between atoms: O_2  and  C_3
REMARK    3  A    between atoms: C_12  and  O_13
REMARK    4  A    between atoms: O_13  and  C_14
REMARK    5  A    between atoms: C_21  and  O_22
REMARK    6  A    between atoms: O_22  and  C_23
REMARK    7  A    between atoms: C_24  and  O_25
REMARK    8  A    between atoms: O_25  and  C_26
REMARK                            x       y       z     vdW  Elec       q    Type
REMARK                         _______ _______ _______ _____ _____    ______ ____
ROOT
ATOM      1  C   UNL     1       3.156   4.199  19.741  0.00  0.00    +0.000 A 
ATOM      2  C   UNL     1       2.468   5.135  20.520  0.00  0.00    +0.000 A 
ATOM      3  C   UNL     1       2.160   6.396  20.012  0.00  0.00    +0.000 A 
ATOM      4  C   UNL     1       1.433   7.294  20.789  0.00  0.00    +0.000 A 
ATOM      5  C   UNL     1       1.140   8.576  20.302  0.00  0.00    +0.000 A 
ATOM      6  N   UNL     1       1.570   8.919  19.058  0.00  0.00    +0.000 N 
ATOM      7  C   UNL     1       2.265   8.046  18.283  0.00  0.00    +0.000 A 
ATOM      8  C   UNL     1       2.575   6.758  18.733  0.00  0.00    +0.000 A 
ATOM      9  C   UNL     1       3.291   5.828  17.953  0.00  0.00    +0.000 A 
ATOM     10  C   UNL     1       3.582   4.548  18.446  0.00  0.00    +0.000 A 
ATOM     11  C   UNL     1       1.360  10.294  18.544  0.00  0.00    +0.000 C 
ATOM     12  C   UNL     1      -0.024  10.787  18.912  0.00  0.00    +0.000 C 
ATOM     13  C   UNL     1      -0.227  10.672  20.404  0.00  0.00    +0.000 A 
ATOM     14  C   UNL     1       0.360   9.569  21.058  0.00  0.00    +0.000 A 
ATOM     15  C   UNL     1       0.146   9.451  22.441  0.00  0.00    +0.000 A 
ATOM     16  C   UNL     1      -0.640  10.370  23.139  0.00  0.00    +0.000 A 
ATOM     17  C   UNL     1      -1.238  11.451  22.490  0.00  0.00    +0.000 A 
ATOM     18  C   UNL     1      -1.027  11.608  21.106  0.00  0.00    +0.000 A 
ENDROOT
BRANCH   1  20
ATOM     19  C   UNL     1       2.762   2.557  21.400  0.00  0.00    +0.000 C 
ATOM     20  O   UNL     1       3.462   2.947  20.216  0.00  0.00    +0.000 OA
ENDBRANCH   1  20
BRANCH  10  21
ATOM     21  O   UNL     1       4.262   3.589  17.742  0.00  0.00    +0.000 OA
ATOM     22  C   UNL     1       5.057   4.012  16.637  0.00  0.00    +0.000 C 
ENDBRANCH  10  21
BRANCH  17  23
ATOM     23  O   UNL     1      -2.016  12.362  23.145  0.00  0.00    +0.000 OA
ATOM     24  C   UNL     1      -1.446  13.612  23.516  0.00  0.00    +0.000 C 
ENDBRANCH  17  23
BRANCH  18  25
ATOM     25  O   UNL     1      -1.521  12.600  20.298  0.00  0.00    +0.000 OA
ATOM     26  C   UNL     1      -2.904  12.618  19.968  0.00  0.00    +0.000 C 
ENDBRANCH  18  25
TORSDOF 4
ENDMDL
MODEL 2
REMARK VINA RESULT:      -7.6      1.411      8.676
REMARK  Name = 
REMARK  8 active torsions:
REMARK  status: ('A' for Active; 'I' for Inactive)
REMARK    1  A    between atoms: C_1  and  O_2
REMARK    2  A    between atoms: O_2  and  C_3
REMARK    3  A    between atoms: C_12  and  O_13
REMARK    4  A    between atoms: O_13  and  C_14
REMARK    5  A    between atoms: C_21  and  O_22
REMARK    6  A    between atoms: O_22  and  C_23
REMARK    7  A    between atoms: C_24  and  O_25
REMARK    8  A    between atoms: O_25  and  C_26
REMARK                            x       y       z     vdW  Elec       q    Type
REMARK                         _______ _______ _______ _____ _____    ______ ____
ROOT
ATOM      1  C   UNL     1       0.087  11.604  19.346  0.00  0.00    +0.000 A 
ATOM      2  C   UNL     1       0.958  10.757  18.653  0.00  0.00    +0.000 A 
ATOM      3  C   UNL     1       1.276   9.497  19.156  0.00  0.00    +0.000 A 
ATOM      4  C   UNL     1       2.108   8.652  18.424  0.00  0.00    +0.000 A 
ATOM      5  C   UNL     1       2.459   7.393  18.930  0.00  0.00    +0.000 A 
ATOM      6  N   UNL     1       1.966   7.011  20.138  0.00  0.00    +0.000 N 
ATOM      7  C   UNL     1       1.140   7.818  20.854  0.00  0.00    +0.000 A 
ATOM      8  C   UNL     1       0.765   9.080  20.381  0.00  0.00    +0.000 A 
ATOM      9  C   UNL     1      -0.093   9.940  21.097  0.00  0.00    +0.000 A 
ATOM     10  C   UNL     1      -0.439  11.199  20.587  0.00  0.00    +0.000 A 
ATOM     11  C   UNL     1       2.386   5.726  20.748  0.00  0.00    +0.000 C 
ATOM     12  C   UNL     1       2.444   4.638  19.696  0.00  0.00    +0.000 C 
ATOM     13  C   UNL     1       3.333   5.076  18.557  0.00  0.00    +0.000 A 
ATOM     14  C   UNL     1       3.316   6.441  18.204  0.00  0.00    +0.000 A 
ATOM     15  C   UNL     1       4.124   6.838  17.127  0.00  0.00    +0.000 A 
ATOM     16  C   UNL     1       4.893   5.918  16.412  0.00  0.00    +0.000 A 
ATOM     17  C   UNL     1       4.896   4.563  16.746  0.00  0.00    +0.000 A 
ATOM     18  C   UNL     1       4.110   4.135  17.834  0.00  0.00    +0.000 A 
ENDROOT
BRANCH   1  20
ATOM     19  C   UNL     1       0.814  13.802  18.853  0.00  0.00    +0.000 C 
ATOM     20  O   UNL     1      -0.249  12.846  18.867  0.00  0.00    +0.000 OA
ENDBRANCH   1  20
BRANCH  10  21
ATOM     21  O   UNL     1      -1.275  12.081  21.220  0.00  0.00    +0.000 OA
ATOM     22  C   UNL     1      -1.195  12.174  22.639  0.00  0.00    +0.000 C 
ENDBRANCH  10  21
BRANCH  17  23
ATOM     23  O   UNL     1       5.632   3.639  16.063  0.00  0.00    +0.000 OA
ATOM     24  C   UNL     1       6.345   4.050  14.902  0.00  0.00    +0.000 C 
ENDBRANCH  17  23
BRANCH  18  25
ATOM     25  O   UNL     1       3.985   2.857  18.317  0.00  0.00    +0.000 OA
ATOM     26  C   UNL     1       3.042   1.970  17.730  0.00  0.00    +0.000 C 
ENDBRANCH  18  25
TORSDOF 4
ENDMDL
MODEL 3
REMARK VINA RESULT:      -7.6      1.159      8.119
REMARK  Name = 
REMARK  8 active torsions:
REMARK  status: ('A' for Active; 'I' for Inactive)
REMARK    1  A    between atoms: C_1  and  O_2
REMARK    2  A    between atoms: O_2  and  C_3
REMARK    3  A    between atoms: C_12  and  O_13
REMARK    4  A    between atoms: O_13  and  C_14
REMARK    5  A    between atoms: C_21  and  O_22
REMARK    6  A    between atoms: O_22  and  C_23
REMARK    7  A    between atoms: C_24  and  O_25
REMARK    8  A    between atoms: O_25  and  C_26
REMARK                            x       y       z     vdW  Elec       q    Type
REMARK                         _______ _______ _______ _____ _____    ______ ____
ROOT
ATOM      1  C   UNL     1      -0.495  11.539  22.235  0.00  0.00    +0.000 A 
ATOM      2  C   UNL     1      -0.066  10.209  22.174  0.00  0.00    +0.000 A 
ATOM      3  C   UNL     1       0.588   9.723  21.043  0.00  0.00    +0.000 A 
ATOM      4  C   UNL     1       1.048   8.408  21.024  0.00  0.00    +0.000 A 
ATOM      5  C   UNL     1       1.682   7.897  19.884  0.00  0.00    +0.000 A 
ATOM      6  N   UNL     1       1.847   8.709  18.806  0.00  0.00    +0.000 N 
ATOM      7  C   UNL     1       1.418   9.998  18.817  0.00  0.00    +0.000 A 
ATOM      8  C   UNL     1       0.783  10.545  19.937  0.00  0.00    +0.000 A 
ATOM      9  C   UNL     1       0.331  11.879  19.983  0.00  0.00    +0.000 A 
ATOM     10  C   UNL     1      -0.305  12.385  21.126  0.00  0.00    +0.000 A 
ATOM     11  C   UNL     1       2.431   8.179  17.549  0.00  0.00    +0.000 C 
ATOM     12  C   UNL     1       3.596   7.262  17.856  0.00  0.00    +0.000 C 
ATOM     13  C   UNL     1       3.155   6.178  18.812  0.00  0.00    +0.000 A 
ATOM     14  C   UNL     1       2.211   6.525  19.800  0.00  0.00    +0.000 A 
ATOM     15  C   UNL     1       1.825   5.522  20.703  0.00  0.00    +0.000 A 
ATOM     16  C   UNL     1       2.372   4.239  20.646  0.00  0.00    +0.000 A 
ATOM     17  C   UNL     1       3.321   3.899  19.682  0.00  0.00    +0.000 A 
ATOM     18  C   UNL     1       3.717   4.878  18.750  0.00  0.00    +0.000 A 
ENDROOT
BRANCH   1  20
ATOM     19  C   UNL     1      -2.545  11.832  23.380  0.00  0.00    +0.000 C 
ATOM     20  O   UNL     1      -1.132  12.045  23.341  0.00  0.00    +0.000 OA
ENDBRANCH   1  20
BRANCH  10  21
ATOM     21  O   UNL     1      -0.760  13.672  21.247  0.00  0.00    +0.000 OA
ATOM     22  C   UNL     1      -1.870  14.064  20.443  0.00  0.00    +0.000 C 
ENDBRANCH  10  21
BRANCH  17  23
ATOM     23  O   UNL     1       3.879   2.655  19.606  0.00  0.00    +0.000 OA
ATOM     24  C   UNL     1       3.326   1.708  18.699  0.00  0.00    +0.000 C 
ENDBRANCH  17  23
BRANCH  18  25
ATOM     25  O   UNL     1       4.625   4.737  17.732  0.00  0.00    +0.000 OA
ATOM     26  C   UNL     1       6.012   4.646  18.031  0.00  0.00    +0.000 C 
ENDBRANCH  18  25
TORSDOF 4
ENDMDL
MODEL 4
REMARK VINA RESULT:      -7.1      1.454      1.941
REMARK  Name = 
REMARK  8 active torsions:
REMARK  status: ('A' for Active; 'I' for Inactive)
REMARK    1  A    between atoms: C_1  and  O_2
REMARK    2  A    between atoms: O_2  and  C_3
REMARK    3  A    between atoms: C_12  and  O_13
REMARK    4  A    between atoms: O_13  and  C_14
REMARK    5  A    between atoms: C_21  and  O_22
REMARK    6  A    between atoms: O_22  and  C_23
REMARK    7  A    between atoms: C_24  and  O_25
REMARK    8  A    between atoms: O_25  and  C_26
REMARK                            x       y       z     vdW  Elec       q    Type
REMARK                         _______ _______ _______ _____ _____    ______ ____
ROOT
ATOM      1  C   UNL     1       2.916   6.136  19.515  0.00  0.00    +0.000 A 
ATOM      2  C   UNL     1       2.122   6.906  20.372  0.00  0.00    +0.000 A 
ATOM      3  C   UNL     1       1.592   8.123  19.950  0.00  0.00    +0.000 A 
ATOM      4  C   UNL     1       0.766   8.849  20.805  0.00  0.00    +0.000 A 
ATOM      5  C   UNL     1       0.247  10.089  20.405  0.00  0.00    +0.000 A 
ATOM      6  N   UNL     1       0.558  10.560  19.168  0.00  0.00    +0.000 N 
ATOM      7  C   UNL     1       1.348   9.855  18.318  0.00  0.00    +0.000 A 
ATOM      8  C   UNL     1       1.882   8.614  18.680  0.00  0.00    +0.000 A 
ATOM      9  C   UNL     1       2.702   7.854  17.821  0.00  0.00    +0.000 A 
ATOM     10  C   UNL     1       3.219   6.616  18.227  0.00  0.00    +0.000 A 
ATOM     11  C   UNL     1       0.104  11.907  18.742  0.00  0.00    +0.000 C 
ATOM     12  C   UNL     1      -1.323  12.147  19.191  0.00  0.00    +0.000 C 
ATOM     13  C   UNL     1      -1.434  11.924  20.680  0.00  0.00    +0.000 A 
ATOM     14  C   UNL     1      -0.647  10.900  21.246  0.00  0.00    +0.000 A 
ATOM     15  C   UNL     1      -0.774  10.678  22.627  0.00  0.00    +0.000 A 
ATOM     16  C   UNL     1      -1.664  11.419  23.407  0.00  0.00    +0.000 A 
ATOM     17  C   UNL     1      -2.459  12.419  22.845  0.00  0.00    +0.000 A 
ATOM     18  C   UNL     1      -2.342  12.679  21.465  0.00  0.00    +0.000 A 
ENDROOT
BRANCH   1  20
ATOM     19  C   UNL     1       2.514   4.029  20.514  0.00  0.00    +0.000 C 
ATOM     20  O   UNL     1       3.442   4.929  19.904  0.00  0.00    +0.000 OA
ENDBRANCH   1  20
BRANCH  10  21
ATOM     21  O   UNL     1       4.012   5.819  17.443  0.00  0.00    +0.000 OA
ATOM     22  C   UNL     1       5.021   6.449  16.659  0.00  0.00    +0.000 C 
ENDBRANCH  10  21
BRANCH  17  23
ATOM     23  O   UNL     1      -3.343  13.156  23.580  0.00  0.00    +0.000 OA
ATOM     24  C   UNL     1      -4.182  12.489  24.515  0.00  0.00    +0.000 C 
ENDBRANCH  17  23
BRANCH  18  25
ATOM     25  O   UNL     1      -3.027  13.616  20.735  0.00  0.00    +0.000 OA
ATOM     26  C   UNL     1      -4.397  13.404  20.423  0.00  0.00    +0.000 C 
ENDBRANCH  18  25
TORSDOF 4
ENDMDL
MODEL 5
REMARK VINA RESULT:      -7.1      1.313      8.088
REMARK  Name = 
REMARK  8 active torsions:
REMARK  status: ('A' for Active; 'I' for Inactive)
REMARK    1  A    between atoms: C_1  and  O_2
REMARK    2  A    between atoms: O_2  and  C_3
REMARK    3  A    between atoms: C_12  and  O_13
REMARK    4  A    between atoms: O_13  and  C_14
REMARK    5  A    between atoms: C_21  and  O_22
REMARK    6  A    between atoms: O_22  and  C_23
REMARK    7  A    between atoms: C_24  and  O_25
REMARK    8  A    between atoms: O_25  and  C_26
REMARK                            x       y       z     vdW  Elec       q    Type
REMARK                         _______ _______ _______ _____ _____    ______ ____
ROOT
ATOM      1  C   UNL     1      -0.399  11.443  21.130  0.00  0.00    +0.000 A 
ATOM      2  C   UNL     1       0.049  10.121  21.211  0.00  0.00    +0.000 A 
ATOM      3  C   UNL     1       0.836   9.572  20.200  0.00  0.00    +0.000 A 
ATOM      4  C   UNL     1       1.310   8.269  20.326  0.00  0.00    +0.000 A 
ATOM      5  C   UNL     1       2.080   7.694  19.305  0.00  0.00    +0.000 A 
ATOM      6  N   UNL     1       2.360   8.435  18.199  0.00  0.00    +0.000 N 
ATOM      7  C   UNL     1       1.918   9.713  18.072  0.00  0.00    +0.000 A 
ATOM      8  C   UNL     1       1.150  10.321  19.070  0.00  0.00    +0.000 A 
ATOM      9  C   UNL     1       0.680  11.647  18.971  0.00  0.00    +0.000 A 
ATOM     10  C   UNL     1      -0.091  12.216  19.994  0.00  0.00    +0.000 A 
ATOM     11  C   UNL     1       3.093   7.833  17.058  0.00  0.00    +0.000 C 
ATOM     12  C   UNL     1       4.225   6.962  17.561  0.00  0.00    +0.000 C 
ATOM     13  C   UNL     1       3.687   5.936  18.532  0.00  0.00    +0.000 A 
ATOM     14  C   UNL     1       2.630   6.331  19.377  0.00  0.00    +0.000 A 
ATOM     15  C   UNL     1       2.153   5.383  20.296  0.00  0.00    +0.000 A 
ATOM     16  C   UNL     1       2.718   4.110  20.393  0.00  0.00    +0.000 A 
ATOM     17  C   UNL     1       3.777   3.724  19.571  0.00  0.00    +0.000 A 
ATOM     18  C   UNL     1       4.268   4.646  18.626  0.00  0.00    +0.000 A 
ENDROOT
BRANCH   1  20
ATOM     19  C   UNL     1      -1.485  11.146  23.211  0.00  0.00    +0.000 C 
ATOM     20  O   UNL     1      -1.167  12.009  22.117  0.00  0.00    +0.000 OA
ENDBRANCH   1  20
BRANCH  10  21
ATOM     21  O   UNL     1      -0.572  13.499  19.973  0.00  0.00    +0.000 OA
ATOM     22  C   UNL     1      -0.194  14.333  18.881  0.00  0.00    +0.000 C 
ENDBRANCH  10  21
BRANCH  17  23
ATOM     23  O   UNL     1       4.354   2.489  19.646  0.00  0.00    +0.000 OA
ATOM     24  C   UNL     1       3.770   1.413  18.922  0.00  0.00    +0.000 C 
ENDBRANCH  17  23
BRANCH  18  25
ATOM     25  O   UNL     1       5.291   4.455  17.732  0.00  0.00    +0.000 OA
ATOM     26  C   UNL     1       5.023   3.857  16.470  0.00  0.00    +0.000 C 
ENDBRANCH  18  25
TORSDOF 4
ENDMDL
MODEL 6
REMARK VINA RESULT:      -7.0      1.500      3.178
REMARK  Name = 
REMARK  8 active torsions:
REMARK  status: ('A' for Active; 'I' for Inactive)
REMARK    1  A    between atoms: C_1  and  O_2
REMARK    2  A    between atoms: O_2  and  C_3
REMARK    3  A    between atoms: C_12  and  O_13
REMARK    4  A    between atoms: O_13  and  C_14
REMARK    5  A    between atoms: C_21  and  O_22
REMARK    6  A    between atoms: O_22  and  C_23
REMARK    7  A    between atoms: C_24  and  O_25
REMARK    8  A    between atoms: O_25  and  C_26
REMARK                            x       y       z     vdW  Elec       q    Type
REMARK                         _______ _______ _______ _____ _____    ______ ____
ROOT
ATOM      1  C   UNL     1       3.938   5.082  17.670  0.00  0.00    +0.000 A 
ATOM      2  C   UNL     1       3.440   6.390  17.653  0.00  0.00    +0.000 A 
ATOM      3  C   UNL     1       2.688   6.879  18.719  0.00  0.00    +0.000 A 
ATOM      4  C   UNL     1       2.243   8.199  18.702  0.00  0.00    +0.000 A 
ATOM      5  C   UNL     1       1.462   8.697  19.754  0.00  0.00    +0.000 A 
ATOM      6  N   UNL     1       1.157   7.872  20.791  0.00  0.00    +0.000 N 
ATOM      7  C   UNL     1       1.598   6.588  20.829  0.00  0.00    +0.000 A 
ATOM      8  C   UNL     1       2.381   6.056  19.799  0.00  0.00    +0.000 A 
ATOM      9  C   UNL     1       2.859   4.729  19.810  0.00  0.00    +0.000 A 
ATOM     10  C   UNL     1       3.638   4.236  18.754  0.00  0.00    +0.000 A 
ATOM     11  C   UNL     1       0.258   8.333  21.877  0.00  0.00    +0.000 C 
ATOM     12  C   UNL     1       0.582   9.762  22.257  0.00  0.00    +0.000 C 
ATOM     13  C   UNL     1       0.533  10.641  21.029  0.00  0.00    +0.000 A 
ATOM     14  C   UNL     1       0.975  10.085  19.812  0.00  0.00    +0.000 A 
ATOM     15  C   UNL     1       0.952  10.914  18.679  0.00  0.00    +0.000 A 
ATOM     16  C   UNL     1       0.538  12.245  18.756  0.00  0.00    +0.000 A 
ATOM     17  C   UNL     1       0.119  12.803  19.964  0.00  0.00    +0.000 A 
ATOM     18  C   UNL     1       0.113  11.992  21.116  0.00  0.00    +0.000 A 
ENDROOT
BRANCH   1  20
ATOM     19  C   UNL     1       5.339   5.561  15.824  0.00  0.00    +0.000 C 
ATOM     20  O   UNL     1       4.690   4.581  16.637  0.00  0.00    +0.000 OA
ENDBRANCH   1  20
BRANCH  10  21
ATOM     21  O   UNL     1       4.146   2.964  18.702  0.00  0.00    +0.000 OA
ATOM     22  C   UNL     1       4.356   2.280  19.934  0.00  0.00    +0.000 C 
ENDBRANCH  10  21
BRANCH  17  23
ATOM     23  O   UNL     1      -0.286  14.103  20.072  0.00  0.00    +0.000 OA
ATOM     24  C   UNL     1       0.396  15.100  19.320  0.00  0.00    +0.000 C 
ENDBRANCH  17  23
BRANCH  18  25
ATOM     25  O   UNL     1      -0.266  12.353  22.384  0.00  0.00    +0.000 OA
ATOM     26  C   UNL     1      -1.647  12.421  22.716  0.00  0.00    +0.000 C 
ENDBRANCH  18  25
TORSDOF 4
ENDMDL
MODEL 7
REMARK VINA RESULT:      -6.9      1.524      3.159
REMARK  Name = 
REMARK  8 active torsions:
REMARK  status: ('A' for Active; 'I' for Inactive)
REMARK    1  A    between atoms: C_1  and  O_2
REMARK    2  A    between atoms: O_2  and  C_3
REMARK    3  A    between atoms: C_12  and  O_13
REMARK    4  A    between atoms: O_13  and  C_14
REMARK    5  A    between atoms: C_21  and  O_22
REMARK    6  A    between atoms: O_22  and  C_23
REMARK    7  A    between atoms: C_24  and  O_25
REMARK    8  A    between atoms: O_25  and  C_26
REMARK                            x       y       z     vdW  Elec       q    Type
REMARK                         _______ _______ _______ _____ _____    ______ ____
ROOT
ATOM      1  C   UNL     1       3.860   6.433  17.658  0.00  0.00    +0.000 A 
ATOM      2  C   UNL     1       3.099   7.606  17.697  0.00  0.00    +0.000 A 
ATOM      3  C   UNL     1       2.299   7.898  18.801  0.00  0.00    +0.000 A 
ATOM      4  C   UNL     1       1.587   9.095  18.838  0.00  0.00    +0.000 A 
ATOM      5  C   UNL     1       0.757   9.390  19.928  0.00  0.00    +0.000 A 
ATOM      6  N   UNL     1       0.669   8.494  20.947  0.00  0.00    +0.000 N 
ATOM      7  C   UNL     1       1.371   7.332  20.931  0.00  0.00    +0.000 A 
ATOM      8  C   UNL     1       2.211   7.002  19.862  0.00  0.00    +0.000 A 
ATOM      9  C   UNL     1       2.957   5.807  19.816  0.00  0.00    +0.000 A 
ATOM     10  C   UNL     1       3.784   5.515  18.723  0.00  0.00    +0.000 A 
ATOM     11  C   UNL     1      -0.267   8.728  22.074  0.00  0.00    +0.000 C 
ATOM     12  C   UNL     1      -0.236  10.184  22.490  0.00  0.00    +0.000 C 
ATOM     13  C   UNL     1      -0.513  11.062  21.293  0.00  0.00    +0.000 A 
ATOM     14  C   UNL     1      -0.008  10.642  20.045  0.00  0.00    +0.000 A 
ATOM     15  C   UNL     1      -0.245  11.476  18.941  0.00  0.00    +0.000 A 
ATOM     16  C   UNL     1      -0.927  12.687  19.072  0.00  0.00    +0.000 A 
ATOM     17  C   UNL     1      -1.410  13.115  20.309  0.00  0.00    +0.000 A 
ATOM     18  C   UNL     1      -1.205  12.292  21.434  0.00  0.00    +0.000 A 
ENDROOT
BRANCH   1  20
ATOM     19  C   UNL     1       5.993   6.646  16.655  0.00  0.00    +0.000 C 
ATOM     20  O   UNL     1       4.663   6.127  16.587  0.00  0.00    +0.000 OA
ENDBRANCH   1  20
BRANCH  10  21
ATOM     21  O   UNL     1       4.545   4.381  18.615  0.00  0.00    +0.000 OA
ATOM     22  C   UNL     1       4.279   3.312  19.519  0.00  0.00    +0.000 C 
ENDBRANCH  10  21
BRANCH  17  23
ATOM     23  O   UNL     1      -2.074  14.297  20.471  0.00  0.00    +0.000 OA
ATOM     24  C   UNL     1      -1.320  15.491  20.639  0.00  0.00    +0.000 C 
ENDBRANCH  17  23
BRANCH  18  25
ATOM     25  O   UNL     1      -1.605  12.534  22.724  0.00  0.00    +0.000 OA
ATOM     26  C   UNL     1      -2.967  12.349  23.087  0.00  0.00    +0.000 C 
ENDBRANCH  18  25
TORSDOF 4
ENDMDL
MODEL 8
REMARK VINA RESULT:      -6.8      1.172      1.355
REMARK  Name = 
REMARK  8 active torsions:
REMARK  status: ('A' for Active; 'I' for Inactive)
REMARK    1  A    between atoms: C_1  and  O_2
REMARK    2  A    between atoms: O_2  and  C_3
REMARK    3  A    between atoms: C_12  and  O_13
REMARK    4  A    between atoms: O_13  and  C_14
REMARK    5  A    between atoms: C_21  and  O_22
REMARK    6  A    between atoms: O_22  and  C_23
REMARK    7  A    between atoms: C_24  and  O_25
REMARK    8  A    between atoms: O_25  and  C_26
REMARK                            x       y       z     vdW  Elec       q    Type
REMARK                         _______ _______ _______ _____ _____    ______ ____
ROOT
ATOM      1  C   UNL     1       3.170   5.304  18.773  0.00  0.00    +0.000 A 
ATOM      2  C   UNL     1       2.444   6.053  19.706  0.00  0.00    +0.000 A 
ATOM      3  C   UNL     1       2.106   7.380  19.445  0.00  0.00    +0.000 A 
ATOM      4  C   UNL     1       1.342   8.091  20.368  0.00  0.00    +0.000 A 
ATOM      5  C   UNL     1       1.018   9.434  20.132  0.00  0.00    +0.000 A 
ATOM      6  N   UNL     1       1.453  10.022  18.986  0.00  0.00    +0.000 N 
ATOM      7  C   UNL     1       2.184   9.335  18.071  0.00  0.00    +0.000 A 
ATOM      8  C   UNL     1       2.526   7.993  18.269  0.00  0.00    +0.000 A 
ATOM      9  C   UNL     1       3.279   7.251  17.337  0.00  0.00    +0.000 A 
ATOM     10  C   UNL     1       3.602   5.909  17.578  0.00  0.00    +0.000 A 
ATOM     11  C   UNL     1       1.208  11.465  18.743  0.00  0.00    +0.000 C 
ATOM     12  C   UNL     1      -0.194  11.841  19.175  0.00  0.00    +0.000 C 
ATOM     13  C   UNL     1      -0.412  11.433  20.613  0.00  0.00    +0.000 A 
ATOM     14  C   UNL     1       0.199  10.241  21.052  0.00  0.00    +0.000 A 
ATOM     15  C   UNL     1      -0.029   9.852  22.381  0.00  0.00    +0.000 A 
ATOM     16  C   UNL     1      -0.850  10.597  23.230  0.00  0.00    +0.000 A 
ATOM     17  C   UNL     1      -1.472  11.766  22.792  0.00  0.00    +0.000 A 
ATOM     18  C   UNL     1      -1.249  12.194  21.468  0.00  0.00    +0.000 A 
ENDROOT
BRANCH   1  20
ATOM     19  C   UNL     1       4.726   3.795  19.722  0.00  0.00    +0.000 C 
ATOM     20  O   UNL     1       3.507   3.993  19.003  0.00  0.00    +0.000 OA
ENDBRANCH   1  20
BRANCH  10  21
ATOM     21  O   UNL     1       4.320   5.123  16.715  0.00  0.00    +0.000 OA
ATOM     22  C   UNL     1       5.488   5.681  16.121  0.00  0.00    +0.000 C 
ENDBRANCH  10  21
BRANCH  17  23
ATOM     23  O   UNL     1      -2.285  12.513  23.595  0.00  0.00    +0.000 OA
ATOM     24  C   UNL     1      -3.623  12.079  23.812  0.00  0.00    +0.000 C 
ENDBRANCH  17  23
BRANCH  18  25
ATOM     25  O   UNL     1      -1.762  13.310  20.857  0.00  0.00    +0.000 OA
ATOM     26  C   UNL     1      -3.135  13.346  20.493  0.00  0.00    +0.000 C 
ENDBRANCH  18  25
TORSDOF 4
ENDMDL
MODEL 9
REMARK VINA RESULT:      -6.7      1.803      3.661
REMARK  Name = 
REMARK  8 active torsions:
REMARK  status: ('A' for Active; 'I' for Inactive)
REMARK    1  A    between atoms: C_1  and  O_2
REMARK    2  A    between atoms: O_2  and  C_3
REMARK    3  A    between atoms: C_12  and  O_13
REMARK    4  A    between atoms: O_13  and  C_14
REMARK    5  A    between atoms: C_21  and  O_22
REMARK    6  A    between atoms: O_22  and  C_23
REMARK    7  A    between atoms: C_24  and  O_25
REMARK    8  A    between atoms: O_25  and  C_26
REMARK                            x       y       z     vdW  Elec       q    Type
REMARK                         _______ _______ _______ _____ _____    ______ ____
ROOT
ATOM      1  C   UNL     1       5.381   6.107  16.333  0.00  0.00    +0.000 A 
ATOM      2  C   UNL     1       4.368   7.062  16.472  0.00  0.00    +0.000 A 
ATOM      3  C   UNL     1       3.620   7.141  17.646  0.00  0.00    +0.000 A 
ATOM      4  C   UNL     1       2.649   8.131  17.779  0.00  0.00    +0.000 A 
ATOM      5  C   UNL     1       1.870   8.205  18.942  0.00  0.00    +0.000 A 
ATOM      6  N   UNL     1       2.088   7.303  19.936  0.00  0.00    +0.000 N 
ATOM      7  C   UNL     1       3.043   6.344  19.825  0.00  0.00    +0.000 A 
ATOM      8  C   UNL     1       3.841   6.238  18.682  0.00  0.00    +0.000 A 
ATOM      9  C   UNL     1       4.844   5.258  18.537  0.00  0.00    +0.000 A 
ATOM     10  C   UNL     1       5.619   5.186  17.371  0.00  0.00    +0.000 A 
ATOM     11  C   UNL     1       1.224   7.292  21.142  0.00  0.00    +0.000 C 
ATOM     12  C   UNL     1       0.942   8.708  21.600  0.00  0.00    +0.000 C 
ATOM     13  C   UNL     1       0.361   9.507  20.458  0.00  0.00    +0.000 A 
ATOM     14  C   UNL     1       0.841   9.235  19.161  0.00  0.00    +0.000 A 
ATOM     15  C   UNL     1       0.318  10.000  18.106  0.00  0.00    +0.000 A 
ATOM     16  C   UNL     1      -0.619  11.010  18.331  0.00  0.00    +0.000 A 
ATOM     17  C   UNL     1      -1.081  11.295  19.617  0.00  0.00    +0.000 A 
ATOM     18  C   UNL     1      -0.589  10.533  20.695  0.00  0.00    +0.000 A 
ENDROOT
BRANCH   1  20
ATOM     19  C   UNL     1       5.809   4.923  14.330  0.00  0.00    +0.000 C 
ATOM     20  O   UNL     1       6.138   6.015  15.191  0.00  0.00    +0.000 OA
ENDBRANCH   1  20
BRANCH  10  21
ATOM     21  O   UNL     1       6.616   4.269  17.165  0.00  0.00    +0.000 OA
ATOM     22  C   UNL     1       7.878   4.508  17.783  0.00  0.00    +0.000 C 
ENDBRANCH  10  21
BRANCH  17  23
ATOM     23  O   UNL     1      -1.992  12.280  19.870  0.00  0.00    +0.000 OA
ATOM     24  C   UNL     1      -3.281  12.194  19.274  0.00  0.00    +0.000 C 
ENDBRANCH  17  23
BRANCH  18  25
ATOM     25  O   UNL     1      -0.921  10.657  22.020  0.00  0.00    +0.000 OA
ATOM     26  C   UNL     1      -0.806  11.920  22.662  0.00  0.00    +0.000 C 
ENDBRANCH  18  25
TORSDOF 4
ENDMDL
