MODEL 1
REMARK VINA RESULT:      -8.3      0.000      0.000
REMARK  Name = 
REMARK  6 active torsions:
REMARK  status: ('A' for Active; 'I' for Inactive)
REMARK    1  A    between atoms: C_1  and  C_2
REMARK    2  A    between atoms: C_2  and  N_3
REMARK    3  A    between atoms: N_6  and  C_7
REMARK    4  A    between atoms: C_14  and  O_15
REMARK    5  A    between atoms: O_15  and  C_16
REMARK    6  A    between atoms: C_16  and  C_17
REMARK                            x       y       z     vdW  Elec       q    Type
REMARK                         _______ _______ _______ _____ _____    ______ ____
ROOT
ATOM      1  C   UNL     1       6.113   4.320  17.054  0.00  0.00    +0.000 A 
ATOM      2  C   UNL     1       7.266   4.571  17.690  0.00  0.00    +0.000 A 
ATOM      3  C   UNL     1       7.355   5.222  19.002  0.00  0.00    +0.000 A 
ATOM      4  O   UNL     1       8.442   5.474  19.509  0.00  0.00    +0.000 OA
ATOM      5  O   UNL     1       6.163   5.513  19.634  0.00  0.00    +0.000 OA
ATOM      6  C   UNL     1       4.932   5.312  18.984  0.00  0.00    +0.000 A 
ATOM      7  C   UNL     1       3.795   5.694  19.697  0.00  0.00    +0.000 A 
ATOM      8  C   UNL     1       2.543   5.571  19.104  0.00  0.00    +0.000 A 
ATOM      9  C   UNL     1       2.445   5.033  17.821  0.00  0.00    +0.000 A 
ATOM     10  C   UNL     1       3.593   4.650  17.119  0.00  0.00    +0.000 A 
ATOM     11  C   UNL     1       4.864   4.775  17.694  0.00  0.00    +0.000 A 
ENDROOT
BRANCH   1  15
ATOM     12  N   UNL     1       6.253   3.211  13.615  0.00  0.00    +0.000 N 
ATOM     13  C   UNL     1       6.362   4.153  14.618  0.00  0.00    +0.000 C 
ATOM     14  O   UNL     1       6.749   5.296  14.408  0.00  0.00    +0.000 OA
ATOM     15  N   UNL     1       6.058   3.624  15.856  0.00  0.00    +0.000 N 
ATOM     16  H   UNL     1       5.468   2.583  13.708  0.00  0.00    +0.000 HD
ATOM     17  H   UNL     1       6.146   2.621  15.882  0.00  0.00    +0.000 HD
BRANCH  12  19
ATOM     18  C   UNL     1       6.945   2.481  11.360  0.00  0.00    +0.000 C 
ATOM     19  C   UNL     1       6.605   3.638  12.273  0.00  0.00    +0.000 C 
ENDBRANCH  12  19
ENDBRANCH   1  15
BRANCH   8  20
ATOM     20  O   UNL     1       1.484   5.999  19.854  0.00  0.00    +0.000 OA
BRANCH  20  21
ATOM     21  C   UNL     1       1.827   6.775  21.004  0.00  0.00    +0.000 C 
BRANCH  21  22
ATOM     22  C   UNL     1       1.202   8.136  20.858  0.00  0.00    +0.000 A 
ATOM     23  C   UNL     1       1.298   8.849  19.656  0.00  0.00    +0.000 A 
ATOM     24  C   UNL     1       0.696  10.101  19.529  0.00  0.00    +0.000 A 
ATOM     25  C   UNL     1      -0.012  10.645  20.601  0.00  0.00    +0.000 A 
ATOM     26  C   UNL     1      -0.119   9.936  21.796  0.00  0.00    +0.000 A 
ATOM     27 CL   UNL     1      -0.992  10.605  23.118  0.00  0.00    +0.000 Cl
ATOM     28  C   UNL     1       0.481   8.688  21.929  0.00  0.00    +0.000 A 
ENDBRANCH  21  22
ENDBRANCH  20  21
ENDBRANCH   8  20
TORSDOF 5
ENDMDL
MODEL 2
REMARK VINA RESULT:      -8.2      2.585      4.011
REMARK  Name = 
REMARK  6 active torsions:
REMARK  status: ('A' for Active; 'I' for Inactive)
REMARK    1  A    between atoms: C_1  and  C_2
REMARK    2  A    between atoms: C_2  and  N_3
REMARK    3  A    between atoms: N_6  and  C_7
REMARK    4  A    between atoms: C_14  and  O_15
REMARK    5  A    between atoms: O_15  and  C_16
REMARK    6  A    between atoms: C_16  and  C_17
REMARK                            x       y       z     vdW  Elec       q    Type
REMARK                         _______ _______ _______ _____ _____    ______ ____
ROOT
ATOM      1  C   UNL     1       3.297   4.208  18.870  0.00  0.00    +0.000 A 
ATOM      2  C   UNL     1       3.224   3.274  19.829  0.00  0.00    +0.000 A 
ATOM      3  C   UNL     1       2.605   3.491  21.141  0.00  0.00    +0.000 A 
ATOM      4  O   UNL     1       2.617   2.614  21.997  0.00  0.00    +0.000 OA
ATOM      5  O   UNL     1       1.999   4.715  21.348  0.00  0.00    +0.000 OA
ATOM      6  C   UNL     1       2.094   5.740  20.389  0.00  0.00    +0.000 A 
ATOM      7  C   UNL     1       1.490   6.951  20.730  0.00  0.00    +0.000 A 
ATOM      8  C   UNL     1       1.582   8.029  19.856  0.00  0.00    +0.000 A 
ATOM      9  C   UNL     1       2.242   7.867  18.638  0.00  0.00    +0.000 A 
ATOM     10  C   UNL     1       2.838   6.645  18.308  0.00  0.00    +0.000 A 
ATOM     11  C   UNL     1       2.767   5.550  19.179  0.00  0.00    +0.000 A 
ENDROOT
BRANCH   1  15
ATOM     12  N   UNL     1       5.335   3.805  15.910  0.00  0.00    +0.000 N 
ATOM     13  C   UNL     1       5.104   4.211  17.209  0.00  0.00    +0.000 C 
ATOM     14  O   UNL     1       5.984   4.688  17.915  0.00  0.00    +0.000 OA
ATOM     15  N   UNL     1       3.811   3.945  17.609  0.00  0.00    +0.000 N 
ATOM     16  H   UNL     1       4.572   3.976  15.271  0.00  0.00    +0.000 HD
ATOM     17  H   UNL     1       3.373   3.225  17.056  0.00  0.00    +0.000 HD
BRANCH  12  19
ATOM     18  C   UNL     1       6.707   4.611  14.022  0.00  0.00    +0.000 C 
ATOM     19  C   UNL     1       6.681   3.981  15.397  0.00  0.00    +0.000 C 
ENDBRANCH  12  19
ENDBRANCH   1  15
BRANCH   8  20
ATOM     20  O   UNL     1       0.995   9.190  20.278  0.00  0.00    +0.000 OA
BRANCH  20  21
ATOM     21  C   UNL     1       1.075  10.281  19.359  0.00  0.00    +0.000 C 
BRANCH  21  22
ATOM     22  C   UNL     1      -0.322  10.641  18.933  0.00  0.00    +0.000 A 
ATOM     23  C   UNL     1      -1.074  11.584  19.647  0.00  0.00    +0.000 A 
ATOM     24  C   UNL     1      -2.360  11.924  19.227  0.00  0.00    +0.000 A 
ATOM     25  C   UNL     1      -2.901  11.328  18.087  0.00  0.00    +0.000 A 
ATOM     26  C   UNL     1      -2.154  10.398  17.368  0.00  0.00    +0.000 A 
ATOM     27 CL   UNL     1      -2.819   9.664  15.961  0.00  0.00    +0.000 Cl
ATOM     28  C   UNL     1      -0.872  10.054  17.783  0.00  0.00    +0.000 A 
ENDBRANCH  21  22
ENDBRANCH  20  21
ENDBRANCH   8  20
TORSDOF 5
ENDMDL
MODEL 3
REMARK VINA RESULT:      -8.2      4.760      7.311
REMARK  Name = 
REMARK  6 active torsions:
REMARK  status: ('A' for Active; 'I' for Inactive)
REMARK    1  A    between atoms: C_1  and  C_2
REMARK    2  A    between atoms: C_2  and  N_3
REMARK    3  A    between atoms: N_6  and  C_7
REMARK    4  A    between atoms: C_14  and  O_15
REMARK    5  A    between atoms: O_15  and  C_16
REMARK    6  A    between atoms: C_16  and  C_17
REMARK                            x       y       z     vdW  Elec       q    Type
REMARK                         _______ _______ _______ _____ _____    ______ ____
ROOT
ATOM      1  C   UNL     1       5.204   3.766  16.904  0.00  0.00    +0.000 A 
ATOM      2  C   UNL     1       5.154   3.608  15.574  0.00  0.00    +0.000 A 
ATOM      3  C   UNL     1       5.894   4.441  14.620  0.00  0.00    +0.000 A 
ATOM      4  O   UNL     1       5.767   4.283  13.411  0.00  0.00    +0.000 OA
ATOM      5  O   UNL     1       6.746   5.389  15.152  0.00  0.00    +0.000 OA
ATOM      6  C   UNL     1       6.793   5.622  16.539  0.00  0.00    +0.000 A 
ATOM      7  C   UNL     1       7.649   6.641  16.958  0.00  0.00    +0.000 A 
ATOM      8  C   UNL     1       7.715   6.965  18.309  0.00  0.00    +0.000 A 
ATOM      9  C   UNL     1       6.953   6.239  19.223  0.00  0.00    +0.000 A 
ATOM     10  C   UNL     1       6.102   5.217  18.789  0.00  0.00    +0.000 A 
ATOM     11  C   UNL     1       6.012   4.881  17.432  0.00  0.00    +0.000 A 
ENDROOT
BRANCH   1  15
ATOM     12  N   UNL     1       2.919   2.072  19.138  0.00  0.00    +0.000 N 
ATOM     13  C   UNL     1       3.313   3.120  18.329  0.00  0.00    +0.000 C 
ATOM     14  O   UNL     1       2.588   4.079  18.096  0.00  0.00    +0.000 OA
ATOM     15  N   UNL     1       4.562   2.906  17.782  0.00  0.00    +0.000 N 
ATOM     16  H   UNL     1       3.653   1.681  19.711  0.00  0.00    +0.000 HD
ATOM     17  H   UNL     1       4.819   1.932  17.772  0.00  0.00    +0.000 HD
BRANCH  12  19
ATOM     18  C   UNL     1       1.609   2.725  21.127  0.00  0.00    +0.000 C 
ATOM     19  C   UNL     1       1.595   2.158  19.725  0.00  0.00    +0.000 C 
ENDBRANCH  12  19
ENDBRANCH   1  15
BRANCH   8  20
ATOM     20  O   UNL     1       8.550   7.997  18.634  0.00  0.00    +0.000 OA
BRANCH  20  21
ATOM     21  C   UNL     1       8.306   9.220  17.936  0.00  0.00    +0.000 C 
BRANCH  21  22
ATOM     22  C   UNL     1       9.092  10.312  18.609  0.00  0.00    +0.000 A 
ATOM     23  C   UNL     1       9.267  10.324  19.999  0.00  0.00    +0.000 A 
ATOM     24  C   UNL     1      10.016  11.332  20.606  0.00  0.00    +0.000 A 
ATOM     25  C   UNL     1      10.602  12.330  19.827  0.00  0.00    +0.000 A 
ATOM     26  C   UNL     1      10.440  12.317  18.443  0.00  0.00    +0.000 A 
ATOM     27 CL   UNL     1      11.163  13.546  17.481  0.00  0.00    +0.000 Cl
ATOM     28  C   UNL     1       9.692  11.316  17.832  0.00  0.00    +0.000 A 
ENDBRANCH  21  22
ENDBRANCH  20  21
ENDBRANCH   8  20
TORSDOF 5
ENDMDL
MODEL 4
REMARK VINA RESULT:      -8.2      4.113      8.861
REMARK  Name = 
REMARK  6 active torsions:
REMARK  status: ('A' for Active; 'I' for Inactive)
REMARK    1  A    between atoms: C_1  and  C_2
REMARK    2  A    between atoms: C_2  and  N_3
REMARK    3  A    between atoms: N_6  and  C_7
REMARK    4  A    between atoms: C_14  and  O_15
REMARK    5  A    between atoms: O_15  and  C_16
REMARK    6  A    between atoms: C_16  and  C_17
REMARK                            x       y       z     vdW  Elec       q    Type
REMARK                         _______ _______ _______ _____ _____    ______ ____
ROOT
ATOM      1  C   UNL     1       2.007   4.945  19.959  0.00  0.00    +0.000 A 
ATOM      2  C   UNL     1       1.021   4.041  19.865  0.00  0.00    +0.000 A 
ATOM      3  C   UNL     1       1.039   2.901  18.943  0.00  0.00    +0.000 A 
ATOM      4  O   UNL     1       0.083   2.137  18.865  0.00  0.00    +0.000 OA
ATOM      5  O   UNL     1       2.185   2.724  18.193  0.00  0.00    +0.000 OA
ATOM      6  C   UNL     1       3.222   3.674  18.223  0.00  0.00    +0.000 A 
ATOM      7  C   UNL     1       4.306   3.420  17.382  0.00  0.00    +0.000 A 
ATOM      8  C   UNL     1       5.350   4.337  17.319  0.00  0.00    +0.000 A 
ATOM      9  C   UNL     1       5.311   5.474  18.126  0.00  0.00    +0.000 A 
ATOM     10  C   UNL     1       4.220   5.713  18.968  0.00  0.00    +0.000 A 
ATOM     11  C   UNL     1       3.153   4.808  19.039  0.00  0.00    +0.000 A 
ENDROOT
BRANCH   1  15
ATOM     12  N   UNL     1       1.709   8.049  21.790  0.00  0.00    +0.000 N 
ATOM     13  C   UNL     1       1.658   7.275  20.648  0.00  0.00    +0.000 C 
ATOM     14  O   UNL     1       1.287   7.719  19.569  0.00  0.00    +0.000 OA
ATOM     15  N   UNL     1       2.000   5.962  20.902  0.00  0.00    +0.000 N 
ATOM     16  H   UNL     1       2.484   7.847  22.405  0.00  0.00    +0.000 HD
ATOM     17  H   UNL     1       1.894   5.713  21.872  0.00  0.00    +0.000 HD
BRANCH  12  19
ATOM     18  C   UNL     1       0.144   9.803  22.548  0.00  0.00    +0.000 C 
ATOM     19  C   UNL     1       1.312   9.439  21.658  0.00  0.00    +0.000 C 
ENDBRANCH  12  19
ENDBRANCH   1  15
BRANCH   8  20
ATOM     20  O   UNL     1       6.357   4.034  16.446  0.00  0.00    +0.000 OA
BRANCH  20  21
ATOM     21  C   UNL     1       6.960   5.155  15.798  0.00  0.00    +0.000 C 
BRANCH  21  22
ATOM     22  C   UNL     1       7.020   4.871  14.322  0.00  0.00    +0.000 A 
ATOM     23  C   UNL     1       7.880   5.591  13.482  0.00  0.00    +0.000 A 
ATOM     24  C   UNL     1       7.940   5.302  12.119  0.00  0.00    +0.000 A 
ATOM     25  C   UNL     1       7.144   4.287  11.587  0.00  0.00    +0.000 A 
ATOM     26  C   UNL     1       6.294   3.561  12.419  0.00  0.00    +0.000 A 
ATOM     27 CL   UNL     1       5.314   2.308  11.764  0.00  0.00    +0.000 Cl
ATOM     28  C   UNL     1       6.229   3.846  13.779  0.00  0.00    +0.000 A 
ENDBRANCH  21  22
ENDBRANCH  20  21
ENDBRANCH   8  20
TORSDOF 5
ENDMDL
MODEL 5
REMARK VINA RESULT:      -8.2      1.224      1.533
REMARK  Name = 
REMARK  6 active torsions:
REMARK  status: ('A' for Active; 'I' for Inactive)
REMARK    1  A    between atoms: C_1  and  C_2
REMARK    2  A    between atoms: C_2  and  N_3
REMARK    3  A    between atoms: N_6  and  C_7
REMARK    4  A    between atoms: C_14  and  O_15
REMARK    5  A    between atoms: O_15  and  C_16
REMARK    6  A    between atoms: C_16  and  C_17
REMARK                            x       y       z     vdW  Elec       q    Type
REMARK                         _______ _______ _______ _____ _____    ______ ____
ROOT
ATOM      1  C   UNL     1       6.144   4.307  17.020  0.00  0.00    +0.000 A 
ATOM      2  C   UNL     1       7.279   4.698  17.618  0.00  0.00    +0.000 A 
ATOM      3  C   UNL     1       7.331   5.368  18.921  0.00  0.00    +0.000 A 
ATOM      4  O   UNL     1       8.396   5.751  19.392  0.00  0.00    +0.000 OA
ATOM      5  O   UNL     1       6.132   5.524  19.589  0.00  0.00    +0.000 OA
ATOM      6  C   UNL     1       4.914   5.173  18.979  0.00  0.00    +0.000 A 
ATOM      7  C   UNL     1       3.763   5.426  19.726  0.00  0.00    +0.000 A 
ATOM      8  C   UNL     1       2.516   5.152  19.173  0.00  0.00    +0.000 A 
ATOM      9  C   UNL     1       2.443   4.593  17.898  0.00  0.00    +0.000 A 
ATOM     10  C   UNL     1       3.606   4.340  17.163  0.00  0.00    +0.000 A 
ATOM     11  C   UNL     1       4.871   4.619  17.696  0.00  0.00    +0.000 A 
ENDROOT
BRANCH   1  15
ATOM     12  N   UNL     1       6.351   3.177  13.591  0.00  0.00    +0.000 N 
ATOM     13  C   UNL     1       6.398   4.134  14.585  0.00  0.00    +0.000 C 
ATOM     14  O   UNL     1       6.702   5.299  14.362  0.00  0.00    +0.000 OA
ATOM     15  N   UNL     1       6.134   3.597  15.829  0.00  0.00    +0.000 N 
ATOM     16  H   UNL     1       5.612   2.497  13.693  0.00  0.00    +0.000 HD
ATOM     17  H   UNL     1       6.292   2.603  15.864  0.00  0.00    +0.000 HD
BRANCH  12  19
ATOM     18  C   UNL     1       6.965   2.464  11.308  0.00  0.00    +0.000 C 
ATOM     19  C   UNL     1       6.669   3.614  12.244  0.00  0.00    +0.000 C 
ENDBRANCH  12  19
ENDBRANCH   1  15
BRANCH   8  20
ATOM     20  O   UNL     1       1.437   5.461  19.954  0.00  0.00    +0.000 OA
BRANCH  20  21
ATOM     21  C   UNL     1       1.713   6.324  21.059  0.00  0.00    +0.000 C 
BRANCH  21  22
ATOM     22  C   UNL     1       1.198   7.697  20.724  0.00  0.00    +0.000 A 
ATOM     23  C   UNL     1       0.231   8.320  21.523  0.00  0.00    +0.000 A 
ATOM     24  C   UNL     1      -0.222   9.602  21.212  0.00  0.00    +0.000 A 
ATOM     25  C   UNL     1       0.295  10.273  20.103  0.00  0.00    +0.000 A 
ATOM     26  C   UNL     1       1.264   9.662  19.310  0.00  0.00    +0.000 A 
ATOM     27 CL   UNL     1       1.903  10.489  17.943  0.00  0.00    +0.000 Cl
ATOM     28  C   UNL     1       1.718   8.383  19.614  0.00  0.00    +0.000 A 
ENDBRANCH  21  22
ENDBRANCH  20  21
ENDBRANCH   8  20
TORSDOF 5
ENDMDL
MODEL 6
REMARK VINA RESULT:      -8.1      2.321      3.837
REMARK  Name = 
REMARK  6 active torsions:
REMARK  status: ('A' for Active; 'I' for Inactive)
REMARK    1  A    between atoms: C_1  and  C_2
REMARK    2  A    between atoms: C_2  and  N_3
REMARK    3  A    between atoms: N_6  and  C_7
REMARK    4  A    between atoms: C_14  and  O_15
REMARK    5  A    between atoms: O_15  and  C_16
REMARK    6  A    between atoms: C_16  and  C_17
REMARK                            x       y       z     vdW  Elec       q    Type
REMARK                         _______ _______ _______ _____ _____    ______ ____
ROOT
ATOM      1  C   UNL     1       3.080   4.539  18.738  0.00  0.00    +0.000 A 
ATOM      2  C   UNL     1       3.018   3.594  19.687  0.00  0.00    +0.000 A 
ATOM      3  C   UNL     1       2.464   3.814  21.028  0.00  0.00    +0.000 A 
ATOM      4  O   UNL     1       2.484   2.926  21.872  0.00  0.00    +0.000 OA
ATOM      5  O   UNL     1       1.908   5.053  21.276  0.00  0.00    +0.000 OA
ATOM      6  C   UNL     1       1.995   6.088  20.326  0.00  0.00    +0.000 A 
ATOM      7  C   UNL     1       1.447   7.313  20.708  0.00  0.00    +0.000 A 
ATOM      8  C   UNL     1       1.536   8.399  19.843  0.00  0.00    +0.000 A 
ATOM      9  C   UNL     1       2.137   8.232  18.596  0.00  0.00    +0.000 A 
ATOM     10  C   UNL     1       2.677   6.996  18.225  0.00  0.00    +0.000 A 
ATOM     11  C   UNL     1       2.608   5.892  19.085  0.00  0.00    +0.000 A 
ENDROOT
BRANCH   1  15
ATOM     12  N   UNL     1       4.986   4.032  15.706  0.00  0.00    +0.000 N 
ATOM     13  C   UNL     1       4.836   4.400  17.029  0.00  0.00    +0.000 C 
ATOM     14  O   UNL     1       5.784   4.731  17.731  0.00  0.00    +0.000 OA
ATOM     15  N   UNL     1       3.529   4.275  17.452  0.00  0.00    +0.000 N 
ATOM     16  H   UNL     1       4.236   4.326  15.098  0.00  0.00    +0.000 HD
ATOM     17  H   UNL     1       2.994   3.642  16.879  0.00  0.00    +0.000 HD
BRANCH  12  19
ATOM     18  C   UNL     1       6.362   3.933  13.658  0.00  0.00    +0.000 C 
ATOM     19  C   UNL     1       6.332   4.067  15.165  0.00  0.00    +0.000 C 
ENDBRANCH  12  19
ENDBRANCH   1  15
BRANCH   8  20
ATOM     20  O   UNL     1       1.007   9.573  20.305  0.00  0.00    +0.000 OA
BRANCH  20  21
ATOM     21  C   UNL     1       0.956  10.634  19.350  0.00  0.00    +0.000 C 
BRANCH  21  22
ATOM     22  C   UNL     1      -0.475  10.812  18.919  0.00  0.00    +0.000 A 
ATOM     23  C   UNL     1      -0.991  10.110  17.822  0.00  0.00    +0.000 A 
ATOM     24  C   UNL     1      -2.326  10.270  17.448  0.00  0.00    +0.000 A 
ATOM     25  C   UNL     1      -3.154  11.127  18.173  0.00  0.00    +0.000 A 
ATOM     26  C   UNL     1      -2.649  11.819  19.271  0.00  0.00    +0.000 A 
ATOM     27 CL   UNL     1      -3.670  12.875  20.166  0.00  0.00    +0.000 Cl
ATOM     28  C   UNL     1      -1.319  11.665  19.647  0.00  0.00    +0.000 A 
ENDBRANCH  21  22
ENDBRANCH  20  21
ENDBRANCH   8  20
TORSDOF 5
ENDMDL
MODEL 7
REMARK VINA RESULT:      -8.1      4.646      8.564
REMARK  Name = 
REMARK  6 active torsions:
REMARK  status: ('A' for Active; 'I' for Inactive)
REMARK    1  A    between atoms: C_1  and  C_2
REMARK    2  A    between atoms: C_2  and  N_3
REMARK    3  A    between atoms: N_6  and  C_7
REMARK    4  A    between atoms: C_14  and  O_15
REMARK    5  A    between atoms: O_15  and  C_16
REMARK    6  A    between atoms: C_16  and  C_17
REMARK                            x       y       z     vdW  Elec       q    Type
REMARK                         _______ _______ _______ _____ _____    ______ ____
ROOT
ATOM      1  C   UNL     1      -0.296  10.568  19.325  0.00  0.00    +0.000 A 
ATOM      2  C   UNL     1      -0.570  11.045  20.548  0.00  0.00    +0.000 A 
ATOM      3  C   UNL     1      -0.005  10.500  21.786  0.00  0.00    +0.000 A 
ATOM      4  O   UNL     1      -0.335  10.944  22.880  0.00  0.00    +0.000 OA
ATOM      5  O   UNL     1       0.924   9.487  21.654  0.00  0.00    +0.000 OA
ATOM      6  C   UNL     1       1.205   8.924  20.395  0.00  0.00    +0.000 A 
ATOM      7  C   UNL     1       2.118   7.869  20.389  0.00  0.00    +0.000 A 
ATOM      8  C   UNL     1       2.412   7.228  19.190  0.00  0.00    +0.000 A 
ATOM      9  C   UNL     1       1.817   7.676  18.012  0.00  0.00    +0.000 A 
ATOM     10  C   UNL     1       0.907   8.739  18.033  0.00  0.00    +0.000 A 
ATOM     11  C   UNL     1       0.589   9.391  19.231  0.00  0.00    +0.000 A 
ENDROOT
BRANCH   1  15
ATOM     12  N   UNL     1      -2.141  11.541  16.371  0.00  0.00    +0.000 N 
ATOM     13  C   UNL     1      -1.881  10.731  17.458  0.00  0.00    +0.000 C 
ATOM     14  O   UNL     1      -2.602   9.789  17.763  0.00  0.00    +0.000 OA
ATOM     15  N   UNL     1      -0.778  11.161  18.167  0.00  0.00    +0.000 N 
ATOM     16  H   UNL     1      -1.322  11.858  15.873  0.00  0.00    +0.000 HD
ATOM     17  H   UNL     1      -0.565  12.132  18.003  0.00  0.00    +0.000 HD
BRANCH  12  19
ATOM     18  C   UNL     1      -3.043  10.171  14.525  0.00  0.00    +0.000 C 
ATOM     19  C   UNL     1      -3.314  11.220  15.580  0.00  0.00    +0.000 C 
ENDBRANCH  12  19
ENDBRANCH   1  15
BRANCH   8  20
ATOM     20  O   UNL     1       3.289   6.182  19.274  0.00  0.00    +0.000 OA
BRANCH  20  21
ATOM     21  C   UNL     1       3.214   5.239  18.204  0.00  0.00    +0.000 C 
BRANCH  21  22
ATOM     22  C   UNL     1       4.520   5.269  17.457  0.00  0.00    +0.000 A 
ATOM     23  C   UNL     1       4.817   4.307  16.483  0.00  0.00    +0.000 A 
ATOM     24  C   UNL     1       6.023   4.360  15.783  0.00  0.00    +0.000 A 
ATOM     25  C   UNL     1       6.936   5.381  16.048  0.00  0.00    +0.000 A 
ATOM     26  C   UNL     1       6.642   6.347  17.008  0.00  0.00    +0.000 A 
ATOM     27 CL   UNL     1       7.766   7.607  17.334  0.00  0.00    +0.000 Cl
ATOM     28  C   UNL     1       5.442   6.297  17.710  0.00  0.00    +0.000 A 
ENDBRANCH  21  22
ENDBRANCH  20  21
ENDBRANCH   8  20
TORSDOF 5
ENDMDL
MODEL 8
REMARK VINA RESULT:      -8.0      4.509      7.200
REMARK  Name = 
REMARK  6 active torsions:
REMARK  status: ('A' for Active; 'I' for Inactive)
REMARK    1  A    between atoms: C_1  and  C_2
REMARK    2  A    between atoms: C_2  and  N_3
REMARK    3  A    between atoms: N_6  and  C_7
REMARK    4  A    between atoms: C_14  and  O_15
REMARK    5  A    between atoms: O_15  and  C_16
REMARK    6  A    between atoms: C_16  and  C_17
REMARK                            x       y       z     vdW  Elec       q    Type
REMARK                         _______ _______ _______ _____ _____    ______ ____
ROOT
ATOM      1  C   UNL     1       5.150   3.932  17.104  0.00  0.00    +0.000 A 
ATOM      2  C   UNL     1       4.997   3.782  15.780  0.00  0.00    +0.000 A 
ATOM      3  C   UNL     1       5.679   4.607  14.777  0.00  0.00    +0.000 A 
ATOM      4  O   UNL     1       5.457   4.457  13.581  0.00  0.00    +0.000 OA
ATOM      5  O   UNL     1       6.587   5.535  15.247  0.00  0.00    +0.000 OA
ATOM      6  C   UNL     1       6.742   5.759  16.627  0.00  0.00    +0.000 A 
ATOM      7  C   UNL     1       7.647   6.760  16.985  0.00  0.00    +0.000 A 
ATOM      8  C   UNL     1       7.821   7.075  18.328  0.00  0.00    +0.000 A 
ATOM      9  C   UNL     1       7.116   6.358  19.295  0.00  0.00    +0.000 A 
ATOM     10  C   UNL     1       6.216   5.354  18.922  0.00  0.00    +0.000 A 
ATOM     11  C   UNL     1       6.017   5.029  17.574  0.00  0.00    +0.000 A 
ENDROOT
BRANCH   1  15
ATOM     12  N   UNL     1       2.979   2.234  19.445  0.00  0.00    +0.000 N 
ATOM     13  C   UNL     1       3.317   3.267  18.594  0.00  0.00    +0.000 C 
ATOM     14  O   UNL     1       2.552   4.192  18.348  0.00  0.00    +0.000 OA
ATOM     15  N   UNL     1       4.559   3.079  18.024  0.00  0.00    +0.000 N 
ATOM     16  H   UNL     1       3.739   1.887  20.013  0.00  0.00    +0.000 HD
ATOM     17  H   UNL     1       4.852   2.115  18.039  0.00  0.00    +0.000 HD
BRANCH  12  19
ATOM     18  C   UNL     1       1.720   2.668  21.525  0.00  0.00    +0.000 C 
ATOM     19  C   UNL     1       1.667   2.292  20.061  0.00  0.00    +0.000 C 
ENDBRANCH  12  19
ENDBRANCH   1  15
BRANCH   8  20
ATOM     20  O   UNL     1       8.698   8.089  18.593  0.00  0.00    +0.000 OA
BRANCH  20  21
ATOM     21  C   UNL     1       8.332   9.364  18.062  0.00  0.00    +0.000 C 
BRANCH  21  22
ATOM     22  C   UNL     1       9.255  10.400  18.644  0.00  0.00    +0.000 A 
ATOM     23  C   UNL     1      10.296  10.949  17.883  0.00  0.00    +0.000 A 
ATOM     24  C   UNL     1      11.130  11.924  18.430  0.00  0.00    +0.000 A 
ATOM     25  C   UNL     1      10.926  12.361  19.739  0.00  0.00    +0.000 A 
ATOM     26  C   UNL     1       9.887  11.826  20.497  0.00  0.00    +0.000 A 
ATOM     27 CL   UNL     1       9.633  12.365  22.110  0.00  0.00    +0.000 Cl
ATOM     28  C   UNL     1       9.053  10.852  19.958  0.00  0.00    +0.000 A 
ENDBRANCH  21  22
ENDBRANCH  20  21
ENDBRANCH   8  20
TORSDOF 5
ENDMDL
MODEL 9
REMARK VINA RESULT:      -7.9      4.810      8.883
REMARK  Name = 
REMARK  6 active torsions:
REMARK  status: ('A' for Active; 'I' for Inactive)
REMARK    1  A    between atoms: C_1  and  C_2
REMARK    2  A    between atoms: C_2  and  N_3
REMARK    3  A    between atoms: N_6  and  C_7
REMARK    4  A    between atoms: C_14  and  O_15
REMARK    5  A    between atoms: O_15  and  C_16
REMARK    6  A    between atoms: C_16  and  C_17
REMARK                            x       y       z     vdW  Elec       q    Type
REMARK                         _______ _______ _______ _____ _____    ______ ____
ROOT
ATOM      1  C   UNL     1       0.651  10.867  20.276  0.00  0.00    +0.000 A 
ATOM      2  C   UNL     1       0.246  10.841  21.554  0.00  0.00    +0.000 A 
ATOM      3  C   UNL     1       0.358   9.668  22.427  0.00  0.00    +0.000 A 
ATOM      4  O   UNL     1      -0.080   9.689  23.572  0.00  0.00    +0.000 OA
ATOM      5  O   UNL     1       0.994   8.560  21.903  0.00  0.00    +0.000 OA
ATOM      6  C   UNL     1       1.391   8.526  20.553  0.00  0.00    +0.000 A 
ATOM      7  C   UNL     1       1.973   7.335  20.119  0.00  0.00    +0.000 A 
ATOM      8  C   UNL     1       2.349   7.205  18.786  0.00  0.00    +0.000 A 
ATOM      9  C   UNL     1       2.171   8.282  17.918  0.00  0.00    +0.000 A 
ATOM     10  C   UNL     1       1.590   9.472  18.369  0.00  0.00    +0.000 A 
ATOM     11  C   UNL     1       1.194   9.620  19.705  0.00  0.00    +0.000 A 
ENDROOT
BRANCH   1  15
ATOM     12  N   UNL     1       1.206  14.079  18.710  0.00  0.00    +0.000 N 
ATOM     13  C   UNL     1       1.462  13.095  19.645  0.00  0.00    +0.000 C 
ATOM     14  O   UNL     1       2.384  13.176  20.447  0.00  0.00    +0.000 OA
ATOM     15  N   UNL     1       0.612  12.018  19.504  0.00  0.00    +0.000 N 
ATOM     16  H   UNL     1       0.227  14.239  18.521  0.00  0.00    +0.000 HD
ATOM     17  H   UNL     1       0.204  11.963  18.585  0.00  0.00    +0.000 HD
BRANCH  12  19
ATOM     18  C   UNL     1       3.217  15.129  17.735  0.00  0.00    +0.000 C 
ATOM     19  C   UNL     1       2.077  15.239  18.723  0.00  0.00    +0.000 C 
ENDBRANCH  12  19
ENDBRANCH   1  15
BRANCH   8  20
ATOM     20  O   UNL     1       2.879   5.996  18.432  0.00  0.00    +0.000 OA
BRANCH  20  21
ATOM     21  C   UNL     1       4.003   5.574  19.206  0.00  0.00    +0.000 C 
BRANCH  21  22
ATOM     22  C   UNL     1       5.126   5.239  18.263  0.00  0.00    +0.000 A 
ATOM     23  C   UNL     1       6.450   5.162  18.715  0.00  0.00    +0.000 A 
ATOM     24  C   UNL     1       7.479   4.830  17.833  0.00  0.00    +0.000 A 
ATOM     25  C   UNL     1       7.189   4.566  16.495  0.00  0.00    +0.000 A 
ATOM     26  C   UNL     1       5.873   4.632  16.041  0.00  0.00    +0.000 A 
ATOM     27 CL   UNL     1       5.515   4.305  14.391  0.00  0.00    +0.000 Cl
ATOM     28  C   UNL     1       4.844   4.964  16.916  0.00  0.00    +0.000 A 
ENDBRANCH  21  22
ENDBRANCH  20  21
ENDBRANCH   8  20
TORSDOF 5
ENDMDL
