MODEL 1
REMARK VINA RESULT:      -5.8      0.000      0.000
REMARK  Name = 
REMARK  8 active torsions:
REMARK  status: ('A' for Active; 'I' for Inactive)
REMARK    1  A    between atoms: C_1  and  C_2
REMARK    2  A    between atoms: C_2  and  O_3
REMARK    3  A    between atoms: O_3  and  C_4
REMARK    4  A    between atoms: C_6  and  C_7
REMARK    5  A    between atoms: C_6  and  C_8
REMARK    6  A    between atoms: N_9  and  O_10
REMARK    7  A    between atoms: C_11  and  C_12
REMARK    8  A    between atoms: C_11  and  C_13
REMARK                            x       y       z     vdW  Elec       q    Type
REMARK                         _______ _______ _______ _____ _____    ______ ____
ROOT
ATOM      1  C   UNL     1       4.604   6.622  16.704  0.00  0.00    +0.000 C 
ATOM      2  C   UNL     1       5.255   6.030  15.448  0.00  0.00    +0.000 C 
ATOM      3  C   UNL     1       6.312   4.938  15.732  0.00  0.00    +0.000 C 
ATOM      4  C   UNL     1       5.619   3.580  15.956  0.00  0.00    +0.000 C 
ATOM      5  C   UNL     1       7.192   4.809  14.461  0.00  0.00    +0.000 C 
ATOM      6  N   UNL     1       7.254   5.350  16.784  0.00  0.00    +0.000 NA
ATOM      7  C   UNL     1       6.818   6.130  17.952  0.00  0.00    +0.000 C 
ATOM      8  C   UNL     1       8.064   6.967  18.347  0.00  0.00    +0.000 C 
ATOM      9  C   UNL     1       6.426   5.276  19.175  0.00  0.00    +0.000 C 
ATOM     10  C   UNL     1       5.708   7.152  17.611  0.00  0.00    +0.000 C 
ENDROOT
BRANCH   6  11
ATOM     11  O   UNL     1       8.041   4.208  17.219  0.00  0.00    +0.000 OA
ATOM     12  H   UNL     1       8.687   4.615  17.814  0.00  0.00    +0.000 HD
ENDBRANCH   6  11
BRANCH   1  13
ATOM     13  O   UNL     1       3.719   5.689  17.323  0.00  0.00    +0.000 OA
BRANCH  13  15
ATOM     14  C   UNL     1       2.670   5.522  19.497  0.00  0.00    +0.000 C 
ATOM     15  C   UNL     1       2.777   6.307  18.194  0.00  0.00    +0.000 C 
ENDBRANCH  13  15
ENDBRANCH   1  13
TORSDOF 3
ENDMDL
MODEL 2
REMARK VINA RESULT:      -5.7      2.344      3.770
REMARK  Name = 
REMARK  8 active torsions:
REMARK  status: ('A' for Active; 'I' for Inactive)
REMARK    1  A    between atoms: C_1  and  C_2
REMARK    2  A    between atoms: C_2  and  O_3
REMARK    3  A    between atoms: O_3  and  C_4
REMARK    4  A    between atoms: C_6  and  C_7
REMARK    5  A    between atoms: C_6  and  C_8
REMARK    6  A    between atoms: N_9  and  O_10
REMARK    7  A    between atoms: C_11  and  C_12
REMARK    8  A    between atoms: C_11  and  C_13
REMARK                            x       y       z     vdW  Elec       q    Type
REMARK                         _______ _______ _______ _____ _____    ______ ____
ROOT
ATOM      1  C   UNL     1       2.770   6.012  18.108  0.00  0.00    +0.000 C 
ATOM      2  C   UNL     1       2.062   4.654  18.169  0.00  0.00    +0.000 C 
ATOM      3  C   UNL     1       2.880   3.538  18.861  0.00  0.00    +0.000 C 
ATOM      4  C   UNL     1       2.719   3.638  20.390  0.00  0.00    +0.000 C 
ATOM      5  C   UNL     1       2.275   2.182  18.416  0.00  0.00    +0.000 C 
ATOM      6  N   UNL     1       4.266   3.494  18.371  0.00  0.00    +0.000 NA
ATOM      7  C   UNL     1       5.013   4.719  18.045  0.00  0.00    +0.000 C 
ATOM      8  C   UNL     1       5.999   4.288  16.927  0.00  0.00    +0.000 C 
ATOM      9  C   UNL     1       5.851   5.281  19.212  0.00  0.00    +0.000 C 
ATOM     10  C   UNL     1       4.119   5.819  17.424  0.00  0.00    +0.000 C 
ENDROOT
BRANCH   6  11
ATOM     11  O   UNL     1       5.069   2.641  19.232  0.00  0.00    +0.000 OA
ATOM     12  H   UNL     1       4.617   1.789  19.161  0.00  0.00    +0.000 HD
ENDBRANCH   6  11
BRANCH   1  13
ATOM     13  O   UNL     1       2.836   6.625  19.396  0.00  0.00    +0.000 OA
BRANCH  13  15
ATOM     14  C   UNL     1       2.048   8.588  18.220  0.00  0.00    +0.000 C 
ATOM     15  C   UNL     1       2.001   7.774  19.509  0.00  0.00    +0.000 C 
ENDBRANCH  13  15
ENDBRANCH   1  13
TORSDOF 3
ENDMDL
MODEL 3
REMARK VINA RESULT:      -5.6      1.935      3.702
REMARK  Name = 
REMARK  8 active torsions:
REMARK  status: ('A' for Active; 'I' for Inactive)
REMARK    1  A    between atoms: C_1  and  C_2
REMARK    2  A    between atoms: C_2  and  O_3
REMARK    3  A    between atoms: O_3  and  C_4
REMARK    4  A    between atoms: C_6  and  C_7
REMARK    5  A    between atoms: C_6  and  C_8
REMARK    6  A    between atoms: N_9  and  O_10
REMARK    7  A    between atoms: C_11  and  C_12
REMARK    8  A    between atoms: C_11  and  C_13
REMARK                            x       y       z     vdW  Elec       q    Type
REMARK                         _______ _______ _______ _____ _____    ______ ____
ROOT
ATOM      1  C   UNL     1       5.207   5.496  15.979  0.00  0.00    +0.000 C 
ATOM      2  C   UNL     1       6.444   6.241  16.494  0.00  0.00    +0.000 C 
ATOM      3  C   UNL     1       6.986   5.721  17.846  0.00  0.00    +0.000 C 
ATOM      4  C   UNL     1       7.882   4.489  17.616  0.00  0.00    +0.000 C 
ATOM      5  C   UNL     1       7.877   6.841  18.445  0.00  0.00    +0.000 C 
ATOM      6  N   UNL     1       5.910   5.548  18.834  0.00  0.00    +0.000 NA
ATOM      7  C   UNL     1       4.579   5.053  18.452  0.00  0.00    +0.000 C 
ATOM      8  C   UNL     1       3.612   5.711  19.472  0.00  0.00    +0.000 C 
ATOM      9  C   UNL     1       4.411   3.525  18.572  0.00  0.00    +0.000 C 
ATOM     10  C   UNL     1       4.131   5.553  17.057  0.00  0.00    +0.000 C 
ENDROOT
BRANCH   6  11
ATOM     11  O   UNL     1       6.405   4.799  19.978  0.00  0.00    +0.000 OA
ATOM     12  H   UNL     1       7.209   4.391  19.627  0.00  0.00    +0.000 HD
ENDBRANCH   6  11
BRANCH   1  13
ATOM     13  O   UNL     1       5.537   4.181  15.534  0.00  0.00    +0.000 OA
BRANCH  13  15
ATOM     14  C   UNL     1       5.754   3.664  13.180  0.00  0.00    +0.000 C 
ATOM     15  C   UNL     1       6.448   4.175  14.438  0.00  0.00    +0.000 C 
ENDBRANCH  13  15
ENDBRANCH   1  13
TORSDOF 3
ENDMDL
MODEL 4
REMARK VINA RESULT:      -5.5      2.089      3.406
REMARK  Name = 
REMARK  8 active torsions:
REMARK  status: ('A' for Active; 'I' for Inactive)
REMARK    1  A    between atoms: C_1  and  C_2
REMARK    2  A    between atoms: C_2  and  O_3
REMARK    3  A    between atoms: O_3  and  C_4
REMARK    4  A    between atoms: C_6  and  C_7
REMARK    5  A    between atoms: C_6  and  C_8
REMARK    6  A    between atoms: N_9  and  O_10
REMARK    7  A    between atoms: C_11  and  C_12
REMARK    8  A    between atoms: C_11  and  C_13
REMARK                            x       y       z     vdW  Elec       q    Type
REMARK                         _______ _______ _______ _____ _____    ______ ____
ROOT
ATOM      1  C   UNL     1       5.474   4.767  19.611  0.00  0.00    +0.000 C 
ATOM      2  C   UNL     1       4.235   5.629  19.344  0.00  0.00    +0.000 C 
ATOM      3  C   UNL     1       4.071   6.073  17.871  0.00  0.00    +0.000 C 
ATOM      4  C   UNL     1       3.408   4.949  17.053  0.00  0.00    +0.000 C 
ATOM      5  C   UNL     1       3.107   7.288  17.863  0.00  0.00    +0.000 C 
ATOM      6  N   UNL     1       5.327   6.604  17.319  0.00  0.00    +0.000 NA
ATOM      7  C   UNL     1       6.633   6.022  17.665  0.00  0.00    +0.000 C 
ATOM      8  C   UNL     1       7.626   7.211  17.564  0.00  0.00    +0.000 C 
ATOM      9  C   UNL     1       7.118   4.928  16.693  0.00  0.00    +0.000 C 
ATOM     10  C   UNL     1       6.702   5.532  19.131  0.00  0.00    +0.000 C 
ENDROOT
BRANCH   6  11
ATOM     11  O   UNL     1       5.214   6.741  15.876  0.00  0.00    +0.000 OA
ATOM     12  H   UNL     1       6.087   7.079  15.630  0.00  0.00    +0.000 HD
ENDBRANCH   6  11
BRANCH   1  13
ATOM     13  O   UNL     1       5.331   3.460  19.055  0.00  0.00    +0.000 OA
BRANCH  13  15
ATOM     14  C   UNL     1       3.649   1.743  18.780  0.00  0.00    +0.000 C 
ATOM     15  C   UNL     1       4.383   2.658  19.754  0.00  0.00    +0.000 C 
ENDBRANCH  13  15
ENDBRANCH   1  13
TORSDOF 3
ENDMDL
MODEL 5
REMARK VINA RESULT:      -5.5      1.851      2.422
REMARK  Name = 
REMARK  8 active torsions:
REMARK  status: ('A' for Active; 'I' for Inactive)
REMARK    1  A    between atoms: C_1  and  C_2
REMARK    2  A    between atoms: C_2  and  O_3
REMARK    3  A    between atoms: O_3  and  C_4
REMARK    4  A    between atoms: C_6  and  C_7
REMARK    5  A    between atoms: C_6  and  C_8
REMARK    6  A    between atoms: N_9  and  O_10
REMARK    7  A    between atoms: C_11  and  C_12
REMARK    8  A    between atoms: C_11  and  C_13
REMARK                            x       y       z     vdW  Elec       q    Type
REMARK                         _______ _______ _______ _____ _____    ______ ____
ROOT
ATOM      1  C   UNL     1       4.797   4.920  18.828  0.00  0.00    +0.000 C 
ATOM      2  C   UNL     1       4.254   5.638  17.586  0.00  0.00    +0.000 C 
ATOM      3  C   UNL     1       5.251   5.713  16.406  0.00  0.00    +0.000 C 
ATOM      4  C   UNL     1       5.216   4.398  15.603  0.00  0.00    +0.000 C 
ATOM      5  C   UNL     1       4.763   6.846  15.466  0.00  0.00    +0.000 C 
ATOM      6  N   UNL     1       6.584   6.154  16.844  0.00  0.00    +0.000 NA
ATOM      7  C   UNL     1       7.156   5.730  18.131  0.00  0.00    +0.000 C 
ATOM      8  C   UNL     1       8.081   6.903  18.550  0.00  0.00    +0.000 C 
ATOM      9  C   UNL     1       8.026   4.459  18.051  0.00  0.00    +0.000 C 
ATOM     10  C   UNL     1       6.093   5.604  19.248  0.00  0.00    +0.000 C 
ENDROOT
BRANCH   6  11
ATOM     11  O   UNL     1       7.550   5.940  15.779  0.00  0.00    +0.000 OA
ATOM     12  H   UNL     1       8.365   5.764  16.271  0.00  0.00    +0.000 HD
ENDBRANCH   6  11
BRANCH   1  13
ATOM     13  O   UNL     1       4.908   3.513  18.611  0.00  0.00    +0.000 OA
BRANCH  13  15
ATOM     14  C   UNL     1       3.304   1.825  17.954  0.00  0.00    +0.000 C 
ATOM     15  C   UNL     1       3.760   2.790  19.044  0.00  0.00    +0.000 C 
ENDBRANCH  13  15
ENDBRANCH   1  13
TORSDOF 3
ENDMDL
MODEL 6
REMARK VINA RESULT:      -5.4      1.864      3.897
REMARK  Name = 
REMARK  8 active torsions:
REMARK  status: ('A' for Active; 'I' for Inactive)
REMARK    1  A    between atoms: C_1  and  C_2
REMARK    2  A    between atoms: C_2  and  O_3
REMARK    3  A    between atoms: O_3  and  C_4
REMARK    4  A    between atoms: C_6  and  C_7
REMARK    5  A    between atoms: C_6  and  C_8
REMARK    6  A    between atoms: N_9  and  O_10
REMARK    7  A    between atoms: C_11  and  C_12
REMARK    8  A    between atoms: C_11  and  C_13
REMARK                            x       y       z     vdW  Elec       q    Type
REMARK                         _______ _______ _______ _____ _____    ______ ____
ROOT
ATOM      1  C   UNL     1       5.397   7.090  16.988  0.00  0.00    +0.000 C 
ATOM      2  C   UNL     1       4.065   6.581  17.553  0.00  0.00    +0.000 C 
ATOM      3  C   UNL     1       4.023   5.058  17.817  0.00  0.00    +0.000 C 
ATOM      4  C   UNL     1       4.669   4.741  19.179  0.00  0.00    +0.000 C 
ATOM      5  C   UNL     1       2.529   4.648  17.901  0.00  0.00    +0.000 C 
ATOM      6  N   UNL     1       4.544   4.292  16.674  0.00  0.00    +0.000 NA
ATOM      7  C   UNL     1       5.687   4.768  15.880  0.00  0.00    +0.000 C 
ATOM      8  C   UNL     1       5.440   4.191  14.460  0.00  0.00    +0.000 C 
ATOM      9  C   UNL     1       7.056   4.245  16.361  0.00  0.00    +0.000 C 
ATOM     10  C   UNL     1       5.708   6.307  15.718  0.00  0.00    +0.000 C 
ENDROOT
BRANCH   6  11
ATOM     11  O   UNL     1       4.754   2.907  17.061  0.00  0.00    +0.000 OA
ATOM     12  H   UNL     1       3.890   2.658  17.419  0.00  0.00    +0.000 HD
ENDBRANCH   6  11
BRANCH   1  13
ATOM     13  O   UNL     1       6.428   7.060  17.975  0.00  0.00    +0.000 OA
BRANCH  13  15
ATOM     14  C   UNL     1       7.925   8.957  17.846  0.00  0.00    +0.000 C 
ATOM     15  C   UNL     1       7.689   7.497  17.476  0.00  0.00    +0.000 C 
ENDBRANCH  13  15
ENDBRANCH   1  13
TORSDOF 3
ENDMDL
MODEL 7
REMARK VINA RESULT:      -5.3      2.276      3.799
REMARK  Name = 
REMARK  8 active torsions:
REMARK  status: ('A' for Active; 'I' for Inactive)
REMARK    1  A    between atoms: C_1  and  C_2
REMARK    2  A    between atoms: C_2  and  O_3
REMARK    3  A    between atoms: O_3  and  C_4
REMARK    4  A    between atoms: C_6  and  C_7
REMARK    5  A    between atoms: C_6  and  C_8
REMARK    6  A    between atoms: N_9  and  O_10
REMARK    7  A    between atoms: C_11  and  C_12
REMARK    8  A    between atoms: C_11  and  C_13
REMARK                            x       y       z     vdW  Elec       q    Type
REMARK                         _______ _______ _______ _____ _____    ______ ____
ROOT
ATOM      1  C   UNL     1       3.260   5.473  19.593  0.00  0.00    +0.000 C 
ATOM      2  C   UNL     1       4.751   5.726  19.341  0.00  0.00    +0.000 C 
ATOM      3  C   UNL     1       5.295   5.089  18.041  0.00  0.00    +0.000 C 
ATOM      4  C   UNL     1       4.985   6.000  16.838  0.00  0.00    +0.000 C 
ATOM      5  C   UNL     1       6.838   5.009  18.180  0.00  0.00    +0.000 C 
ATOM      6  N   UNL     1       4.871   3.687  17.901  0.00  0.00    +0.000 NA
ATOM      7  C   UNL     1       3.534   3.237  18.317  0.00  0.00    +0.000 C 
ATOM      8  C   UNL     1       3.735   1.755  18.731  0.00  0.00    +0.000 C 
ATOM      9  C   UNL     1       2.478   3.266  17.194  0.00  0.00    +0.000 C 
ATOM     10  C   UNL     1       3.020   3.968  19.580  0.00  0.00    +0.000 C 
ENDROOT
BRANCH   6  11
ATOM     11  O   UNL     1       5.155   3.217  16.555  0.00  0.00    +0.000 OA
ATOM     12  H   UNL     1       5.988   3.664  16.349  0.00  0.00    +0.000 HD
ENDBRANCH   6  11
BRANCH   1  13
ATOM     13  O   UNL     1       2.443   6.215  18.687  0.00  0.00    +0.000 OA
BRANCH  13  15
ATOM     14  C   UNL     1       2.286   8.474  17.835  0.00  0.00    +0.000 C 
ATOM     15  C   UNL     1       2.283   7.578  19.069  0.00  0.00    +0.000 C 
ENDBRANCH  13  15
ENDBRANCH   1  13
TORSDOF 3
ENDMDL
MODEL 8
REMARK VINA RESULT:      -5.3      2.852      5.314
REMARK  Name = 
REMARK  8 active torsions:
REMARK  status: ('A' for Active; 'I' for Inactive)
REMARK    1  A    between atoms: C_1  and  C_2
REMARK    2  A    between atoms: C_2  and  O_3
REMARK    3  A    between atoms: O_3  and  C_4
REMARK    4  A    between atoms: C_6  and  C_7
REMARK    5  A    between atoms: C_6  and  C_8
REMARK    6  A    between atoms: N_9  and  O_10
REMARK    7  A    between atoms: C_11  and  C_12
REMARK    8  A    between atoms: C_11  and  C_13
REMARK                            x       y       z     vdW  Elec       q    Type
REMARK                         _______ _______ _______ _____ _____    ______ ____
ROOT
ATOM      1  C   UNL     1       4.825   4.065  18.654  0.00  0.00    +0.000 C 
ATOM      2  C   UNL     1       4.436   3.137  19.811  0.00  0.00    +0.000 C 
ATOM      3  C   UNL     1       2.913   3.021  20.053  0.00  0.00    +0.000 C 
ATOM      4  C   UNL     1       2.303   1.990  19.083  0.00  0.00    +0.000 C 
ATOM      5  C   UNL     1       2.717   2.480  21.493  0.00  0.00    +0.000 C 
ATOM      6  N   UNL     1       2.262   4.339  20.069  0.00  0.00    +0.000 NA
ATOM      7  C   UNL     1       2.680   5.422  19.166  0.00  0.00    +0.000 C 
ATOM      8  C   UNL     1       2.367   6.725  19.949  0.00  0.00    +0.000 C 
ATOM      9  C   UNL     1       1.897   5.480  17.839  0.00  0.00    +0.000 C 
ATOM     10  C   UNL     1       4.206   5.434  18.910  0.00  0.00    +0.000 C 
ENDROOT
BRANCH   6  11
ATOM     11  O   UNL     1       0.818   4.178  20.011  0.00  0.00    +0.000 OA
ATOM     12  H   UNL     1       0.517   4.738  20.742  0.00  0.00    +0.000 HD
ENDBRANCH   6  11
BRANCH   1  13
ATOM     13  O   UNL     1       4.497   3.488  17.390  0.00  0.00    +0.000 OA
BRANCH  13  15
ATOM     14  C   UNL     1       6.538   4.306  16.379  0.00  0.00    +0.000 C 
ATOM     15  C   UNL     1       5.017   4.228  16.288  0.00  0.00    +0.000 C 
ENDBRANCH  13  15
ENDBRANCH   1  13
TORSDOF 3
ENDMDL
MODEL 9
REMARK VINA RESULT:      -5.3      3.889      5.184
REMARK  Name = 
REMARK  8 active torsions:
REMARK  status: ('A' for Active; 'I' for Inactive)
REMARK    1  A    between atoms: C_1  and  C_2
REMARK    2  A    between atoms: C_2  and  O_3
REMARK    3  A    between atoms: O_3  and  C_4
REMARK    4  A    between atoms: C_6  and  C_7
REMARK    5  A    between atoms: C_6  and  C_8
REMARK    6  A    between atoms: N_9  and  O_10
REMARK    7  A    between atoms: C_11  and  C_12
REMARK    8  A    between atoms: C_11  and  C_13
REMARK                            x       y       z     vdW  Elec       q    Type
REMARK                         _______ _______ _______ _____ _____    ______ ____
ROOT
ATOM      1  C   UNL     1       3.677   4.978  19.502  0.00  0.00    +0.000 C 
ATOM      2  C   UNL     1       4.287   3.777  18.770  0.00  0.00    +0.000 C 
ATOM      3  C   UNL     1       3.266   2.684  18.377  0.00  0.00    +0.000 C 
ATOM      4  C   UNL     1       2.562   3.069  17.062  0.00  0.00    +0.000 C 
ATOM      5  C   UNL     1       4.066   1.382  18.114  0.00  0.00    +0.000 C 
ATOM      6  N   UNL     1       2.376   2.341  19.497  0.00  0.00    +0.000 NA
ATOM      7  C   UNL     1       1.883   3.361  20.435  0.00  0.00    +0.000 C 
ATOM      8  C   UNL     1       1.685   2.596  21.771  0.00  0.00    +0.000 C 
ATOM      9  C   UNL     1       0.524   3.977  20.047  0.00  0.00    +0.000 C 
ATOM     10  C   UNL     1       2.930   4.464  20.726  0.00  0.00    +0.000 C 
ENDROOT
BRANCH   6  11
ATOM     11  O   UNL     1       1.265   1.535  19.017  0.00  0.00    +0.000 OA
ATOM     12  H   UNL     1       1.642   0.643  19.013  0.00  0.00    +0.000 HD
ENDBRANCH   6  11
BRANCH   1  13
ATOM     13  O   UNL     1       2.896   5.786  18.621  0.00  0.00    +0.000 OA
BRANCH  13  15
ATOM     14  C   UNL     1       2.327   8.081  18.109  0.00  0.00    +0.000 C 
ATOM     15  C   UNL     1       2.513   7.030  19.199  0.00  0.00    +0.000 C 
ENDBRANCH  13  15
ENDBRANCH   1  13
TORSDOF 3
ENDMDL
