MODEL 1
REMARK VINA RESULT:      -7.1      0.000      0.000
REMARK  Name = 
REMARK  14 active torsions:
REMARK  status: ('A' for Active; 'I' for Inactive)
REMARK    1  A    between atoms: C_1  and  C_2
REMARK    2  A    between atoms: N_4  and  C_5
REMARK    3  A    between atoms: C_9  and  C_10
REMARK    4  A    between atoms: C_10  and  O_11
REMARK    5  A    between atoms: O_11  and  C_12
REMARK    6  A    between atoms: C_12  and  P_13
REMARK    7  A    between atoms: P_13  and  O_15
REMARK    8  A    between atoms: P_13  and  O_16
REMARK    9  A    between atoms: O_16  and  P_17
REMARK   10  A    between atoms: P_17  and  O_19
REMARK   11  A    between atoms: P_17  and  O_20
REMARK   12  A    between atoms: O_20  and  P_21
REMARK   13  A    between atoms: P_21  and  O_23
REMARK   14  A    between atoms: P_21  and  O_24
REMARK                            x       y       z     vdW  Elec       q    Type
REMARK                         _______ _______ _______ _____ _____    ______ ____
ROOT
ATOM      1  O   UNL     1       2.489   7.011  19.917  0.00  0.00    +0.000 OA
ENDROOT
BRANCH   1   2
ATOM      2  C   UNL     1       1.782   8.137  19.366  0.00  0.00    +0.000 C 
BRANCH   2   7
ATOM      3  C   UNL     1      -0.279  10.602  20.439  0.00  0.00    +0.000 C 
ATOM      4  C   UNL     1      -0.640   9.325  21.186  0.00  0.00    +0.000 C 
ATOM      5  C   UNL     1       0.715   8.799  21.569  0.00  0.00    +0.000 C 
ATOM      6  F   UNL     1       1.107   9.441  22.707  0.00  0.00    +0.000 F 
ATOM      7  C   UNL     1       1.620   9.232  20.426  0.00  0.00    +0.000 C 
ATOM      8  O   UNL     1       0.986  10.369  19.801  0.00  0.00    +0.000 OA
BRANCH   3  12
ATOM      9  C   UNL     1      -2.596   9.684  16.135  0.00  0.00    +0.000 C 
ATOM     10  C   UNL     1      -2.399  10.468  17.396  0.00  0.00    +0.000 A 
ATOM     11  C   UNL     1      -1.416  10.241  18.272  0.00  0.00    +0.000 A 
ATOM     12  N   UNL     1      -1.286  10.961  19.444  0.00  0.00    +0.000 N 
ATOM     13  C   UNL     1      -2.183  11.962  19.784  0.00  0.00    +0.000 A 
ATOM     14  O   UNL     1      -2.178  12.554  20.857  0.00  0.00    +0.000 OA
ATOM     15  N   UNL     1      -3.134  12.251  18.840  0.00  0.00    +0.000 N 
ATOM     16  C   UNL     1      -3.364  11.548  17.693  0.00  0.00    +0.000 A 
ATOM     17  O   UNL     1      -4.325  11.782  16.967  0.00  0.00    +0.000 OA
ATOM     18  H   UNL     1      -3.798  12.968  19.079  0.00  0.00    +0.000 HD
ENDBRANCH   3  12
ENDBRANCH   2   7
ENDBRANCH   1   2
BRANCH   1  19
ATOM     19  C   UNL     1       2.617   5.974  18.935  0.00  0.00    +0.000 C 
BRANCH  19  20
ATOM     20  P   UNL     1       4.274   5.204  19.044  0.00  0.00    +0.000 P 
ATOM     21  O   UNL     1       3.644   3.944  19.664  0.00  0.00    +0.000 OA
BRANCH  20  22
ATOM     22  O   UNL     1       4.060   4.843  17.422  0.00  0.00    +0.000 OA
ATOM     23  H   UNL     1       3.241   5.279  17.100  0.00  0.00    +0.000 HD
ENDBRANCH  20  22
BRANCH  20  24
ATOM     24  O   UNL     1       5.840   4.475  19.147  0.00  0.00    +0.000 OA
BRANCH  24  25
ATOM     25  P   UNL     1       6.716   4.781  17.686  0.00  0.00    +0.000 P 
ATOM     26  O   UNL     1       6.515   6.295  17.878  0.00  0.00    +0.000 OA
BRANCH  25  27
ATOM     27  O   UNL     1       8.122   4.535  18.482  0.00  0.00    +0.000 OA
ATOM     28  H   UNL     1       8.222   3.562  18.553  0.00  0.00    +0.000 HD
ENDBRANCH  25  27
BRANCH  25  29
ATOM     29  O   UNL     1       7.591   5.088  16.226  0.00  0.00    +0.000 OA
BRANCH  29  30
ATOM     30  P   UNL     1       6.638   4.593  14.869  0.00  0.00    +0.000 P 
ATOM     31  O   UNL     1       5.964   3.469  15.654  0.00  0.00    +0.000 OA
BRANCH  30  32
ATOM     32  O   UNL     1       5.671   5.893  15.047  0.00  0.00    +0.000 OA
ATOM     33  H   UNL     1       5.809   6.622  14.423  0.00  0.00    +0.000 HD
ENDBRANCH  30  32
BRANCH  30  34
ATOM     34  O   UNL     1       5.686   4.097  13.512  0.00  0.00    +0.000 OA
ATOM     35  H   UNL     1       6.068   3.209  13.335  0.00  0.00    +0.000 HD
ENDBRANCH  30  34
ENDBRANCH  29  30
ENDBRANCH  25  29
ENDBRANCH  24  25
ENDBRANCH  20  24
ENDBRANCH  19  20
ENDBRANCH   1  19
TORSDOF 13
ENDMDL
MODEL 2
REMARK VINA RESULT:      -7.0      4.851      9.320
REMARK  Name = 
REMARK  14 active torsions:
REMARK  status: ('A' for Active; 'I' for Inactive)
REMARK    1  A    between atoms: C_1  and  C_2
REMARK    2  A    between atoms: N_4  and  C_5
REMARK    3  A    between atoms: C_9  and  C_10
REMARK    4  A    between atoms: C_10  and  O_11
REMARK    5  A    between atoms: O_11  and  C_12
REMARK    6  A    between atoms: C_12  and  P_13
REMARK    7  A    between atoms: P_13  and  O_15
REMARK    8  A    between atoms: P_13  and  O_16
REMARK    9  A    between atoms: O_16  and  P_17
REMARK   10  A    between atoms: P_17  and  O_19
REMARK   11  A    between atoms: P_17  and  O_20
REMARK   12  A    between atoms: O_20  and  P_21
REMARK   13  A    between atoms: P_21  and  O_23
REMARK   14  A    between atoms: P_21  and  O_24
REMARK                            x       y       z     vdW  Elec       q    Type
REMARK                         _______ _______ _______ _____ _____    ______ ____
ROOT
ATOM      1  O   UNL     1       0.958   7.379  20.660  0.00  0.00    +0.000 OA
ENDROOT
BRANCH   1   2
ATOM      2  C   UNL     1       1.823   6.306  21.075  0.00  0.00    +0.000 C 
BRANCH   2   7
ATOM      3  C   UNL     1       2.979   3.780  19.137  0.00  0.00    +0.000 C 
ATOM      4  C   UNL     1       3.155   3.377  20.595  0.00  0.00    +0.000 C 
ATOM      5  C   UNL     1       1.830   3.773  21.186  0.00  0.00    +0.000 C 
ATOM      6  F   UNL     1       0.943   2.768  20.938  0.00  0.00    +0.000 F 
ATOM      7  C   UNL     1       1.418   5.000  20.386  0.00  0.00    +0.000 C 
ATOM      8  O   UNL     1       2.113   4.925  19.122  0.00  0.00    +0.000 OA
BRANCH   3  12
ATOM      9  C   UNL     1       7.561   5.698  19.398  0.00  0.00    +0.000 C 
ATOM     10  C   UNL     1       6.454   4.996  18.672  0.00  0.00    +0.000 A 
ATOM     11  C   UNL     1       5.238   4.787  19.184  0.00  0.00    +0.000 A 
ATOM     12  N   UNL     1       4.252   4.103  18.499  0.00  0.00    +0.000 N 
ATOM     13  C   UNL     1       4.476   3.583  17.233  0.00  0.00    +0.000 A 
ATOM     14  O   UNL     1       3.677   2.877  16.629  0.00  0.00    +0.000 OA
ATOM     15  N   UNL     1       5.693   3.880  16.677  0.00  0.00    +0.000 N 
ATOM     16  C   UNL     1       6.735   4.492  17.311  0.00  0.00    +0.000 A 
ATOM     17  O   UNL     1       7.842   4.596  16.792  0.00  0.00    +0.000 OA
ATOM     18  H   UNL     1       5.872   3.498  15.763  0.00  0.00    +0.000 HD
ENDBRANCH   3  12
ENDBRANCH   2   7
ENDBRANCH   1   2
BRANCH   1  19
ATOM     19  C   UNL     1       1.253   8.572  21.396  0.00  0.00    +0.000 C 
BRANCH  19  20
ATOM     20  P   UNL     1       0.915  10.048  20.369  0.00  0.00    +0.000 P 
ATOM     21  O   UNL     1      -0.574   9.665  20.313  0.00  0.00    +0.000 OA
BRANCH  20  22
ATOM     22  O   UNL     1       0.925  10.889  21.817  0.00  0.00    +0.000 OA
ATOM     23  H   UNL     1       0.008  11.161  22.040  0.00  0.00    +0.000 HD
ENDBRANCH  20  22
BRANCH  20  24
ATOM     24  O   UNL     1       0.595  11.444  19.397  0.00  0.00    +0.000 OA
BRANCH  24  25
ATOM     25  P   UNL     1      -1.050  11.411  18.864  0.00  0.00    +0.000 P 
ATOM     26  O   UNL     1      -0.869  12.789  18.204  0.00  0.00    +0.000 OA
BRANCH  25  27
ATOM     27  O   UNL     1      -0.632  10.406  17.644  0.00  0.00    +0.000 OA
ATOM     28  H   UNL     1      -0.784   9.499  17.981  0.00  0.00    +0.000 HD
ENDBRANCH  25  27
BRANCH  25  29
ATOM     29  O   UNL     1      -2.696  11.379  18.332  0.00  0.00    +0.000 OA
BRANCH  29  30
ATOM     30  P   UNL     1      -2.810  10.471  16.864  0.00  0.00    +0.000 P 
ATOM     31  O   UNL     1      -4.336  10.539  16.850  0.00  0.00    +0.000 OA
BRANCH  30  32
ATOM     32  O   UNL     1      -2.306  11.760  16.002  0.00  0.00    +0.000 OA
ATOM     33  H   UNL     1      -2.912  12.085  15.319  0.00  0.00    +0.000 HD
ENDBRANCH  30  32
BRANCH  30  34
ATOM     34  O   UNL     1      -2.924   9.562  15.396  0.00  0.00    +0.000 OA
ATOM     35  H   UNL     1      -3.643  10.049  14.935  0.00  0.00    +0.000 HD
ENDBRANCH  30  34
ENDBRANCH  29  30
ENDBRANCH  25  29
ENDBRANCH  24  25
ENDBRANCH  20  24
ENDBRANCH  19  20
ENDBRANCH   1  19
TORSDOF 13
ENDMDL
MODEL 3
REMARK VINA RESULT:      -6.9      1.802      3.742
REMARK  Name = 
REMARK  14 active torsions:
REMARK  status: ('A' for Active; 'I' for Inactive)
REMARK    1  A    between atoms: C_1  and  C_2
REMARK    2  A    between atoms: N_4  and  C_5
REMARK    3  A    between atoms: C_9  and  C_10
REMARK    4  A    between atoms: C_10  and  O_11
REMARK    5  A    between atoms: O_11  and  C_12
REMARK    6  A    between atoms: C_12  and  P_13
REMARK    7  A    between atoms: P_13  and  O_15
REMARK    8  A    between atoms: P_13  and  O_16
REMARK    9  A    between atoms: O_16  and  P_17
REMARK   10  A    between atoms: P_17  and  O_19
REMARK   11  A    between atoms: P_17  and  O_20
REMARK   12  A    between atoms: O_20  and  P_21
REMARK   13  A    between atoms: P_21  and  O_23
REMARK   14  A    between atoms: P_21  and  O_24
REMARK                            x       y       z     vdW  Elec       q    Type
REMARK                         _______ _______ _______ _____ _____    ______ ____
ROOT
ATOM      1  O   UNL     1       2.679   7.543  18.554  0.00  0.00    +0.000 OA
ENDROOT
BRANCH   1   2
ATOM      2  C   UNL     1       1.839   8.621  18.100  0.00  0.00    +0.000 C 
BRANCH   2   7
ATOM      3  C   UNL     1      -0.312  10.837  19.489  0.00  0.00    +0.000 C 
ATOM      4  C   UNL     1      -0.424   9.525  20.254  0.00  0.00    +0.000 C 
ATOM      5  C   UNL     1       1.020   9.152  20.439  0.00  0.00    +0.000 C 
ATOM      6  F   UNL     1       1.492   9.830  21.525  0.00  0.00    +0.000 F 
ATOM      7  C   UNL     1       1.706   9.687  19.191  0.00  0.00    +0.000 C 
ATOM      8  O   UNL     1       0.871  10.749  18.680  0.00  0.00    +0.000 OA
BRANCH   3  12
ATOM      9  C   UNL     1      -2.985   9.806  15.423  0.00  0.00    +0.000 C 
ATOM     10  C   UNL     1      -2.753  10.537  16.710  0.00  0.00    +0.000 A 
ATOM     11  C   UNL     1      -1.644  10.422  17.447  0.00  0.00    +0.000 A 
ATOM     12  N   UNL     1      -1.480  11.085  18.648  0.00  0.00    +0.000 N 
ATOM     13  C   UNL     1      -2.470  11.906  19.165  0.00  0.00    +0.000 A 
ATOM     14  O   UNL     1      -2.421  12.427  20.273  0.00  0.00    +0.000 OA
ATOM     15  N   UNL     1      -3.565  12.091  18.362  0.00  0.00    +0.000 N 
ATOM     16  C   UNL     1      -3.827  11.427  17.199  0.00  0.00    +0.000 A 
ATOM     17  O   UNL     1      -4.897  11.545  16.609  0.00  0.00    +0.000 OA
ATOM     18  H   UNL     1      -4.297  12.676  18.731  0.00  0.00    +0.000 HD
ENDBRANCH   3  12
ENDBRANCH   2   7
ENDBRANCH   1   2
BRANCH   1  19
ATOM     19  C   UNL     1       3.743   7.312  17.622  0.00  0.00    +0.000 C 
BRANCH  19  20
ATOM     20  P   UNL     1       4.110   5.522  17.515  0.00  0.00    +0.000 P 
ATOM     21  O   UNL     1       4.923   5.769  16.233  0.00  0.00    +0.000 OA
BRANCH  20  22
ATOM     22  O   UNL     1       5.297   5.839  18.654  0.00  0.00    +0.000 OA
ATOM     23  H   UNL     1       4.971   6.525  19.278  0.00  0.00    +0.000 HD
ENDBRANCH  20  22
BRANCH  20  24
ATOM     24  O   UNL     1       4.457   3.830  17.414  0.00  0.00    +0.000 OA
BRANCH  24  25
ATOM     25  P   UNL     1       3.206   2.936  18.208  0.00  0.00    +0.000 P 
ATOM     26  O   UNL     1       2.294   3.115  16.982  0.00  0.00    +0.000 OA
BRANCH  25  27
ATOM     27  O   UNL     1       3.976   1.541  17.842  0.00  0.00    +0.000 OA
ATOM     28  H   UNL     1       4.934   1.739  17.909  0.00  0.00    +0.000 HD
ENDBRANCH  25  27
BRANCH  25  29
ATOM     29  O   UNL     1       1.955   2.043  19.001  0.00  0.00    +0.000 OA
BRANCH  29  30
ATOM     30  P   UNL     1       1.880   2.510  20.665  0.00  0.00    +0.000 P 
ATOM     31  O   UNL     1       2.978   3.559  20.500  0.00  0.00    +0.000 OA
BRANCH  30  32
ATOM     32  O   UNL     1       0.477   3.299  20.402  0.00  0.00    +0.000 OA
ATOM     33  H   UNL     1      -0.156   2.866  19.811  0.00  0.00    +0.000 HD
ENDBRANCH  30  32
BRANCH  30  34
ATOM     34  O   UNL     1       1.806   2.977  22.330  0.00  0.00    +0.000 OA
ATOM     35  H   UNL     1       2.273   3.841  22.298  0.00  0.00    +0.000 HD
ENDBRANCH  30  34
ENDBRANCH  29  30
ENDBRANCH  25  29
ENDBRANCH  24  25
ENDBRANCH  20  24
ENDBRANCH  19  20
ENDBRANCH   1  19
TORSDOF 13
ENDMDL
MODEL 4
REMARK VINA RESULT:      -6.7      5.037      9.466
REMARK  Name = 
REMARK  14 active torsions:
REMARK  status: ('A' for Active; 'I' for Inactive)
REMARK    1  A    between atoms: C_1  and  C_2
REMARK    2  A    between atoms: N_4  and  C_5
REMARK    3  A    between atoms: C_9  and  C_10
REMARK    4  A    between atoms: C_10  and  O_11
REMARK    5  A    between atoms: O_11  and  C_12
REMARK    6  A    between atoms: C_12  and  P_13
REMARK    7  A    between atoms: P_13  and  O_15
REMARK    8  A    between atoms: P_13  and  O_16
REMARK    9  A    between atoms: O_16  and  P_17
REMARK   10  A    between atoms: P_17  and  O_19
REMARK   11  A    between atoms: P_17  and  O_20
REMARK   12  A    between atoms: O_20  and  P_21
REMARK   13  A    between atoms: P_21  and  O_23
REMARK   14  A    between atoms: P_21  and  O_24
REMARK                            x       y       z     vdW  Elec       q    Type
REMARK                         _______ _______ _______ _____ _____    ______ ____
ROOT
ATOM      1  O   UNL     1       1.095   6.207  21.168  0.00  0.00    +0.000 OA
ENDROOT
BRANCH   1   2
ATOM      2  C   UNL     1       2.011   5.201  20.698  0.00  0.00    +0.000 C 
BRANCH   2   7
ATOM      3  C   UNL     1       2.827   3.511  17.878  0.00  0.00    +0.000 C 
ATOM      4  C   UNL     1       2.685   2.502  19.010  0.00  0.00    +0.000 C 
ATOM      5  C   UNL     1       1.415   2.960  19.673  0.00  0.00    +0.000 C 
ATOM      6  F   UNL     1       0.367   2.437  18.975  0.00  0.00    +0.000 F 
ATOM      7  C   UNL     1       1.422   4.470  19.488  0.00  0.00    +0.000 C 
ATOM      8  O   UNL     1       2.262   4.746  18.346  0.00  0.00    +0.000 OA
BRANCH   3  12
ATOM      9  C   UNL     1       6.224   4.518  14.388  0.00  0.00    +0.000 C 
ATOM     10  C   UNL     1       5.817   4.233  15.801  0.00  0.00    +0.000 A 
ATOM     11  C   UNL     1       4.569   3.932  16.173  0.00  0.00    +0.000 A 
ATOM     12  N   UNL     1       4.221   3.710  17.492  0.00  0.00    +0.000 N 
ATOM     13  C   UNL     1       5.155   3.798  18.513  0.00  0.00    +0.000 A 
ATOM     14  O   UNL     1       4.880   3.720  19.704  0.00  0.00    +0.000 OA
ATOM     15  N   UNL     1       6.449   4.017  18.115  0.00  0.00    +0.000 N 
ATOM     16  C   UNL     1       6.859   4.306  16.847  0.00  0.00    +0.000 A 
ATOM     17  O   UNL     1       8.016   4.630  16.594  0.00  0.00    +0.000 OA
ATOM     18  H   UNL     1       7.135   4.095  18.848  0.00  0.00    +0.000 HD
ENDBRANCH   3  12
ENDBRANCH   2   7
ENDBRANCH   1   2
BRANCH   1  19
ATOM     19  C   UNL     1       1.548   7.512  20.786  0.00  0.00    +0.000 C 
BRANCH  19  20
ATOM     20  P   UNL     1       0.478   8.795  21.532  0.00  0.00    +0.000 P 
ATOM     21  O   UNL     1       1.656   9.270  22.400  0.00  0.00    +0.000 OA
BRANCH  20  22
ATOM     22  O   UNL     1       0.794   9.672  20.141  0.00  0.00    +0.000 OA
ATOM     23  H   UNL     1       0.308  10.525  20.178  0.00  0.00    +0.000 HD
ENDBRANCH  20  22
BRANCH  20  24
ATOM     24  O   UNL     1      -0.534  10.008  22.238  0.00  0.00    +0.000 OA
BRANCH  24  25
ATOM     25  P   UNL     1      -0.646  11.361  21.165  0.00  0.00    +0.000 P 
ATOM     26  O   UNL     1      -1.805  11.933  22.000  0.00  0.00    +0.000 OA
BRANCH  25  27
ATOM     27  O   UNL     1       0.649  12.042  21.895  0.00  0.00    +0.000 OA
ATOM     28  H   UNL     1       1.338  11.345  21.922  0.00  0.00    +0.000 HD
ENDBRANCH  25  27
BRANCH  25  29
ATOM     29  O   UNL     1      -0.759  12.714  20.093  0.00  0.00    +0.000 OA
BRANCH  29  30
ATOM     30  P   UNL     1      -1.866  12.347  18.816  0.00  0.00    +0.000 P 
ATOM     31  O   UNL     1      -0.865  12.743  17.731  0.00  0.00    +0.000 OA
BRANCH  30  32
ATOM     32  O   UNL     1      -1.643  10.749  19.054  0.00  0.00    +0.000 OA
ATOM     33  H   UNL     1      -1.833  10.170  18.300  0.00  0.00    +0.000 HD
ENDBRANCH  30  32
BRANCH  30  34
ATOM     34  O   UNL     1      -2.972  11.980  17.537  0.00  0.00    +0.000 OA
ATOM     35  H   UNL     1      -3.213  11.054  17.764  0.00  0.00    +0.000 HD
ENDBRANCH  30  34
ENDBRANCH  29  30
ENDBRANCH  25  29
ENDBRANCH  24  25
ENDBRANCH  20  24
ENDBRANCH  19  20
ENDBRANCH   1  19
TORSDOF 13
ENDMDL
MODEL 5
REMARK VINA RESULT:      -6.6      5.037      9.244
REMARK  Name = 
REMARK  14 active torsions:
REMARK  status: ('A' for Active; 'I' for Inactive)
REMARK    1  A    between atoms: C_1  and  C_2
REMARK    2  A    between atoms: N_4  and  C_5
REMARK    3  A    between atoms: C_9  and  C_10
REMARK    4  A    between atoms: C_10  and  O_11
REMARK    5  A    between atoms: O_11  and  C_12
REMARK    6  A    between atoms: C_12  and  P_13
REMARK    7  A    between atoms: P_13  and  O_15
REMARK    8  A    between atoms: P_13  and  O_16
REMARK    9  A    between atoms: O_16  and  P_17
REMARK   10  A    between atoms: P_17  and  O_19
REMARK   11  A    between atoms: P_17  and  O_20
REMARK   12  A    between atoms: O_20  and  P_21
REMARK   13  A    between atoms: P_21  and  O_23
REMARK   14  A    between atoms: P_21  and  O_24
REMARK                            x       y       z     vdW  Elec       q    Type
REMARK                         _______ _______ _______ _____ _____    ______ ____
ROOT
ATOM      1  O   UNL     1       2.325   6.630  18.896  0.00  0.00    +0.000 OA
ENDROOT
BRANCH   1   2
ATOM      2  C   UNL     1       1.764   5.484  18.230  0.00  0.00    +0.000 C 
BRANCH   2   7
ATOM      3  C   UNL     1       4.575   3.595  18.230  0.00  0.00    +0.000 C 
ATOM      4  C   UNL     1       4.654   4.561  19.405  0.00  0.00    +0.000 C 
ATOM      5  C   UNL     1       3.272   4.451  19.986  0.00  0.00    +0.000 C 
ATOM      6  F   UNL     1       3.243   3.353  20.795  0.00  0.00    +0.000 F 
ATOM      7  C   UNL     1       2.380   4.194  18.781  0.00  0.00    +0.000 C 
ATOM      8  O   UNL     1       3.220   3.625  17.754  0.00  0.00    +0.000 OA
BRANCH   3  12
ATOM      9  C   UNL     1       5.479   4.285  13.388  0.00  0.00    +0.000 C 
ATOM     10  C   UNL     1       5.879   4.317  14.831  0.00  0.00    +0.000 A 
ATOM     11  C   UNL     1       5.107   3.882  15.831  0.00  0.00    +0.000 A 
ATOM     12  N   UNL     1       5.494   3.960  17.155  0.00  0.00    +0.000 N 
ATOM     13  C   UNL     1       6.713   4.509  17.524  0.00  0.00    +0.000 A 
ATOM     14  O   UNL     1       7.056   4.703  18.684  0.00  0.00    +0.000 OA
ATOM     15  N   UNL     1       7.537   4.870  16.490  0.00  0.00    +0.000 N 
ATOM     16  C   UNL     1       7.204   4.881  15.167  0.00  0.00    +0.000 A 
ATOM     17  O   UNL     1       7.948   5.352  14.312  0.00  0.00    +0.000 OA
ATOM     18  H   UNL     1       8.420   5.280  16.744  0.00  0.00    +0.000 HD
ENDBRANCH   3  12
ENDBRANCH   2   7
ENDBRANCH   1   2
BRANCH   1  19
ATOM     19  C   UNL     1       2.890   7.536  17.940  0.00  0.00    +0.000 C 
BRANCH  19  20
ATOM     20  P   UNL     1       2.217   9.219  18.191  0.00  0.00    +0.000 P 
ATOM     21  O   UNL     1       1.080   8.908  17.203  0.00  0.00    +0.000 OA
BRANCH  20  22
ATOM     22  O   UNL     1       1.542   8.591  19.589  0.00  0.00    +0.000 OA
ATOM     23  H   UNL     1       0.836   7.952  19.348  0.00  0.00    +0.000 HD
ENDBRANCH  20  22
BRANCH  20  24
ATOM     24  O   UNL     1       1.582  10.810  18.428  0.00  0.00    +0.000 OA
BRANCH  24  25
ATOM     25  P   UNL     1       0.340  10.763  19.632  0.00  0.00    +0.000 P 
ATOM     26  O   UNL     1       0.329  12.300  19.689  0.00  0.00    +0.000 OA
BRANCH  25  27
ATOM     27  O   UNL     1      -0.772  10.471  18.469  0.00  0.00    +0.000 OA
ATOM     28  H   UNL     1      -1.388  11.232  18.492  0.00  0.00    +0.000 HD
ENDBRANCH  25  27
BRANCH  25  29
ATOM     29  O   UNL     1      -0.900  10.715  20.837  0.00  0.00    +0.000 OA
BRANCH  29  30
ATOM     30  P   UNL     1      -0.234  10.145  22.328  0.00  0.00    +0.000 P 
ATOM     31  O   UNL     1      -0.457   8.680  21.957  0.00  0.00    +0.000 OA
BRANCH  30  32
ATOM     32  O   UNL     1       1.272  10.502  21.816  0.00  0.00    +0.000 OA
ATOM     33  H   UNL     1       1.619  11.371  22.069  0.00  0.00    +0.000 HD
ENDBRANCH  30  32
BRANCH  30  34
ATOM     34  O   UNL     1       0.432   9.574  23.820  0.00  0.00    +0.000 OA
ATOM     35  H   UNL     1      -0.380   9.508  24.369  0.00  0.00    +0.000 HD
ENDBRANCH  30  34
ENDBRANCH  29  30
ENDBRANCH  25  29
ENDBRANCH  24  25
ENDBRANCH  20  24
ENDBRANCH  19  20
ENDBRANCH   1  19
TORSDOF 13
ENDMDL
MODEL 6
REMARK VINA RESULT:      -6.6      2.156      3.534
REMARK  Name = 
REMARK  14 active torsions:
REMARK  status: ('A' for Active; 'I' for Inactive)
REMARK    1  A    between atoms: C_1  and  C_2
REMARK    2  A    between atoms: N_4  and  C_5
REMARK    3  A    between atoms: C_9  and  C_10
REMARK    4  A    between atoms: C_10  and  O_11
REMARK    5  A    between atoms: O_11  and  C_12
REMARK    6  A    between atoms: C_12  and  P_13
REMARK    7  A    between atoms: P_13  and  O_15
REMARK    8  A    between atoms: P_13  and  O_16
REMARK    9  A    between atoms: O_16  and  P_17
REMARK   10  A    between atoms: P_17  and  O_19
REMARK   11  A    between atoms: P_17  and  O_20
REMARK   12  A    between atoms: O_20  and  P_21
REMARK   13  A    between atoms: P_21  and  O_23
REMARK   14  A    between atoms: P_21  and  O_24
REMARK                            x       y       z     vdW  Elec       q    Type
REMARK                         _______ _______ _______ _____ _____    ______ ____
ROOT
ATOM      1  O   UNL     1       1.927   8.743  18.715  0.00  0.00    +0.000 OA
ENDROOT
BRANCH   1   2
ATOM      2  C   UNL     1       1.681  10.038  18.136  0.00  0.00    +0.000 C 
BRANCH   2   7
ATOM      3  C   UNL     1      -0.859  11.772  19.557  0.00  0.00    +0.000 C 
ATOM      4  C   UNL     1      -0.693  10.465  20.320  0.00  0.00    +0.000 C 
ATOM      5  C   UNL     1       0.800  10.392  20.487  0.00  0.00    +0.000 C 
ATOM      6  F   UNL     1       1.138  11.152  21.568  0.00  0.00    +0.000 F 
ATOM      7  C   UNL     1       1.347  11.056  19.232  0.00  0.00    +0.000 C 
ATOM      8  O   UNL     1       0.308  11.926  18.733  0.00  0.00    +0.000 OA
BRANCH   3  12
ATOM      9  C   UNL     1      -3.202  10.506  15.357  0.00  0.00    +0.000 C 
ATOM     10  C   UNL     1      -3.163  11.121  16.722  0.00  0.00    +0.000 A 
ATOM     11  C   UNL     1      -2.055  11.237  17.459  0.00  0.00    +0.000 A 
ATOM     12  N   UNL     1      -2.062  11.778  18.730  0.00  0.00    +0.000 N 
ATOM     13  C   UNL     1      -3.234  12.224  19.322  0.00  0.00    +0.000 A 
ATOM     14  O   UNL     1      -3.315  12.608  20.483  0.00  0.00    +0.000 OA
ATOM     15  N   UNL     1      -4.351  12.186  18.528  0.00  0.00    +0.000 N 
ATOM     16  C   UNL     1      -4.435  11.613  17.292  0.00  0.00    +0.000 A 
ATOM     17  O   UNL     1      -5.505  11.493  16.702  0.00  0.00    +0.000 OA
ATOM     18  H   UNL     1      -5.210  12.496  18.949  0.00  0.00    +0.000 HD
ENDBRANCH   3  12
ENDBRANCH   2   7
ENDBRANCH   1   2
BRANCH   1  19
ATOM     19  C   UNL     1       1.954   7.738  17.695  0.00  0.00    +0.000 C 
BRANCH  19  20
ATOM     20  P   UNL     1       3.324   6.564  18.001  0.00  0.00    +0.000 P 
ATOM     21  O   UNL     1       3.178   6.794  19.516  0.00  0.00    +0.000 OA
BRANCH  20  22
ATOM     22  O   UNL     1       2.166   5.372  17.795  0.00  0.00    +0.000 OA
ATOM     23  H   UNL     1       2.554   4.501  18.029  0.00  0.00    +0.000 HD
ENDBRANCH  20  22
BRANCH  20  24
ATOM     24  O   UNL     1       4.620   5.455  18.291  0.00  0.00    +0.000 OA
BRANCH  24  25
ATOM     25  P   UNL     1       3.973   3.926  18.777  0.00  0.00    +0.000 P 
ATOM     26  O   UNL     1       4.124   3.399  17.340  0.00  0.00    +0.000 OA
BRANCH  25  27
ATOM     27  O   UNL     1       5.418   3.524  19.427  0.00  0.00    +0.000 OA
ATOM     28  H   UNL     1       5.624   4.228  20.078  0.00  0.00    +0.000 HD
ENDBRANCH  25  27
BRANCH  25  29
ATOM     29  O   UNL     1       3.325   2.397  19.263  0.00  0.00    +0.000 OA
BRANCH  29  30
ATOM     30  P   UNL     1       2.465   2.582  20.753  0.00  0.00    +0.000 P 
ATOM     31  O   UNL     1       3.642   2.074  21.584  0.00  0.00    +0.000 OA
BRANCH  30  32
ATOM     32  O   UNL     1       2.646   4.201  20.680  0.00  0.00    +0.000 OA
ATOM     33  H   UNL     1       1.839   4.729  20.771  0.00  0.00    +0.000 HD
ENDBRANCH  30  32
BRANCH  30  34
ATOM     34  O   UNL     1       1.606   2.766  22.243  0.00  0.00    +0.000 OA
ATOM     35  H   UNL     1       0.678   2.768  21.920  0.00  0.00    +0.000 HD
ENDBRANCH  30  34
ENDBRANCH  29  30
ENDBRANCH  25  29
ENDBRANCH  24  25
ENDBRANCH  20  24
ENDBRANCH  19  20
ENDBRANCH   1  19
TORSDOF 13
ENDMDL
MODEL 7
REMARK VINA RESULT:      -6.6      4.648      9.429
REMARK  Name = 
REMARK  14 active torsions:
REMARK  status: ('A' for Active; 'I' for Inactive)
REMARK    1  A    between atoms: C_1  and  C_2
REMARK    2  A    between atoms: N_4  and  C_5
REMARK    3  A    between atoms: C_9  and  C_10
REMARK    4  A    between atoms: C_10  and  O_11
REMARK    5  A    between atoms: O_11  and  C_12
REMARK    6  A    between atoms: C_12  and  P_13
REMARK    7  A    between atoms: P_13  and  O_15
REMARK    8  A    between atoms: P_13  and  O_16
REMARK    9  A    between atoms: O_16  and  P_17
REMARK   10  A    between atoms: P_17  and  O_19
REMARK   11  A    between atoms: P_17  and  O_20
REMARK   12  A    between atoms: O_20  and  P_21
REMARK   13  A    between atoms: P_21  and  O_23
REMARK   14  A    between atoms: P_21  and  O_24
REMARK                            x       y       z     vdW  Elec       q    Type
REMARK                         _______ _______ _______ _____ _____    ______ ____
ROOT
ATOM      1  O   UNL     1       1.685   8.811  18.089  0.00  0.00    +0.000 OA
ENDROOT
BRANCH   1   2
ATOM      2  C   UNL     1       2.062   8.082  19.272  0.00  0.00    +0.000 C 
BRANCH   2   7
ATOM      3  C   UNL     1       3.012   4.901  18.599  0.00  0.00    +0.000 C 
ATOM      4  C   UNL     1       3.179   5.139  20.094  0.00  0.00    +0.000 C 
ATOM      5  C   UNL     1       1.894   5.838  20.440  0.00  0.00    +0.000 C 
ATOM      6  F   UNL     1       0.935   4.886  20.623  0.00  0.00    +0.000 F 
ATOM      7  C   UNL     1       1.557   6.638  19.191  0.00  0.00    +0.000 C 
ATOM      8  O   UNL     1       2.228   5.990  18.088  0.00  0.00    +0.000 OA
BRANCH   3  12
ATOM      9  C   UNL     1       7.395   6.956  17.453  0.00  0.00    +0.000 C 
ATOM     10  C   UNL     1       6.401   5.835  17.409  0.00  0.00    +0.000 A 
ATOM     11  C   UNL     1       5.174   5.903  17.933  0.00  0.00    +0.000 A 
ATOM     12  N   UNL     1       4.296   4.836  17.906  0.00  0.00    +0.000 N 
ATOM     13  C   UNL     1       4.647   3.622  17.336  0.00  0.00    +0.000 A 
ATOM     14  O   UNL     1       3.951   2.614  17.383  0.00  0.00    +0.000 OA
ATOM     15  N   UNL     1       5.872   3.588  16.722  0.00  0.00    +0.000 N 
ATOM     16  C   UNL     1       6.815   4.573  16.760  0.00  0.00    +0.000 A 
ATOM     17  O   UNL     1       7.943   4.413  16.304  0.00  0.00    +0.000 OA
ATOM     18  H   UNL     1       6.144   2.708  16.315  0.00  0.00    +0.000 HD
ENDBRANCH   3  12
ENDBRANCH   2   7
ENDBRANCH   1   2
BRANCH   1  19
ATOM     19  C   UNL     1       1.961  10.207  18.254  0.00  0.00    +0.000 C 
BRANCH  19  20
ATOM     20  P   UNL     1       0.606  11.012  19.185  0.00  0.00    +0.000 P 
ATOM     21  O   UNL     1       1.300  12.374  19.012  0.00  0.00    +0.000 OA
BRANCH  20  22
ATOM     22  O   UNL     1      -0.237  10.952  17.739  0.00  0.00    +0.000 OA
ATOM     23  H   UNL     1      -0.104  11.795  17.252  0.00  0.00    +0.000 HD
ENDBRANCH  20  22
BRANCH  20  24
ATOM     24  O   UNL     1      -0.675  11.772  20.065  0.00  0.00    +0.000 OA
BRANCH  24  25
ATOM     25  P   UNL     1      -2.090  11.850  19.072  0.00  0.00    +0.000 P 
ATOM     26  O   UNL     1      -2.895  12.412  20.257  0.00  0.00    +0.000 OA
BRANCH  25  27
ATOM     27  O   UNL     1      -1.527  13.220  18.381  0.00  0.00    +0.000 OA
ATOM     28  H   UNL     1      -2.306  13.805  18.272  0.00  0.00    +0.000 HD
ENDBRANCH  25  27
BRANCH  25  29
ATOM     29  O   UNL     1      -3.506  11.926  18.081  0.00  0.00    +0.000 OA
BRANCH  29  30
ATOM     30  P   UNL     1      -3.438  10.681  16.883  0.00  0.00    +0.000 P 
ATOM     31  O   UNL     1      -2.354  11.402  16.084  0.00  0.00    +0.000 OA
BRANCH  30  32
ATOM     32  O   UNL     1      -2.643   9.701  17.916  0.00  0.00    +0.000 OA
ATOM     33  H   UNL     1      -2.567  10.010  18.831  0.00  0.00    +0.000 HD
ENDBRANCH  30  32
BRANCH  30  34
ATOM     34  O   UNL     1      -3.371   9.435  15.683  0.00  0.00    +0.000 OA
ATOM     35  H   UNL     1      -4.180   9.638  15.164  0.00  0.00    +0.000 HD
ENDBRANCH  30  34
ENDBRANCH  29  30
ENDBRANCH  25  29
ENDBRANCH  24  25
ENDBRANCH  20  24
ENDBRANCH  19  20
ENDBRANCH   1  19
TORSDOF 13
ENDMDL
MODEL 8
REMARK VINA RESULT:      -6.6      3.397      4.265
REMARK  Name = 
REMARK  14 active torsions:
REMARK  status: ('A' for Active; 'I' for Inactive)
REMARK    1  A    between atoms: C_1  and  C_2
REMARK    2  A    between atoms: N_4  and  C_5
REMARK    3  A    between atoms: C_9  and  C_10
REMARK    4  A    between atoms: C_10  and  O_11
REMARK    5  A    between atoms: O_11  and  C_12
REMARK    6  A    between atoms: C_12  and  P_13
REMARK    7  A    between atoms: P_13  and  O_15
REMARK    8  A    between atoms: P_13  and  O_16
REMARK    9  A    between atoms: O_16  and  P_17
REMARK   10  A    between atoms: P_17  and  O_19
REMARK   11  A    between atoms: P_17  and  O_20
REMARK   12  A    between atoms: O_20  and  P_21
REMARK   13  A    between atoms: P_21  and  O_23
REMARK   14  A    between atoms: P_21  and  O_24
REMARK                            x       y       z     vdW  Elec       q    Type
REMARK                         _______ _______ _______ _____ _____    ______ ____
ROOT
ATOM      1  O   UNL     1       1.801   8.606  18.880  0.00  0.00    +0.000 OA
ENDROOT
BRANCH   1   2
ATOM      2  C   UNL     1       1.227   9.789  18.294  0.00  0.00    +0.000 C 
BRANCH   2   7
ATOM      3  C   UNL     1       0.338  12.659  19.859  0.00  0.00    +0.000 C 
ATOM      4  C   UNL     1      -0.391  12.603  18.522  0.00  0.00    +0.000 C 
ATOM      5  C   UNL     1      -0.882  11.182  18.498  0.00  0.00    +0.000 C 
ATOM      6  F   UNL     1      -2.040  11.127  19.216  0.00  0.00    +0.000 F 
ATOM      7  C   UNL     1       0.193  10.404  19.243  0.00  0.00    +0.000 C 
ATOM      8  O   UNL     1       0.875  11.348  20.096  0.00  0.00    +0.000 OA
BRANCH   3  12
ATOM      9  C   UNL     1       3.571  15.505  17.373  0.00  0.00    +0.000 C 
ATOM     10  C   UNL     1       2.919  15.027  18.633  0.00  0.00    +0.000 A 
ATOM     11  C   UNL     1       2.018  14.041  18.683  0.00  0.00    +0.000 A 
ATOM     12  N   UNL     1       1.410  13.650  19.860  0.00  0.00    +0.000 N 
ATOM     13  C   UNL     1       1.696  14.272  21.066  0.00  0.00    +0.000 A 
ATOM     14  O   UNL     1       1.107  14.040  22.115  0.00  0.00    +0.000 OA
ATOM     15  N   UNL     1       2.685  15.219  21.024  0.00  0.00    +0.000 N 
ATOM     16  C   UNL     1       3.285  15.701  19.897  0.00  0.00    +0.000 A 
ATOM     17  O   UNL     1       4.063  16.651  19.928  0.00  0.00    +0.000 OA
ATOM     18  H   UNL     1       2.894  15.686  21.890  0.00  0.00    +0.000 HD
ENDBRANCH   3  12
ENDBRANCH   2   7
ENDBRANCH   1   2
BRANCH   1  19
ATOM     19  C   UNL     1       2.562   7.885  17.903  0.00  0.00    +0.000 C 
BRANCH  19  20
ATOM     20  P   UNL     1       3.410   6.465  18.686  0.00  0.00    +0.000 P 
ATOM     21  O   UNL     1       2.643   5.502  17.764  0.00  0.00    +0.000 OA
BRANCH  20  22
ATOM     22  O   UNL     1       4.689   6.848  17.675  0.00  0.00    +0.000 OA
ATOM     23  H   UNL     1       4.520   7.722  17.258  0.00  0.00    +0.000 HD
ENDBRANCH  20  22
BRANCH  20  24
ATOM     24  O   UNL     1       4.212   5.123  19.427  0.00  0.00    +0.000 OA
BRANCH  24  25
ATOM     25  P   UNL     1       5.684   4.791  18.581  0.00  0.00    +0.000 P 
ATOM     26  O   UNL     1       6.495   5.341  19.766  0.00  0.00    +0.000 OA
BRANCH  25  27
ATOM     27  O   UNL     1       5.553   3.211  18.980  0.00  0.00    +0.000 OA
ATOM     28  H   UNL     1       5.681   3.169  19.951  0.00  0.00    +0.000 HD
ENDBRANCH  25  27
BRANCH  25  29
ATOM     29  O   UNL     1       7.156   4.460  17.734  0.00  0.00    +0.000 OA
BRANCH  29  30
ATOM     30  P   UNL     1       6.873   4.547  16.030  0.00  0.00    +0.000 P 
ATOM     31  O   UNL     1       5.357   4.461  16.200  0.00  0.00    +0.000 OA
BRANCH  30  32
ATOM     32  O   UNL     1       7.223   6.139  16.032  0.00  0.00    +0.000 OA
ATOM     33  H   UNL     1       7.481   6.523  16.884  0.00  0.00    +0.000 HD
ENDBRANCH  30  32
BRANCH  30  34
ATOM     34  O   UNL     1       6.588   4.634  14.325  0.00  0.00    +0.000 OA
ATOM     35  H   UNL     1       6.765   5.586  14.159  0.00  0.00    +0.000 HD
ENDBRANCH  30  34
ENDBRANCH  29  30
ENDBRANCH  25  29
ENDBRANCH  24  25
ENDBRANCH  20  24
ENDBRANCH  19  20
ENDBRANCH   1  19
TORSDOF 13
ENDMDL
MODEL 9
REMARK VINA RESULT:      -6.6      1.598      2.326
REMARK  Name = 
REMARK  14 active torsions:
REMARK  status: ('A' for Active; 'I' for Inactive)
REMARK    1  A    between atoms: C_1  and  C_2
REMARK    2  A    between atoms: N_4  and  C_5
REMARK    3  A    between atoms: C_9  and  C_10
REMARK    4  A    between atoms: C_10  and  O_11
REMARK    5  A    between atoms: O_11  and  C_12
REMARK    6  A    between atoms: C_12  and  P_13
REMARK    7  A    between atoms: P_13  and  O_15
REMARK    8  A    between atoms: P_13  and  O_16
REMARK    9  A    between atoms: O_16  and  P_17
REMARK   10  A    between atoms: P_17  and  O_19
REMARK   11  A    between atoms: P_17  and  O_20
REMARK   12  A    between atoms: O_20  and  P_21
REMARK   13  A    between atoms: P_21  and  O_23
REMARK   14  A    between atoms: P_21  and  O_24
REMARK                            x       y       z     vdW  Elec       q    Type
REMARK                         _______ _______ _______ _____ _____    ______ ____
ROOT
ATOM      1  O   UNL     1       2.002   8.096  18.679  0.00  0.00    +0.000 OA
ENDROOT
BRANCH   1   2
ATOM      2  C   UNL     1       1.749   9.400  18.124  0.00  0.00    +0.000 C 
BRANCH   2   7
ATOM      3  C   UNL     1      -0.653  11.301  19.570  0.00  0.00    +0.000 C 
ATOM      4  C   UNL     1      -0.602   9.966  20.301  0.00  0.00    +0.000 C 
ATOM      5  C   UNL     1       0.878   9.767  20.476  0.00  0.00    +0.000 C 
ATOM      6  F   UNL     1       1.267  10.469  21.579  0.00  0.00    +0.000 F 
ATOM      7  C   UNL     1       1.490  10.413  19.242  0.00  0.00    +0.000 C 
ATOM      8  O   UNL     1       0.530  11.378  18.759  0.00  0.00    +0.000 OA
BRANCH   3  12
ATOM      9  C   UNL     1      -3.169  10.099  15.452  0.00  0.00    +0.000 C 
ATOM     10  C   UNL     1      -3.036  10.798  16.770  0.00  0.00    +0.000 A 
ATOM     11  C   UNL     1      -1.920  10.801  17.506  0.00  0.00    +0.000 A 
ATOM     12  N   UNL     1      -1.844  11.426  18.735  0.00  0.00    +0.000 N 
ATOM     13  C   UNL     1      -2.935  12.083  19.284  0.00  0.00    +0.000 A 
ATOM     14  O   UNL     1      -2.955  12.557  20.413  0.00  0.00    +0.000 OA
ATOM     15  N   UNL     1      -4.047  12.155  18.485  0.00  0.00    +0.000 N 
ATOM     16  C   UNL     1      -4.219  11.513  17.293  0.00  0.00    +0.000 A 
ATOM     17  O   UNL     1      -5.296  11.511  16.704  0.00  0.00    +0.000 OA
ATOM     18  H   UNL     1      -4.849  12.619  18.876  0.00  0.00    +0.000 HD
ENDBRANCH   3  12
ENDBRANCH   2   7
ENDBRANCH   1   2
BRANCH   1  19
ATOM     19  C   UNL     1       1.820   7.084  17.681  0.00  0.00    +0.000 C 
BRANCH  19  20
ATOM     20  P   UNL     1       2.563   5.507  18.239  0.00  0.00    +0.000 P 
ATOM     21  O   UNL     1       2.045   5.770  19.663  0.00  0.00    +0.000 OA
BRANCH  20  22
ATOM     22  O   UNL     1       1.198   4.792  17.582  0.00  0.00    +0.000 OA
ATOM     23  H   UNL     1       0.635   4.444  18.307  0.00  0.00    +0.000 HD
ENDBRANCH  20  22
BRANCH  20  24
ATOM     24  O   UNL     1       3.265   4.017  18.766  0.00  0.00    +0.000 OA
BRANCH  24  25
ATOM     25  P   UNL     1       4.986   4.185  18.843  0.00  0.00    +0.000 P 
ATOM     26  O   UNL     1       5.070   2.952  19.759  0.00  0.00    +0.000 OA
BRANCH  25  27
ATOM     27  O   UNL     1       5.115   3.502  17.363  0.00  0.00    +0.000 OA
ATOM     28  H   UNL     1       4.466   2.768  17.349  0.00  0.00    +0.000 HD
ENDBRANCH  25  27
BRANCH  25  29
ATOM     29  O   UNL     1       6.706   4.354  18.921  0.00  0.00    +0.000 OA
BRANCH  29  30
ATOM     30  P   UNL     1       7.214   5.592  17.826  0.00  0.00    +0.000 P 
ATOM     31  O   UNL     1       8.214   6.172  18.824  0.00  0.00    +0.000 OA
BRANCH  30  32
ATOM     32  O   UNL     1       8.053   4.502  16.950  0.00  0.00    +0.000 OA
ATOM     33  H   UNL     1       8.999   4.428  17.146  0.00  0.00    +0.000 HD
ENDBRANCH  30  32
BRANCH  30  34
ATOM     34  O   UNL     1       7.723   6.831  16.730  0.00  0.00    +0.000 OA
ATOM     35  H   UNL     1       7.337   7.626  17.162  0.00  0.00    +0.000 HD
ENDBRANCH  30  34
ENDBRANCH  29  30
ENDBRANCH  25  29
ENDBRANCH  24  25
ENDBRANCH  20  24
ENDBRANCH  19  20
ENDBRANCH   1  19
TORSDOF 13
ENDMDL
