MODEL 1
REMARK VINA RESULT:      -5.6      0.000      0.000
REMARK  Name = 
REMARK  15 active torsions:
REMARK  status: ('A' for Active; 'I' for Inactive)
REMARK    1  A    between atoms: C_1  and  C_2
REMARK    2  A    between atoms: C_2  and  O_3
REMARK    3  A    between atoms: O_3  and  C_4
REMARK    4  A    between atoms: C_4  and  C_6
REMARK    5  A    between atoms: C_6  and  C_7
REMARK    6  A    between atoms: C_7  and  S_8
REMARK    7  A    between atoms: C_7  and  C_15
REMARK    8  A    between atoms: S_8  and  P_9
REMARK    9  A    between atoms: P_9  and  O_11
REMARK   10  A    between atoms: P_9  and  O_13
REMARK   11  A    between atoms: O_11  and  C_12
REMARK   12  A    between atoms: O_13  and  C_14
REMARK   13  A    between atoms: C_15  and  O_17
REMARK   14  A    between atoms: O_17  and  C_18
REMARK   15  A    between atoms: C_18  and  C_19
REMARK                            x       y       z     vdW  Elec       q    Type
REMARK                         _______ _______ _______ _____ _____    ______ ____
ROOT
ATOM      1  C   UNL     1       4.638   4.571  18.455  0.00  0.00    +0.000 C 
ENDROOT
BRANCH   1   2
ATOM      2  C   UNL     1       4.400   3.136  18.910  0.00  0.00    +0.000 C 
ATOM      3  O   UNL     1       4.760   2.677  19.986  0.00  0.00    +0.000 OA
BRANCH   2   4
ATOM      4  O   UNL     1       3.817   2.413  17.909  0.00  0.00    +0.000 OA
BRANCH   4   5
ATOM      5  C   UNL     1       2.502   2.851  17.543  0.00  0.00    +0.000 C 
ATOM      6  C   UNL     1       1.538   2.331  18.596  0.00  0.00    +0.000 C 
ENDBRANCH   4   5
ENDBRANCH   2   4
ENDBRANCH   1   2
BRANCH   1   7
ATOM      7  C   UNL     1       4.160   5.516  19.555  0.00  0.00    +0.000 C 
BRANCH   7   8
ATOM      8  C   UNL     1       2.701   5.855  19.368  0.00  0.00    +0.000 C 
ATOM      9  O   UNL     1       1.818   5.548  20.163  0.00  0.00    +0.000 OA
BRANCH   8  10
ATOM     10  O   UNL     1       2.495   6.402  18.136  0.00  0.00    +0.000 OA
BRANCH  10  12
ATOM     11  C   UNL     1       1.838   8.746  17.837  0.00  0.00    +0.000 C 
ATOM     12  C   UNL     1       2.971   7.743  17.934  0.00  0.00    +0.000 C 
ENDBRANCH  10  12
ENDBRANCH   8  10
ENDBRANCH   7   8
ENDBRANCH   1   7
BRANCH   1  13
ATOM     13  S   UNL     1       6.443   4.712  18.095  0.00  0.00    +0.000 S 
BRANCH  13  14
ATOM     14  P   UNL     1       6.670   4.963  16.002  0.00  0.00    +0.000 P 
ATOM     15  O   UNL     1       5.166   5.218  15.926  0.00  0.00    +0.000 OA
BRANCH  14  16
ATOM     16  O   UNL     1       7.502   6.373  16.197  0.00  0.00    +0.000 OA
ATOM     17  C   UNL     1       7.397   7.088  17.414  0.00  0.00    +0.000 C 
ENDBRANCH  14  16
BRANCH  14  18
ATOM     18  O   UNL     1       6.856   5.167  14.294  0.00  0.00    +0.000 OA
ATOM     19  C   UNL     1       6.402   4.060  13.542  0.00  0.00    +0.000 C 
ENDBRANCH  14  18
ENDBRANCH  13  14
ENDBRANCH   1  13
TORSDOF 11
ENDMDL
MODEL 2
REMARK VINA RESULT:      -5.4      2.304      6.203
REMARK  Name = 
REMARK  15 active torsions:
REMARK  status: ('A' for Active; 'I' for Inactive)
REMARK    1  A    between atoms: C_1  and  C_2
REMARK    2  A    between atoms: C_2  and  O_3
REMARK    3  A    between atoms: O_3  and  C_4
REMARK    4  A    between atoms: C_4  and  C_6
REMARK    5  A    between atoms: C_6  and  C_7
REMARK    6  A    between atoms: C_7  and  S_8
REMARK    7  A    between atoms: C_7  and  C_15
REMARK    8  A    between atoms: S_8  and  P_9
REMARK    9  A    between atoms: P_9  and  O_11
REMARK   10  A    between atoms: P_9  and  O_13
REMARK   11  A    between atoms: O_11  and  C_12
REMARK   12  A    between atoms: O_13  and  C_14
REMARK   13  A    between atoms: C_15  and  O_17
REMARK   14  A    between atoms: O_17  and  C_18
REMARK   15  A    between atoms: C_18  and  C_19
REMARK                            x       y       z     vdW  Elec       q    Type
REMARK                         _______ _______ _______ _____ _____    ______ ____
ROOT
ATOM      1  C   UNL     1       5.297   4.768  16.443  0.00  0.00    +0.000 C 
ENDROOT
BRANCH   1   2
ATOM      2  C   UNL     1       5.337   6.290  16.392  0.00  0.00    +0.000 C 
ATOM      3  O   UNL     1       5.023   6.964  15.419  0.00  0.00    +0.000 OA
BRANCH   2   4
ATOM      4  O   UNL     1       5.867   6.789  17.548  0.00  0.00    +0.000 OA
BRANCH   4   5
ATOM      5  C   UNL     1       7.162   7.387  17.403  0.00  0.00    +0.000 C 
ATOM      6  C   UNL     1       8.030   6.880  18.542  0.00  0.00    +0.000 C 
ENDBRANCH   4   5
ENDBRANCH   2   4
ENDBRANCH   1   2
BRANCH   1   7
ATOM      7  C   UNL     1       6.621   4.228  15.907  0.00  0.00    +0.000 C 
BRANCH   7   8
ATOM      8  C   UNL     1       6.796   4.597  14.454  0.00  0.00    +0.000 C 
ATOM      9  O   UNL     1       7.695   5.319  14.033  0.00  0.00    +0.000 OA
BRANCH   8  10
ATOM     10  O   UNL     1       5.738   4.148  13.719  0.00  0.00    +0.000 OA
BRANCH  10  12
ATOM     11  C   UNL     1       4.812   3.118  11.695  0.00  0.00    +0.000 C 
ATOM     12  C   UNL     1       6.045   3.396  12.533  0.00  0.00    +0.000 C 
ENDBRANCH  10  12
ENDBRANCH   8  10
ENDBRANCH   7   8
ENDBRANCH   1   7
BRANCH   1  13
ATOM     13  S   UNL     1       4.975   4.313  18.204  0.00  0.00    +0.000 S 
BRANCH  13  14
ATOM     14  P   UNL     1       2.893   3.972  18.416  0.00  0.00    +0.000 P 
ATOM     15  O   UNL     1       3.238   2.720  19.219  0.00  0.00    +0.000 OA
BRANCH  14  16
ATOM     16  O   UNL     1       2.714   5.280  19.403  0.00  0.00    +0.000 OA
ATOM     17  C   UNL     1       2.024   5.143  20.632  0.00  0.00    +0.000 C 
ENDBRANCH  14  16
BRANCH  14  18
ATOM     18  O   UNL     1       1.195   3.693  18.588  0.00  0.00    +0.000 OA
ATOM     19  C   UNL     1       0.859   2.327  18.725  0.00  0.00    +0.000 C 
ENDBRANCH  14  18
ENDBRANCH  13  14
ENDBRANCH   1  13
TORSDOF 11
ENDMDL
MODEL 3
REMARK VINA RESULT:      -5.4      1.102      2.125
REMARK  Name = 
REMARK  15 active torsions:
REMARK  status: ('A' for Active; 'I' for Inactive)
REMARK    1  A    between atoms: C_1  and  C_2
REMARK    2  A    between atoms: C_2  and  O_3
REMARK    3  A    between atoms: O_3  and  C_4
REMARK    4  A    between atoms: C_4  and  C_6
REMARK    5  A    between atoms: C_6  and  C_7
REMARK    6  A    between atoms: C_7  and  S_8
REMARK    7  A    between atoms: C_7  and  C_15
REMARK    8  A    between atoms: S_8  and  P_9
REMARK    9  A    between atoms: P_9  and  O_11
REMARK   10  A    between atoms: P_9  and  O_13
REMARK   11  A    between atoms: O_11  and  C_12
REMARK   12  A    between atoms: O_13  and  C_14
REMARK   13  A    between atoms: C_15  and  O_17
REMARK   14  A    between atoms: O_17  and  C_18
REMARK   15  A    between atoms: C_18  and  C_19
REMARK                            x       y       z     vdW  Elec       q    Type
REMARK                         _______ _______ _______ _____ _____    ______ ____
ROOT
ATOM      1  C   UNL     1       4.017   4.393  18.114  0.00  0.00    +0.000 C 
ENDROOT
BRANCH   1   2
ATOM      2  C   UNL     1       4.252   3.410  19.255  0.00  0.00    +0.000 C 
ATOM      3  O   UNL     1       5.352   3.083  19.679  0.00  0.00    +0.000 OA
BRANCH   2   4
ATOM      4  O   UNL     1       3.065   2.873  19.667  0.00  0.00    +0.000 OA
BRANCH   4   5
ATOM      5  C   UNL     1       2.359   2.138  18.658  0.00  0.00    +0.000 C 
ATOM      6  C   UNL     1       0.889   2.504  18.772  0.00  0.00    +0.000 C 
ENDBRANCH   4   5
ENDBRANCH   2   4
ENDBRANCH   1   2
BRANCH   1   7
ATOM      7  C   UNL     1       4.156   5.813  18.658  0.00  0.00    +0.000 C 
BRANCH   7   8
ATOM      8  C   UNL     1       2.815   6.347  19.097  0.00  0.00    +0.000 C 
ATOM      9  O   UNL     1       2.296   6.094  20.180  0.00  0.00    +0.000 OA
BRANCH   8  10
ATOM     10  O   UNL     1       2.209   7.010  18.070  0.00  0.00    +0.000 OA
BRANCH  10  12
ATOM     11  C   UNL     1       1.615   9.380  17.861  0.00  0.00    +0.000 C 
ATOM     12  C   UNL     1       2.701   8.326  17.767  0.00  0.00    +0.000 C 
ENDBRANCH  10  12
ENDBRANCH   8  10
ENDBRANCH   7   8
ENDBRANCH   1   7
BRANCH   1  13
ATOM     13  S   UNL     1       5.255   3.980  16.807  0.00  0.00    +0.000 S 
BRANCH  13  14
ATOM     14  P   UNL     1       6.630   5.588  16.683  0.00  0.00    +0.000 P 
ATOM     15  O   UNL     1       7.327   5.013  17.915  0.00  0.00    +0.000 OA
BRANCH  14  16
ATOM     16  O   UNL     1       7.295   4.997  15.295  0.00  0.00    +0.000 OA
ATOM     17  C   UNL     1       6.459   4.439  14.298  0.00  0.00    +0.000 C 
ENDBRANCH  14  16
BRANCH  14  18
ATOM     18  O   UNL     1       7.752   6.901  16.582  0.00  0.00    +0.000 OA
ATOM     19  C   UNL     1       7.694   7.778  17.689  0.00  0.00    +0.000 C 
ENDBRANCH  14  18
ENDBRANCH  13  14
ENDBRANCH   1  13
TORSDOF 11
ENDMDL
MODEL 4
REMARK VINA RESULT:      -5.4      1.295      2.319
REMARK  Name = 
REMARK  15 active torsions:
REMARK  status: ('A' for Active; 'I' for Inactive)
REMARK    1  A    between atoms: C_1  and  C_2
REMARK    2  A    between atoms: C_2  and  O_3
REMARK    3  A    between atoms: O_3  and  C_4
REMARK    4  A    between atoms: C_4  and  C_6
REMARK    5  A    between atoms: C_6  and  C_7
REMARK    6  A    between atoms: C_7  and  S_8
REMARK    7  A    between atoms: C_7  and  C_15
REMARK    8  A    between atoms: S_8  and  P_9
REMARK    9  A    between atoms: P_9  and  O_11
REMARK   10  A    between atoms: P_9  and  O_13
REMARK   11  A    between atoms: O_11  and  C_12
REMARK   12  A    between atoms: O_13  and  C_14
REMARK   13  A    between atoms: C_15  and  O_17
REMARK   14  A    between atoms: O_17  and  C_18
REMARK   15  A    between atoms: C_18  and  C_19
REMARK                            x       y       z     vdW  Elec       q    Type
REMARK                         _______ _______ _______ _____ _____    ______ ____
ROOT
ATOM      1  C   UNL     1       4.021   4.168  17.874  0.00  0.00    +0.000 C 
ENDROOT
BRANCH   1   2
ATOM      2  C   UNL     1       4.392   3.269  19.047  0.00  0.00    +0.000 C 
ATOM      3  O   UNL     1       5.420   3.368  19.704  0.00  0.00    +0.000 OA
BRANCH   2   4
ATOM      4  O   UNL     1       3.463   2.278  19.195  0.00  0.00    +0.000 OA
BRANCH   4   5
ATOM      5  C   UNL     1       2.214   2.710  19.754  0.00  0.00    +0.000 C 
ATOM      6  C   UNL     1       2.407   2.840  21.256  0.00  0.00    +0.000 C 
ENDBRANCH   4   5
ENDBRANCH   2   4
ENDBRANCH   1   2
BRANCH   1   7
ATOM      7  C   UNL     1       3.972   5.613  18.364  0.00  0.00    +0.000 C 
BRANCH   7   8
ATOM      8  C   UNL     1       2.557   6.138  18.335  0.00  0.00    +0.000 C 
ATOM      9  O   UNL     1       1.606   5.520  17.867  0.00  0.00    +0.000 OA
BRANCH   8  10
ATOM     10  O   UNL     1       2.523   7.436  18.755  0.00  0.00    +0.000 OA
BRANCH  10  12
ATOM     11  C   UNL     1       1.313   9.444  18.040  0.00  0.00    +0.000 C 
ATOM     12  C   UNL     1       2.410   8.444  17.736  0.00  0.00    +0.000 C 
ENDBRANCH  10  12
ENDBRANCH   8  10
ENDBRANCH   7   8
ENDBRANCH   1   7
BRANCH   1  13
ATOM     13  S   UNL     1       5.293   3.875  16.568  0.00  0.00    +0.000 S 
BRANCH  13  14
ATOM     14  P   UNL     1       6.589   5.552  16.536  0.00  0.00    +0.000 P 
ATOM     15  O   UNL     1       7.731   4.606  16.900  0.00  0.00    +0.000 OA
BRANCH  14  16
ATOM     16  O   UNL     1       6.448   5.709  14.900  0.00  0.00    +0.000 OA
ATOM     17  C   UNL     1       6.808   4.630  14.057  0.00  0.00    +0.000 C 
ENDBRANCH  14  16
BRANCH  14  18
ATOM     18  O   UNL     1       7.646   6.921  16.509  0.00  0.00    +0.000 OA
ATOM     19  C   UNL     1       7.769   7.562  17.762  0.00  0.00    +0.000 C 
ENDBRANCH  14  18
ENDBRANCH  13  14
ENDBRANCH   1  13
TORSDOF 11
ENDMDL
MODEL 5
REMARK VINA RESULT:      -5.4      2.426      5.611
REMARK  Name = 
REMARK  15 active torsions:
REMARK  status: ('A' for Active; 'I' for Inactive)
REMARK    1  A    between atoms: C_1  and  C_2
REMARK    2  A    between atoms: C_2  and  O_3
REMARK    3  A    between atoms: O_3  and  C_4
REMARK    4  A    between atoms: C_4  and  C_6
REMARK    5  A    between atoms: C_6  and  C_7
REMARK    6  A    between atoms: C_7  and  S_8
REMARK    7  A    between atoms: C_7  and  C_15
REMARK    8  A    between atoms: S_8  and  P_9
REMARK    9  A    between atoms: P_9  and  O_11
REMARK   10  A    between atoms: P_9  and  O_13
REMARK   11  A    between atoms: O_11  and  C_12
REMARK   12  A    between atoms: O_13  and  C_14
REMARK   13  A    between atoms: C_15  and  O_17
REMARK   14  A    between atoms: O_17  and  C_18
REMARK   15  A    between atoms: C_18  and  C_19
REMARK                            x       y       z     vdW  Elec       q    Type
REMARK                         _______ _______ _______ _____ _____    ______ ____
ROOT
ATOM      1  C   UNL     1       5.940   4.600  16.732  0.00  0.00    +0.000 C 
ENDROOT
BRANCH   1   2
ATOM      2  C   UNL     1       5.797   5.073  15.290  0.00  0.00    +0.000 C 
ATOM      3  O   UNL     1       5.724   6.245  14.944  0.00  0.00    +0.000 OA
BRANCH   2   4
ATOM      4  O   UNL     1       5.662   4.002  14.452  0.00  0.00    +0.000 OA
BRANCH   4   5
ATOM      5  C   UNL     1       6.537   4.019  13.316  0.00  0.00    +0.000 C 
ATOM      6  C   UNL     1       5.819   3.314  12.177  0.00  0.00    +0.000 C 
ENDBRANCH   4   5
ENDBRANCH   2   4
ENDBRANCH   1   2
BRANCH   1   7
ATOM      7  C   UNL     1       6.187   5.816  17.621  0.00  0.00    +0.000 C 
BRANCH   7   8
ATOM      8  C   UNL     1       7.527   5.711  18.306  0.00  0.00    +0.000 C 
ATOM      9  O   UNL     1       8.022   4.655  18.690  0.00  0.00    +0.000 OA
BRANCH   8  10
ATOM     10  O   UNL     1       8.024   6.954  18.570  0.00  0.00    +0.000 OA
BRANCH  10  12
ATOM     11  C   UNL     1       8.303   9.329  18.026  0.00  0.00    +0.000 C 
ATOM     12  C   UNL     1       7.713   7.992  17.625  0.00  0.00    +0.000 C 
ENDBRANCH  10  12
ENDBRANCH   8  10
ENDBRANCH   7   8
ENDBRANCH   1   7
BRANCH   1  13
ATOM     13  S   UNL     1       4.386   3.690  17.140  0.00  0.00    +0.000 S 
BRANCH  13  14
ATOM     14  P   UNL     1       3.533   4.599  18.855  0.00  0.00    +0.000 P 
ATOM     15  O   UNL     1       2.673   5.438  17.913  0.00  0.00    +0.000 OA
BRANCH  14  16
ATOM     16  O   UNL     1       2.759   3.208  19.285  0.00  0.00    +0.000 OA
ATOM     17  C   UNL     1       2.476   2.229  18.302  0.00  0.00    +0.000 C 
ENDBRANCH  14  16
BRANCH  14  18
ATOM     18  O   UNL     1       2.837   5.340  20.255  0.00  0.00    +0.000 OA
ATOM     19  C   UNL     1       2.151   4.431  21.091  0.00  0.00    +0.000 C 
ENDBRANCH  14  18
ENDBRANCH  13  14
ENDBRANCH   1  13
TORSDOF 11
ENDMDL
MODEL 6
REMARK VINA RESULT:      -5.4      1.710      2.681
REMARK  Name = 
REMARK  15 active torsions:
REMARK  status: ('A' for Active; 'I' for Inactive)
REMARK    1  A    between atoms: C_1  and  C_2
REMARK    2  A    between atoms: C_2  and  O_3
REMARK    3  A    between atoms: O_3  and  C_4
REMARK    4  A    between atoms: C_4  and  C_6
REMARK    5  A    between atoms: C_6  and  C_7
REMARK    6  A    between atoms: C_7  and  S_8
REMARK    7  A    between atoms: C_7  and  C_15
REMARK    8  A    between atoms: S_8  and  P_9
REMARK    9  A    between atoms: P_9  and  O_11
REMARK   10  A    between atoms: P_9  and  O_13
REMARK   11  A    between atoms: O_11  and  C_12
REMARK   12  A    between atoms: O_13  and  C_14
REMARK   13  A    between atoms: C_15  and  O_17
REMARK   14  A    between atoms: O_17  and  C_18
REMARK   15  A    between atoms: C_18  and  C_19
REMARK                            x       y       z     vdW  Elec       q    Type
REMARK                         _______ _______ _______ _____ _____    ______ ____
ROOT
ATOM      1  C   UNL     1       3.637   4.440  17.364  0.00  0.00    +0.000 C 
ENDROOT
BRANCH   1   2
ATOM      2  C   UNL     1       2.947   3.120  17.686  0.00  0.00    +0.000 C 
ATOM      3  O   UNL     1       3.519   2.045  17.810  0.00  0.00    +0.000 OA
BRANCH   2   4
ATOM      4  O   UNL     1       1.592   3.291  17.717  0.00  0.00    +0.000 OA
BRANCH   4   5
ATOM      5  C   UNL     1       0.922   2.563  18.756  0.00  0.00    +0.000 C 
ATOM      6  C   UNL     1       0.924   3.437  19.999  0.00  0.00    +0.000 C 
ENDBRANCH   4   5
ENDBRANCH   2   4
ENDBRANCH   1   2
BRANCH   1   7
ATOM      7  C   UNL     1       3.845   5.211  18.665  0.00  0.00    +0.000 C 
BRANCH   7   8
ATOM      8  C   UNL     1       3.150   6.549  18.607  0.00  0.00    +0.000 C 
ATOM      9  O   UNL     1       3.264   7.342  17.677  0.00  0.00    +0.000 OA
BRANCH   8  10
ATOM     10  O   UNL     1       2.516   6.807  19.788  0.00  0.00    +0.000 OA
BRANCH  10  12
ATOM     11  C   UNL     1       1.088   8.202  21.211  0.00  0.00    +0.000 C 
ATOM     12  C   UNL     1       1.805   8.052  19.884  0.00  0.00    +0.000 C 
ENDBRANCH  10  12
ENDBRANCH   8  10
ENDBRANCH   7   8
ENDBRANCH   1   7
BRANCH   1  13
ATOM     13  S   UNL     1       5.213   4.008  16.503  0.00  0.00    +0.000 S 
BRANCH  13  14
ATOM     14  P   UNL     1       6.704   5.364  17.160  0.00  0.00    +0.000 P 
ATOM     15  O   UNL     1       7.142   4.305  18.170  0.00  0.00    +0.000 OA
BRANCH  14  16
ATOM     16  O   UNL     1       7.546   5.221  15.749  0.00  0.00    +0.000 OA
ATOM     17  C   UNL     1       6.884   4.781  14.577  0.00  0.00    +0.000 C 
ENDBRANCH  14  16
BRANCH  14  18
ATOM     18  O   UNL     1       7.922   6.470  17.696  0.00  0.00    +0.000 OA
ATOM     19  C   UNL     1       7.577   7.826  17.497  0.00  0.00    +0.000 C 
ENDBRANCH  14  18
ENDBRANCH  13  14
ENDBRANCH   1  13
TORSDOF 11
ENDMDL
MODEL 7
REMARK VINA RESULT:      -5.3      2.425      3.498
REMARK  Name = 
REMARK  15 active torsions:
REMARK  status: ('A' for Active; 'I' for Inactive)
REMARK    1  A    between atoms: C_1  and  C_2
REMARK    2  A    between atoms: C_2  and  O_3
REMARK    3  A    between atoms: O_3  and  C_4
REMARK    4  A    between atoms: C_4  and  C_6
REMARK    5  A    between atoms: C_6  and  C_7
REMARK    6  A    between atoms: C_7  and  S_8
REMARK    7  A    between atoms: C_7  and  C_15
REMARK    8  A    between atoms: S_8  and  P_9
REMARK    9  A    between atoms: P_9  and  O_11
REMARK   10  A    between atoms: P_9  and  O_13
REMARK   11  A    between atoms: O_11  and  C_12
REMARK   12  A    between atoms: O_13  and  C_14
REMARK   13  A    between atoms: C_15  and  O_17
REMARK   14  A    between atoms: O_17  and  C_18
REMARK   15  A    between atoms: C_18  and  C_19
REMARK                            x       y       z     vdW  Elec       q    Type
REMARK                         _______ _______ _______ _____ _____    ______ ____
ROOT
ATOM      1  C   UNL     1       2.672   5.401  17.884  0.00  0.00    +0.000 C 
ENDROOT
BRANCH   1   2
ATOM      2  C   UNL     1       1.766   4.299  18.419  0.00  0.00    +0.000 C 
ATOM      3  O   UNL     1       1.064   3.575  17.725  0.00  0.00    +0.000 OA
BRANCH   2   4
ATOM      4  O   UNL     1       1.773   4.303  19.785  0.00  0.00    +0.000 OA
BRANCH   4   5
ATOM      5  C   UNL     1       0.991   3.263  20.389  0.00  0.00    +0.000 C 
ATOM      6  C   UNL     1       1.755   2.765  21.604  0.00  0.00    +0.000 C 
ENDBRANCH   4   5
ENDBRANCH   2   4
ENDBRANCH   1   2
BRANCH   1   7
ATOM      7  C   UNL     1       2.948   6.394  19.011  0.00  0.00    +0.000 C 
BRANCH   7   8
ATOM      8  C   UNL     1       2.295   7.723  18.720  0.00  0.00    +0.000 C 
ATOM      9  O   UNL     1       2.163   8.192  17.593  0.00  0.00    +0.000 OA
BRANCH   8  10
ATOM     10  O   UNL     1       2.022   8.383  19.883  0.00  0.00    +0.000 OA
BRANCH  10  12
ATOM     11  C   UNL     1       0.229   8.558  21.546  0.00  0.00    +0.000 C 
ATOM     12  C   UNL     1       1.254   7.671  20.867  0.00  0.00    +0.000 C 
ENDBRANCH  10  12
ENDBRANCH   8  10
ENDBRANCH   7   8
ENDBRANCH   1   7
BRANCH   1  13
ATOM     13  S   UNL     1       4.191   4.565  17.249  0.00  0.00    +0.000 S 
BRANCH  13  14
ATOM     14  P   UNL     1       5.748   4.898  18.648  0.00  0.00    +0.000 P 
ATOM     15  O   UNL     1       5.205   3.716  19.448  0.00  0.00    +0.000 OA
BRANCH  14  16
ATOM     16  O   UNL     1       6.902   4.408  17.577  0.00  0.00    +0.000 OA
ATOM     17  C   UNL     1       6.694   4.590  16.188  0.00  0.00    +0.000 C 
ENDBRANCH  14  16
BRANCH  14  18
ATOM     18  O   UNL     1       7.020   5.169  19.790  0.00  0.00    +0.000 OA
ATOM     19  C   UNL     1       8.016   6.054  19.323  0.00  0.00    +0.000 C 
ENDBRANCH  14  18
ENDBRANCH  13  14
ENDBRANCH   1  13
TORSDOF 11
ENDMDL
MODEL 8
REMARK VINA RESULT:      -5.3      1.188      3.829
REMARK  Name = 
REMARK  15 active torsions:
REMARK  status: ('A' for Active; 'I' for Inactive)
REMARK    1  A    between atoms: C_1  and  C_2
REMARK    2  A    between atoms: C_2  and  O_3
REMARK    3  A    between atoms: O_3  and  C_4
REMARK    4  A    between atoms: C_4  and  C_6
REMARK    5  A    between atoms: C_6  and  C_7
REMARK    6  A    between atoms: C_7  and  S_8
REMARK    7  A    between atoms: C_7  and  C_15
REMARK    8  A    between atoms: S_8  and  P_9
REMARK    9  A    between atoms: P_9  and  O_11
REMARK   10  A    between atoms: P_9  and  O_13
REMARK   11  A    between atoms: O_11  and  C_12
REMARK   12  A    between atoms: O_13  and  C_14
REMARK   13  A    between atoms: C_15  and  O_17
REMARK   14  A    between atoms: O_17  and  C_18
REMARK   15  A    between atoms: C_18  and  C_19
REMARK                            x       y       z     vdW  Elec       q    Type
REMARK                         _______ _______ _______ _____ _____    ______ ____
ROOT
ATOM      1  C   UNL     1       4.217   5.380  18.646  0.00  0.00    +0.000 C 
ENDROOT
BRANCH   1   2
ATOM      2  C   UNL     1       2.935   6.084  19.077  0.00  0.00    +0.000 C 
ATOM      3  O   UNL     1       2.215   5.719  19.997  0.00  0.00    +0.000 OA
BRANCH   2   4
ATOM      4  O   UNL     1       2.655   7.117  18.229  0.00  0.00    +0.000 OA
BRANCH   4   5
ATOM      5  C   UNL     1       1.982   8.226  18.841  0.00  0.00    +0.000 C 
ATOM      6  C   UNL     1       2.037   9.388  17.864  0.00  0.00    +0.000 C 
ENDBRANCH   4   5
ENDBRANCH   2   4
ENDBRANCH   1   2
BRANCH   1   7
ATOM      7  C   UNL     1       3.857   3.991  18.124  0.00  0.00    +0.000 C 
BRANCH   7   8
ATOM      8  C   UNL     1       4.123   2.943  19.177  0.00  0.00    +0.000 C 
ATOM      9  O   UNL     1       5.166   2.863  19.819  0.00  0.00    +0.000 OA
BRANCH   8  10
ATOM     10  O   UNL     1       3.116   2.022  19.195  0.00  0.00    +0.000 OA
BRANCH  10  12
ATOM     11  C   UNL     1       0.709   2.396  18.919  0.00  0.00    +0.000 C 
ATOM     12  C   UNL     1       2.053   2.205  18.245  0.00  0.00    +0.000 C 
ENDBRANCH  10  12
ENDBRANCH   8  10
ENDBRANCH   7   8
ENDBRANCH   1   7
BRANCH   1  13
ATOM     13  S   UNL     1       5.005   6.464  17.376  0.00  0.00    +0.000 S 
BRANCH  13  14
ATOM     14  P   UNL     1       5.991   5.214  15.977  0.00  0.00    +0.000 P 
ATOM     15  O   UNL     1       5.791   6.315  14.938  0.00  0.00    +0.000 OA
BRANCH  14  16
ATOM     16  O   UNL     1       7.438   5.383  16.749  0.00  0.00    +0.000 OA
ATOM     17  C   UNL     1       7.656   4.726  17.985  0.00  0.00    +0.000 C 
ENDBRANCH  14  16
BRANCH  14  18
ATOM     18  O   UNL     1       6.796   4.193  14.835  0.00  0.00    +0.000 OA
ATOM     19  C   UNL     1       6.022   3.915  13.686  0.00  0.00    +0.000 C 
ENDBRANCH  14  18
ENDBRANCH  13  14
ENDBRANCH   1  13
TORSDOF 11
ENDMDL
MODEL 9
REMARK VINA RESULT:      -5.3      1.532      2.588
REMARK  Name = 
REMARK  15 active torsions:
REMARK  status: ('A' for Active; 'I' for Inactive)
REMARK    1  A    between atoms: C_1  and  C_2
REMARK    2  A    between atoms: C_2  and  O_3
REMARK    3  A    between atoms: O_3  and  C_4
REMARK    4  A    between atoms: C_4  and  C_6
REMARK    5  A    between atoms: C_6  and  C_7
REMARK    6  A    between atoms: C_7  and  S_8
REMARK    7  A    between atoms: C_7  and  C_15
REMARK    8  A    between atoms: S_8  and  P_9
REMARK    9  A    between atoms: P_9  and  O_11
REMARK   10  A    between atoms: P_9  and  O_13
REMARK   11  A    between atoms: O_11  and  C_12
REMARK   12  A    between atoms: O_13  and  C_14
REMARK   13  A    between atoms: C_15  and  O_17
REMARK   14  A    between atoms: O_17  and  C_18
REMARK   15  A    between atoms: C_18  and  C_19
REMARK                            x       y       z     vdW  Elec       q    Type
REMARK                         _______ _______ _______ _____ _____    ______ ____
ROOT
ATOM      1  C   UNL     1       3.569   5.056  17.495  0.00  0.00    +0.000 C 
ENDROOT
BRANCH   1   2
ATOM      2  C   UNL     1       2.639   3.849  17.473  0.00  0.00    +0.000 C 
ATOM      3  O   UNL     1       1.417   3.910  17.433  0.00  0.00    +0.000 OA
BRANCH   2   4
ATOM      4  O   UNL     1       3.359   2.696  17.606  0.00  0.00    +0.000 OA
BRANCH   4   5
ATOM      5  C   UNL     1       3.043   1.925  18.773  0.00  0.00    +0.000 C 
ATOM      6  C   UNL     1       4.212   2.053  19.735  0.00  0.00    +0.000 C 
ENDBRANCH   4   5
ENDBRANCH   2   4
ENDBRANCH   1   2
BRANCH   1   7
ATOM      7  C   UNL     1       3.709   5.537  18.937  0.00  0.00    +0.000 C 
BRANCH   7   8
ATOM      8  C   UNL     1       2.772   6.689  19.207  0.00  0.00    +0.000 C 
ATOM      9  O   UNL     1       1.899   6.677  20.070  0.00  0.00    +0.000 OA
BRANCH   8  10
ATOM     10  O   UNL     1       2.933   7.663  18.265  0.00  0.00    +0.000 OA
BRANCH  10  12
ATOM     11  C   UNL     1       1.928   9.875  17.939  0.00  0.00    +0.000 C 
ATOM     12  C   UNL     1       1.751   8.372  17.857  0.00  0.00    +0.000 C 
ENDBRANCH  10  12
ENDBRANCH   8  10
ENDBRANCH   7   8
ENDBRANCH   1   7
BRANCH   1  13
ATOM     13  S   UNL     1       5.162   4.501  16.744  0.00  0.00    +0.000 S 
BRANCH  13  14
ATOM     14  P   UNL     1       6.701   5.757  17.485  0.00  0.00    +0.000 P 
ATOM     15  O   UNL     1       7.245   4.549  18.244  0.00  0.00    +0.000 OA
BRANCH  14  16
ATOM     16  O   UNL     1       7.399   5.887  15.997  0.00  0.00    +0.000 OA
ATOM     17  C   UNL     1       7.072   4.953  14.983  0.00  0.00    +0.000 C 
ENDBRANCH  14  16
BRANCH  14  18
ATOM     18  O   UNL     1       7.957   6.782  18.089  0.00  0.00    +0.000 OA
ATOM     19  C   UNL     1       7.864   8.116  17.632  0.00  0.00    +0.000 C 
ENDBRANCH  14  18
ENDBRANCH  13  14
ENDBRANCH   1  13
TORSDOF 11
ENDMDL
