MODEL 1
REMARK VINA RESULT:      -6.9      0.000      0.000
REMARK  Name = 
REMARK  15 active torsions:
REMARK  status: ('A' for Active; 'I' for Inactive)
REMARK    1  A    between atoms: C_1  and  C_2
REMARK    2  A    between atoms: C_2  and  N_3
REMARK    3  A    between atoms: N_3  and  C_4
REMARK    4  A    between atoms: C_4  and  C_5
REMARK    5  A    between atoms: N_9  and  C_10
REMARK    6  A    between atoms: C_10  and  C_11
REMARK    7  A    between atoms: C_11  and  O_12
REMARK    8  A    between atoms: C_11  and  C_13
REMARK    9  A    between atoms: C_16  and  O_17
REMARK   10  A    between atoms: C_18  and  C_19
REMARK   11  A    between atoms: C_19  and  O_20
REMARK   12  A    between atoms: C_24  and  O_25
REMARK   13  A    between atoms: O_25  and  C_26
REMARK   14  A    between atoms: C_27  and  O_28
REMARK   15  A    between atoms: O_28  and  C_29
REMARK                            x       y       z     vdW  Elec       q    Type
REMARK                         _______ _______ _______ _____ _____    ______ ____
ROOT
ATOM      1  N   UNL     1       3.260   3.460  20.598  0.00  0.00    +0.000 N 
ATOM      2  C   UNL     1       2.998   4.660  19.965  0.00  0.00    +0.000 A 
ATOM      3  N   UNL     1       3.592   4.912  18.793  0.00  0.00    +0.000 NA
ATOM      4  C   UNL     1       3.419   6.112  18.213  0.00  0.00    +0.000 A 
ATOM      5  N   UNL     1       4.054   6.364  16.969  0.00  0.00    +0.000 N 
ATOM      6  C   UNL     1       2.637   7.103  18.815  0.00  0.00    +0.000 A 
ATOM      7  C   UNL     1       2.400   8.395  18.301  0.00  0.00    +0.000 A 
ATOM      8  C   UNL     1       1.574   9.358  18.931  0.00  0.00    +0.000 A 
ATOM      9  C   UNL     1       0.964   8.989  20.129  0.00  0.00    +0.000 A 
ATOM     10  C   UNL     1       1.214   7.682  20.624  0.00  0.00    +0.000 A 
ATOM     11  C   UNL     1       2.024   6.740  20.000  0.00  0.00    +0.000 A 
ATOM     12  N   UNL     1       2.185   5.539  20.558  0.00  0.00    +0.000 NA
ATOM     13  H   UNL     1       4.805   7.038  17.102  0.00  0.00    +0.000 HD
ENDROOT
BRANCH   1  15
ATOM     14  C   UNL     1       1.074   2.550  21.335  0.00  0.00    +0.000 C 
ATOM     15  C   UNL     1       2.454   3.052  21.739  0.00  0.00    +0.000 C 
ENDBRANCH   1  15
BRANCH   1  16
ATOM     16  C   UNL     1       4.325   2.603  20.097  0.00  0.00    +0.000 C 
ATOM     17  C   UNL     1       3.814   1.654  19.019  0.00  0.00    +0.000 C 
ENDBRANCH   1  16
BRANCH   8  18
ATOM     18  O   UNL     1       1.612  10.462  18.147  0.00  0.00    +0.000 OA
ATOM     19  C   UNL     1       2.232  11.690  18.413  0.00  0.00    +0.000 C 
ENDBRANCH   8  18
BRANCH   9  20
ATOM     20  O   UNL     1       0.135   9.601  21.018  0.00  0.00    +0.000 OA
ATOM     21  C   UNL     1      -0.117  10.979  21.060  0.00  0.00    +0.000 C 
ENDBRANCH   9  20
BRANCH   5  22
ATOM     22  C   UNL     1       4.513   5.127  16.320  0.00  0.00    +0.000 C 
BRANCH  22  23
ATOM     23  C   UNL     1       6.047   5.058  16.116  0.00  0.00    +0.000 C 
BRANCH  23  24
ATOM     24  C   UNL     1       6.472   4.727  14.683  0.00  0.00    +0.000 A 
ATOM     25  C   UNL     1       7.551   5.408  14.102  0.00  0.00    +0.000 A 
ATOM     26  C   UNL     1       7.930   5.159  12.776  0.00  0.00    +0.000 A 
ATOM     27  C   UNL     1       7.227   4.225  12.012  0.00  0.00    +0.000 A 
ATOM     28  C   UNL     1       6.152   3.518  12.550  0.00  0.00    +0.000 A 
ATOM     29  C   UNL     1       5.798   3.780  13.889  0.00  0.00    +0.000 A 
BRANCH  27  30
ATOM     30  O   UNL     1       7.588   4.003  10.711  0.00  0.00    +0.000 OA
ATOM     31  H   UNL     1       8.539   3.800  10.680  0.00  0.00    +0.000 HD
ENDBRANCH  27  30
BRANCH  28  32
ATOM     32  C   UNL     1       5.316   2.495  11.808  0.00  0.00    +0.000 C 
BRANCH  32  33
ATOM     33  O   UNL     1       5.979   1.318  11.373  0.00  0.00    +0.000 OA
ATOM     34  H   UNL     1       5.290   0.637  11.250  0.00  0.00    +0.000 HD
ENDBRANCH  32  33
ENDBRANCH  28  32
ENDBRANCH  23  24
BRANCH  23  35
ATOM     35  O   UNL     1       6.583   4.062  17.001  0.00  0.00    +0.000 OA
ATOM     36  H   UNL     1       6.631   4.467  17.884  0.00  0.00    +0.000 HD
ENDBRANCH  23  35
ENDBRANCH  22  23
ENDBRANCH   5  22
TORSDOF 11
ENDMDL
MODEL 2
REMARK VINA RESULT:      -6.7      2.059      3.842
REMARK  Name = 
REMARK  15 active torsions:
REMARK  status: ('A' for Active; 'I' for Inactive)
REMARK    1  A    between atoms: C_1  and  C_2
REMARK    2  A    between atoms: C_2  and  N_3
REMARK    3  A    between atoms: N_3  and  C_4
REMARK    4  A    between atoms: C_4  and  C_5
REMARK    5  A    between atoms: N_9  and  C_10
REMARK    6  A    between atoms: C_10  and  C_11
REMARK    7  A    between atoms: C_11  and  O_12
REMARK    8  A    between atoms: C_11  and  C_13
REMARK    9  A    between atoms: C_16  and  O_17
REMARK   10  A    between atoms: C_18  and  C_19
REMARK   11  A    between atoms: C_19  and  O_20
REMARK   12  A    between atoms: C_24  and  O_25
REMARK   13  A    between atoms: O_25  and  C_26
REMARK   14  A    between atoms: C_27  and  O_28
REMARK   15  A    between atoms: O_28  and  C_29
REMARK                            x       y       z     vdW  Elec       q    Type
REMARK                         _______ _______ _______ _____ _____    ______ ____
ROOT
ATOM      1  N   UNL     1       3.343   3.078  20.443  0.00  0.00    +0.000 N 
ATOM      2  C   UNL     1       3.049   4.291  19.850  0.00  0.00    +0.000 A 
ATOM      3  N   UNL     1       3.552   4.553  18.638  0.00  0.00    +0.000 NA
ATOM      4  C   UNL     1       3.353   5.764  18.091  0.00  0.00    +0.000 A 
ATOM      5  N   UNL     1       3.891   6.027  16.805  0.00  0.00    +0.000 N 
ATOM      6  C   UNL     1       2.635   6.757  18.769  0.00  0.00    +0.000 A 
ATOM      7  C   UNL     1       2.379   8.060  18.294  0.00  0.00    +0.000 A 
ATOM      8  C   UNL     1       1.620   9.024  19.001  0.00  0.00    +0.000 A 
ATOM      9  C   UNL     1       1.101   8.644  20.239  0.00  0.00    +0.000 A 
ATOM     10  C   UNL     1       1.370   7.326  20.693  0.00  0.00    +0.000 A 
ATOM     11  C   UNL     1       2.114   6.383  19.993  0.00  0.00    +0.000 A 
ATOM     12  N   UNL     1       2.300   5.171  20.519  0.00  0.00    +0.000 NA
ATOM     13  H   UNL     1       4.660   6.689  16.888  0.00  0.00    +0.000 HD
ENDROOT
BRANCH   1  15
ATOM     14  C   UNL     1       1.117   2.597  21.425  0.00  0.00    +0.000 C 
ATOM     15  C   UNL     1       2.623   2.662  21.637  0.00  0.00    +0.000 C 
ENDBRANCH   1  15
BRANCH   1  16
ATOM     16  C   UNL     1       4.352   2.213  19.846  0.00  0.00    +0.000 C 
ATOM     17  C   UNL     1       3.767   1.374  18.716  0.00  0.00    +0.000 C 
ENDBRANCH   1  16
BRANCH   8  18
ATOM     18  O   UNL     1       1.612  10.140  18.233  0.00  0.00    +0.000 OA
ATOM     19  C   UNL     1       1.864  11.461  18.626  0.00  0.00    +0.000 C 
ENDBRANCH   8  18
BRANCH   9  20
ATOM     20  O   UNL     1       0.355   9.253  21.199  0.00  0.00    +0.000 OA
ATOM     21  C   UNL     1      -0.396  10.422  21.010  0.00  0.00    +0.000 C 
ENDBRANCH   9  20
BRANCH   5  22
ATOM     22  C   UNL     1       4.278   4.794  16.103  0.00  0.00    +0.000 C 
BRANCH  22  23
ATOM     23  C   UNL     1       5.807   4.551  16.061  0.00  0.00    +0.000 C 
BRANCH  23  24
ATOM     24  C   UNL     1       6.616   5.512  16.937  0.00  0.00    +0.000 A 
ATOM     25  C   UNL     1       6.717   6.863  16.578  0.00  0.00    +0.000 A 
ATOM     26  C   UNL     1       7.489   7.754  17.335  0.00  0.00    +0.000 A 
ATOM     27  C   UNL     1       8.177   7.299  18.462  0.00  0.00    +0.000 A 
ATOM     28  C   UNL     1       8.100   5.965  18.862  0.00  0.00    +0.000 A 
ATOM     29  C   UNL     1       7.308   5.092  18.088  0.00  0.00    +0.000 A 
BRANCH  27  30
ATOM     30  O   UNL     1       8.947   8.169  19.184  0.00  0.00    +0.000 OA
ATOM     31  H   UNL     1       9.079   7.805  20.077  0.00  0.00    +0.000 HD
ENDBRANCH  27  30
BRANCH  28  32
ATOM     32  C   UNL     1       8.812   5.365  20.057  0.00  0.00    +0.000 C 
BRANCH  32  33
ATOM     33  O   UNL     1       8.072   5.269  21.264  0.00  0.00    +0.000 OA
ATOM     34  H   UNL     1       8.016   6.173  21.631  0.00  0.00    +0.000 HD
ENDBRANCH  32  33
ENDBRANCH  28  32
ENDBRANCH  23  24
BRANCH  23  35
ATOM     35  O   UNL     1       6.254   4.675  14.702  0.00  0.00    +0.000 OA
ATOM     36  H   UNL     1       6.826   3.908  14.522  0.00  0.00    +0.000 HD
ENDBRANCH  23  35
ENDBRANCH  22  23
ENDBRANCH   5  22
TORSDOF 11
ENDMDL
MODEL 3
REMARK VINA RESULT:      -6.7      4.928      8.886
REMARK  Name = 
REMARK  15 active torsions:
REMARK  status: ('A' for Active; 'I' for Inactive)
REMARK    1  A    between atoms: C_1  and  C_2
REMARK    2  A    between atoms: C_2  and  N_3
REMARK    3  A    between atoms: N_3  and  C_4
REMARK    4  A    between atoms: C_4  and  C_5
REMARK    5  A    between atoms: N_9  and  C_10
REMARK    6  A    between atoms: C_10  and  C_11
REMARK    7  A    between atoms: C_11  and  O_12
REMARK    8  A    between atoms: C_11  and  C_13
REMARK    9  A    between atoms: C_16  and  O_17
REMARK   10  A    between atoms: C_18  and  C_19
REMARK   11  A    between atoms: C_19  and  O_20
REMARK   12  A    between atoms: C_24  and  O_25
REMARK   13  A    between atoms: O_25  and  C_26
REMARK   14  A    between atoms: C_27  and  O_28
REMARK   15  A    between atoms: O_28  and  C_29
REMARK                            x       y       z     vdW  Elec       q    Type
REMARK                         _______ _______ _______ _____ _____    ______ ____
ROOT
ATOM      1  N   UNL     1      -2.160  13.721  22.480  0.00  0.00    +0.000 N 
ATOM      2  C   UNL     1      -2.245  12.899  21.373  0.00  0.00    +0.000 A 
ATOM      3  N   UNL     1      -1.172  12.184  21.018  0.00  0.00    +0.000 NA
ATOM      4  C   UNL     1      -1.210  11.454  19.890  0.00  0.00    +0.000 A 
ATOM      5  N   UNL     1      -0.065  10.700  19.528  0.00  0.00    +0.000 N 
ATOM      6  C   UNL     1      -2.350  11.435  19.077  0.00  0.00    +0.000 A 
ATOM      7  C   UNL     1      -2.492  10.717  17.872  0.00  0.00    +0.000 A 
ATOM      8  C   UNL     1      -3.677  10.702  17.096  0.00  0.00    +0.000 A 
ATOM      9  C   UNL     1      -4.758  11.445  17.568  0.00  0.00    +0.000 A 
ATOM     10  C   UNL     1      -4.591  12.156  18.786  0.00  0.00    +0.000 A 
ATOM     11  C   UNL     1      -3.426  12.166  19.544  0.00  0.00    +0.000 A 
ATOM     12  N   UNL     1      -3.385  12.871  20.676  0.00  0.00    +0.000 NA
ATOM     13  H   UNL     1       0.371  11.118  18.708  0.00  0.00    +0.000 HD
ENDROOT
BRANCH   1  15
ATOM     14  C   UNL     1      -3.917  13.541  24.221  0.00  0.00    +0.000 C 
ATOM     15  C   UNL     1      -3.366  14.318  23.034  0.00  0.00    +0.000 C 
ENDBRANCH   1  15
BRANCH   1  16
ATOM     16  C   UNL     1      -0.864  13.955  23.101  0.00  0.00    +0.000 C 
ATOM     17  C   UNL     1      -0.694  15.417  23.499  0.00  0.00    +0.000 C 
ENDBRANCH   1  16
BRANCH   8  18
ATOM     18  O   UNL     1      -3.417   9.921  16.020  0.00  0.00    +0.000 OA
ATOM     19  C   UNL     1      -3.267  10.313  14.683  0.00  0.00    +0.000 C 
ENDBRANCH   8  18
BRANCH   9  20
ATOM     20  O   UNL     1      -6.023  11.691  17.132  0.00  0.00    +0.000 OA
ATOM     21  C   UNL     1      -6.594  12.965  17.011  0.00  0.00    +0.000 C 
ENDBRANCH   9  20
BRANCH   5  22
ATOM     22  C   UNL     1       0.873  10.543  20.650  0.00  0.00    +0.000 C 
BRANCH  22  23
ATOM     23  C   UNL     1       0.935   9.103  21.218  0.00  0.00    +0.000 C 
BRANCH  23  24
ATOM     24  C   UNL     1       1.593   8.089  20.278  0.00  0.00    +0.000 A 
ATOM     25  C   UNL     1       1.971   8.481  18.987  0.00  0.00    +0.000 A 
ATOM     26  C   UNL     1       2.531   7.561  18.090  0.00  0.00    +0.000 A 
ATOM     27  C   UNL     1       2.714   6.232  18.475  0.00  0.00    +0.000 A 
ATOM     28  C   UNL     1       2.361   5.799  19.752  0.00  0.00    +0.000 A 
ATOM     29  C   UNL     1       1.808   6.746  20.638  0.00  0.00    +0.000 A 
BRANCH  27  30
ATOM     30  O   UNL     1       3.241   5.335  17.587  0.00  0.00    +0.000 OA
ATOM     31  H   UNL     1       4.184   5.537  17.459  0.00  0.00    +0.000 HD
ENDBRANCH  27  30
BRANCH  28  32
ATOM     32  C   UNL     1       2.505   4.381  20.269  0.00  0.00    +0.000 C 
BRANCH  32  33
ATOM     33  O   UNL     1       2.128   3.335  19.386  0.00  0.00    +0.000 OA
ATOM     34  H   UNL     1       2.950   2.874  19.130  0.00  0.00    +0.000 HD
ENDBRANCH  32  33
ENDBRANCH  28  32
ENDBRANCH  23  24
BRANCH  23  35
ATOM     35  O   UNL     1      -0.402   8.667  21.508  0.00  0.00    +0.000 OA
ATOM     36  H   UNL     1      -0.823   9.374  22.028  0.00  0.00    +0.000 HD
ENDBRANCH  23  35
ENDBRANCH  22  23
ENDBRANCH   5  22
TORSDOF 11
ENDMDL
MODEL 4
REMARK VINA RESULT:      -6.6      4.859      8.569
REMARK  Name = 
REMARK  15 active torsions:
REMARK  status: ('A' for Active; 'I' for Inactive)
REMARK    1  A    between atoms: C_1  and  C_2
REMARK    2  A    between atoms: C_2  and  N_3
REMARK    3  A    between atoms: N_3  and  C_4
REMARK    4  A    between atoms: C_4  and  C_5
REMARK    5  A    between atoms: N_9  and  C_10
REMARK    6  A    between atoms: C_10  and  C_11
REMARK    7  A    between atoms: C_11  and  O_12
REMARK    8  A    between atoms: C_11  and  C_13
REMARK    9  A    between atoms: C_16  and  O_17
REMARK   10  A    between atoms: C_18  and  C_19
REMARK   11  A    between atoms: C_19  and  O_20
REMARK   12  A    between atoms: C_24  and  O_25
REMARK   13  A    between atoms: O_25  and  C_26
REMARK   14  A    between atoms: C_27  and  O_28
REMARK   15  A    between atoms: O_28  and  C_29
REMARK                            x       y       z     vdW  Elec       q    Type
REMARK                         _______ _______ _______ _____ _____    ______ ____
ROOT
ATOM      1  N   UNL     1      -3.179  11.107  18.279  0.00  0.00    +0.000 N 
ATOM      2  C   UNL     1      -2.598  11.698  19.385  0.00  0.00    +0.000 A 
ATOM      3  N   UNL     1      -1.509  11.133  19.919  0.00  0.00    +0.000 NA
ATOM      4  C   UNL     1      -0.991  11.643  21.049  0.00  0.00    +0.000 A 
ATOM      5  N   UNL     1       0.166  11.035  21.602  0.00  0.00    +0.000 N 
ATOM      6  C   UNL     1      -1.574  12.747  21.681  0.00  0.00    +0.000 A 
ATOM      7  C   UNL     1      -1.121  13.352  22.872  0.00  0.00    +0.000 A 
ATOM      8  C   UNL     1      -1.725  14.489  23.461  0.00  0.00    +0.000 A 
ATOM      9  C   UNL     1      -2.831  15.033  22.809  0.00  0.00    +0.000 A 
ATOM     10  C   UNL     1      -3.266  14.409  21.610  0.00  0.00    +0.000 A 
ATOM     11  C   UNL     1      -2.667  13.293  21.036  0.00  0.00    +0.000 A 
ATOM     12  N   UNL     1      -3.163  12.793  19.902  0.00  0.00    +0.000 NA
ATOM     13  H   UNL     1      -0.083  10.555  22.465  0.00  0.00    +0.000 HD
ENDROOT
BRANCH   1  15
ATOM     14  C   UNL     1      -5.599  11.247  17.758  0.00  0.00    +0.000 C 
ATOM     15  C   UNL     1      -4.206  11.819  17.533  0.00  0.00    +0.000 C 
ENDBRANCH   1  15
BRANCH   1  16
ATOM     16  C   UNL     1      -2.733   9.788  17.854  0.00  0.00    +0.000 C 
ATOM     17  C   UNL     1      -2.535   9.728  16.343  0.00  0.00    +0.000 C 
ENDBRANCH   1  16
BRANCH   8  18
ATOM     18  O   UNL     1      -1.019  14.755  24.586  0.00  0.00    +0.000 OA
ATOM     19  C   UNL     1      -1.428  15.484  25.711  0.00  0.00    +0.000 C 
ENDBRANCH   8  18
BRANCH   9  20
ATOM     20  O   UNL     1      -3.670  16.078  23.042  0.00  0.00    +0.000 OA
ATOM     21  C   UNL     1      -4.960  15.965  23.580  0.00  0.00    +0.000 C 
ENDBRANCH   9  20
BRANCH   5  22
ATOM     22  C   UNL     1       0.842  10.153  20.640  0.00  0.00    +0.000 C 
BRANCH  22  23
ATOM     23  C   UNL     1       1.014   8.696  21.138  0.00  0.00    +0.000 C 
BRANCH  23  24
ATOM     24  C   UNL     1       1.736   7.779  20.147  0.00  0.00    +0.000 A 
ATOM     25  C   UNL     1       2.082   8.261  18.877  0.00  0.00    +0.000 A 
ATOM     26  C   UNL     1       2.700   7.429  17.934  0.00  0.00    +0.000 A 
ATOM     27  C   UNL     1       2.975   6.098  18.251  0.00  0.00    +0.000 A 
ATOM     28  C   UNL     1       2.657   5.576  19.504  0.00  0.00    +0.000 A 
ATOM     29  C   UNL     1       2.044   6.437  20.438  0.00  0.00    +0.000 A 
BRANCH  27  30
ATOM     30  O   UNL     1       3.558   5.285  17.318  0.00  0.00    +0.000 OA
ATOM     31  H   UNL     1       3.334   5.614  16.430  0.00  0.00    +0.000 HD
ENDBRANCH  27  30
BRANCH  28  32
ATOM     32  C   UNL     1       2.900   4.147  19.948  0.00  0.00    +0.000 C 
BRANCH  32  33
ATOM     33  O   UNL     1       2.994   3.166  18.927  0.00  0.00    +0.000 OA
ATOM     34  H   UNL     1       2.945   2.296  19.368  0.00  0.00    +0.000 HD
ENDBRANCH  32  33
ENDBRANCH  28  32
ENDBRANCH  23  24
BRANCH  23  35
ATOM     35  O   UNL     1      -0.285   8.150  21.413  0.00  0.00    +0.000 OA
ATOM     36  H   UNL     1      -0.297   7.250  21.042  0.00  0.00    +0.000 HD
ENDBRANCH  23  35
ENDBRANCH  22  23
ENDBRANCH   5  22
TORSDOF 11
ENDMDL
MODEL 5
REMARK VINA RESULT:      -6.5      4.170      7.222
REMARK  Name = 
REMARK  15 active torsions:
REMARK  status: ('A' for Active; 'I' for Inactive)
REMARK    1  A    between atoms: C_1  and  C_2
REMARK    2  A    between atoms: C_2  and  N_3
REMARK    3  A    between atoms: N_3  and  C_4
REMARK    4  A    between atoms: C_4  and  C_5
REMARK    5  A    between atoms: N_9  and  C_10
REMARK    6  A    between atoms: C_10  and  C_11
REMARK    7  A    between atoms: C_11  and  O_12
REMARK    8  A    between atoms: C_11  and  C_13
REMARK    9  A    between atoms: C_16  and  O_17
REMARK   10  A    between atoms: C_18  and  C_19
REMARK   11  A    between atoms: C_19  and  O_20
REMARK   12  A    between atoms: C_24  and  O_25
REMARK   13  A    between atoms: O_25  and  C_26
REMARK   14  A    between atoms: C_27  and  O_28
REMARK   15  A    between atoms: O_28  and  C_29
REMARK                            x       y       z     vdW  Elec       q    Type
REMARK                         _______ _______ _______ _____ _____    ______ ____
ROOT
ATOM      1  N   UNL     1      -0.772  11.354  21.677  0.00  0.00    +0.000 N 
ATOM      2  C   UNL     1      -1.185  11.053  20.393  0.00  0.00    +0.000 A 
ATOM      3  N   UNL     1      -0.374  10.336  19.607  0.00  0.00    +0.000 NA
ATOM      4  C   UNL     1      -0.722  10.117  18.328  0.00  0.00    +0.000 A 
ATOM      5  N   UNL     1       0.148   9.353  17.507  0.00  0.00    +0.000 N 
ATOM      6  C   UNL     1      -1.912  10.631  17.802  0.00  0.00    +0.000 A 
ATOM      7  C   UNL     1      -2.366  10.473  16.476  0.00  0.00    +0.000 A 
ATOM      8  C   UNL     1      -3.594  10.985  15.993  0.00  0.00    +0.000 A 
ATOM      9  C   UNL     1      -4.393  11.685  16.898  0.00  0.00    +0.000 A 
ATOM     10  C   UNL     1      -3.916  11.827  18.228  0.00  0.00    +0.000 A 
ATOM     11  C   UNL     1      -2.710  11.320  18.696  0.00  0.00    +0.000 A 
ATOM     12  N   UNL     1      -2.366  11.515  19.971  0.00  0.00    +0.000 NA
ATOM     13  H   UNL     1       0.581   9.961  16.815  0.00  0.00    +0.000 HD
ENDROOT
BRANCH   1  15
ATOM     14  C   UNL     1      -1.261  13.252  23.197  0.00  0.00    +0.000 C 
ATOM     15  C   UNL     1      -1.718  11.914  22.630  0.00  0.00    +0.000 C 
ENDBRANCH   1  15
BRANCH   1  16
ATOM     16  C   UNL     1       0.602  11.077  22.071  0.00  0.00    +0.000 C 
ATOM     17  C   UNL     1       0.732   9.696  22.703  0.00  0.00    +0.000 C 
ENDBRANCH   1  16
BRANCH   8  18
ATOM     18  O   UNL     1      -3.662  10.642  14.685  0.00  0.00    +0.000 OA
ATOM     19  C   UNL     1      -2.810   9.790  13.969  0.00  0.00    +0.000 C 
ENDBRANCH   8  18
BRANCH   9  20
ATOM     20  O   UNL     1      -5.595  12.319  16.834  0.00  0.00    +0.000 OA
ATOM     21  C   UNL     1      -6.622  12.184  17.777  0.00  0.00    +0.000 C 
ENDBRANCH   9  20
BRANCH   5  22
ATOM     22  C   UNL     1       1.134   8.599  18.296  0.00  0.00    +0.000 C 
BRANCH  22  23
ATOM     23  C   UNL     1       2.406   8.211  17.502  0.00  0.00    +0.000 C 
BRANCH  23  24
ATOM     24  C   UNL     1       3.114   6.961  18.031  0.00  0.00    +0.000 A 
ATOM     25  C   UNL     1       2.632   6.323  19.183  0.00  0.00    +0.000 A 
ATOM     26  C   UNL     1       3.290   5.206  19.716  0.00  0.00    +0.000 A 
ATOM     27  C   UNL     1       4.444   4.716  19.103  0.00  0.00    +0.000 A 
ATOM     28  C   UNL     1       4.955   5.313  17.951  0.00  0.00    +0.000 A 
ATOM     29  C   UNL     1       4.270   6.429  17.429  0.00  0.00    +0.000 A 
BRANCH  27  30
ATOM     30  O   UNL     1       5.093   3.639  19.641  0.00  0.00    +0.000 OA
ATOM     31  H   UNL     1       4.829   3.547  20.574  0.00  0.00    +0.000 HD
ENDBRANCH  27  30
BRANCH  28  32
ATOM     32  C   UNL     1       6.204   4.871  17.214  0.00  0.00    +0.000 C 
BRANCH  32  33
ATOM     33  O   UNL     1       7.239   4.294  17.995  0.00  0.00    +0.000 OA
ATOM     34  H   UNL     1       7.468   3.443  17.573  0.00  0.00    +0.000 HD
ENDBRANCH  32  33
ENDBRANCH  28  32
ENDBRANCH  23  24
BRANCH  23  35
ATOM     35  O   UNL     1       3.324   9.314  17.537  0.00  0.00    +0.000 OA
ATOM     36  H   UNL     1       3.826   9.291  16.703  0.00  0.00    +0.000 HD
ENDBRANCH  23  35
ENDBRANCH  22  23
ENDBRANCH   5  22
TORSDOF 11
ENDMDL
MODEL 6
REMARK VINA RESULT:      -6.5      4.651      8.815
REMARK  Name = 
REMARK  15 active torsions:
REMARK  status: ('A' for Active; 'I' for Inactive)
REMARK    1  A    between atoms: C_1  and  C_2
REMARK    2  A    between atoms: C_2  and  N_3
REMARK    3  A    between atoms: N_3  and  C_4
REMARK    4  A    between atoms: C_4  and  C_5
REMARK    5  A    between atoms: N_9  and  C_10
REMARK    6  A    between atoms: C_10  and  C_11
REMARK    7  A    between atoms: C_11  and  O_12
REMARK    8  A    between atoms: C_11  and  C_13
REMARK    9  A    between atoms: C_16  and  O_17
REMARK   10  A    between atoms: C_18  and  C_19
REMARK   11  A    between atoms: C_19  and  O_20
REMARK   12  A    between atoms: C_24  and  O_25
REMARK   13  A    between atoms: O_25  and  C_26
REMARK   14  A    between atoms: C_27  and  O_28
REMARK   15  A    between atoms: O_28  and  C_29
REMARK                            x       y       z     vdW  Elec       q    Type
REMARK                         _______ _______ _______ _____ _____    ______ ____
ROOT
ATOM      1  N   UNL     1       2.269  14.425  20.685  0.00  0.00    +0.000 N 
ATOM      2  C   UNL     1       1.216  13.790  21.314  0.00  0.00    +0.000 A 
ATOM      3  N   UNL     1       1.042  12.479  21.112  0.00  0.00    +0.000 NA
ATOM      4  C   UNL     1      -0.032  11.868  21.641  0.00  0.00    +0.000 A 
ATOM      5  N   UNL     1      -0.202  10.477  21.420  0.00  0.00    +0.000 N 
ATOM      6  C   UNL     1      -0.974  12.581  22.393  0.00  0.00    +0.000 A 
ATOM      7  C   UNL     1      -2.139  12.043  22.980  0.00  0.00    +0.000 A 
ATOM      8  C   UNL     1      -3.050  12.796  23.760  0.00  0.00    +0.000 A 
ATOM      9  C   UNL     1      -2.763  14.147  23.950  0.00  0.00    +0.000 A 
ATOM     10  C   UNL     1      -1.583  14.663  23.352  0.00  0.00    +0.000 A 
ATOM     11  C   UNL     1      -0.691  13.919  22.589  0.00  0.00    +0.000 A 
ATOM     12  N   UNL     1       0.389  14.512  22.076  0.00  0.00    +0.000 NA
ATOM     13  H   UNL     1      -0.988  10.328  20.791  0.00  0.00    +0.000 HD
ENDROOT
BRANCH   1  15
ATOM     14  C   UNL     1       4.111  15.925  21.399  0.00  0.00    +0.000 C 
ATOM     15  C   UNL     1       2.631  15.781  21.069  0.00  0.00    +0.000 C 
ENDBRANCH   1  15
BRANCH   1  16
ATOM     16  C   UNL     1       3.027  13.717  19.663  0.00  0.00    +0.000 C 
ATOM     17  C   UNL     1       2.560  14.096  18.262  0.00  0.00    +0.000 C 
ENDBRANCH   1  16
BRANCH   8  18
ATOM     18  O   UNL     1      -4.033  11.939  24.129  0.00  0.00    +0.000 OA
ATOM     19  C   UNL     1      -5.267  12.243  24.720  0.00  0.00    +0.000 C 
ENDBRANCH   8  18
BRANCH   9  20
ATOM     20  O   UNL     1      -3.365  15.179  24.601  0.00  0.00    +0.000 OA
ATOM     21  C   UNL     1      -3.650  16.427  24.031  0.00  0.00    +0.000 C 
ENDBRANCH   9  20
BRANCH   5  22
ATOM     22  C   UNL     1       1.034   9.836  20.946  0.00  0.00    +0.000 C 
BRANCH  22  23
ATOM     23  C   UNL     1       1.006   9.458  19.444  0.00  0.00    +0.000 C 
BRANCH  23  24
ATOM     24  C   UNL     1       1.923   8.288  19.078  0.00  0.00    +0.000 A 
ATOM     25  C   UNL     1       2.677   8.337  17.898  0.00  0.00    +0.000 A 
ATOM     26  C   UNL     1       3.487   7.260  17.515  0.00  0.00    +0.000 A 
ATOM     27  C   UNL     1       3.547   6.114  18.310  0.00  0.00    +0.000 A 
ATOM     28  C   UNL     1       2.821   6.023  19.497  0.00  0.00    +0.000 A 
ATOM     29  C   UNL     1       2.021   7.124  19.864  0.00  0.00    +0.000 A 
BRANCH  27  30
ATOM     30  O   UNL     1       4.323   5.057  17.919  0.00  0.00    +0.000 OA
ATOM     31  H   UNL     1       4.446   5.097  16.954  0.00  0.00    +0.000 HD
ENDBRANCH  27  30
BRANCH  28  32
ATOM     32  C   UNL     1       2.804   4.825  20.425  0.00  0.00    +0.000 C 
BRANCH  32  33
ATOM     33  O   UNL     1       2.668   3.548  19.823  0.00  0.00    +0.000 OA
ATOM     34  H   UNL     1       2.780   2.888  20.534  0.00  0.00    +0.000 HD
ENDBRANCH  32  33
ENDBRANCH  28  32
ENDBRANCH  23  24
BRANCH  23  35
ATOM     35  O   UNL     1       1.392  10.608  18.674  0.00  0.00    +0.000 OA
ATOM     36  H   UNL     1       1.824  10.275  17.868  0.00  0.00    +0.000 HD
ENDBRANCH  23  35
ENDBRANCH  22  23
ENDBRANCH   5  22
TORSDOF 11
ENDMDL
MODEL 7
REMARK VINA RESULT:      -6.5      5.171      9.375
REMARK  Name = 
REMARK  15 active torsions:
REMARK  status: ('A' for Active; 'I' for Inactive)
REMARK    1  A    between atoms: C_1  and  C_2
REMARK    2  A    between atoms: C_2  and  N_3
REMARK    3  A    between atoms: N_3  and  C_4
REMARK    4  A    between atoms: C_4  and  C_5
REMARK    5  A    between atoms: N_9  and  C_10
REMARK    6  A    between atoms: C_10  and  C_11
REMARK    7  A    between atoms: C_11  and  O_12
REMARK    8  A    between atoms: C_11  and  C_13
REMARK    9  A    between atoms: C_16  and  O_17
REMARK   10  A    between atoms: C_18  and  C_19
REMARK   11  A    between atoms: C_19  and  O_20
REMARK   12  A    between atoms: C_24  and  O_25
REMARK   13  A    between atoms: O_25  and  C_26
REMARK   14  A    between atoms: C_27  and  O_28
REMARK   15  A    between atoms: O_28  and  C_29
REMARK                            x       y       z     vdW  Elec       q    Type
REMARK                         _______ _______ _______ _____ _____    ______ ____
ROOT
ATOM      1  N   UNL     1       1.325  14.189  20.841  0.00  0.00    +0.000 N 
ATOM      2  C   UNL     1       0.252  13.701  21.562  0.00  0.00    +0.000 A 
ATOM      3  N   UNL     1       0.207  12.394  21.844  0.00  0.00    +0.000 NA
ATOM      4  C   UNL     1      -0.875  11.890  22.462  0.00  0.00    +0.000 A 
ATOM      5  N   UNL     1      -0.907  10.503  22.757  0.00  0.00    +0.000 N 
ATOM      6  C   UNL     1      -1.957  12.707  22.808  0.00  0.00    +0.000 A 
ATOM      7  C   UNL     1      -3.142  12.282  23.445  0.00  0.00    +0.000 A 
ATOM      8  C   UNL     1      -4.201  13.150  23.806  0.00  0.00    +0.000 A 
ATOM      9  C   UNL     1      -4.046  14.503  23.508  0.00  0.00    +0.000 A 
ATOM     10  C   UNL     1      -2.843  14.907  22.870  0.00  0.00    +0.000 A 
ATOM     11  C   UNL     1      -1.806  14.050  22.521  0.00  0.00    +0.000 A 
ATOM     12  N   UNL     1      -0.718  14.544  21.925  0.00  0.00    +0.000 NA
ATOM     13  H   UNL     1      -1.592  10.045  22.159  0.00  0.00    +0.000 HD
ENDROOT
BRANCH   1  15
ATOM     14  C   UNL     1       3.001  16.011  20.698  0.00  0.00    +0.000 C 
ATOM     15  C   UNL     1       1.528  15.625  20.728  0.00  0.00    +0.000 C 
ENDBRANCH   1  15
BRANCH   1  16
ATOM     16  C   UNL     1       2.259  13.256  20.226  0.00  0.00    +0.000 C 
ATOM     17  C   UNL     1       1.958  13.064  18.744  0.00  0.00    +0.000 C 
ENDBRANCH   1  16
BRANCH   8  18
ATOM     18  O   UNL     1      -5.153  12.372  24.374  0.00  0.00    +0.000 OA
ATOM     19  C   UNL     1      -6.545  12.474  24.242  0.00  0.00    +0.000 C 
ENDBRANCH   8  18
BRANCH   9  20
ATOM     20  O   UNL     1      -4.804  15.621  23.674  0.00  0.00    +0.000 OA
ATOM     21  C   UNL     1      -4.664  16.534  24.728  0.00  0.00    +0.000 C 
ENDBRANCH   9  20
BRANCH   5  22
ATOM     22  C   UNL     1       0.425   9.886  22.666  0.00  0.00    +0.000 C 
BRANCH  22  23
ATOM     23  C   UNL     1       0.422   8.480  22.016  0.00  0.00    +0.000 C 
BRANCH  23  24
ATOM     24  C   UNL     1       1.147   8.414  20.669  0.00  0.00    +0.000 A 
ATOM     25  C   UNL     1       0.958   9.434  19.726  0.00  0.00    +0.000 A 
ATOM     26  C   UNL     1       1.571   9.375  18.467  0.00  0.00    +0.000 A 
ATOM     27  C   UNL     1       2.379   8.286  18.135  0.00  0.00    +0.000 A 
ATOM     28  C   UNL     1       2.603   7.252  19.043  0.00  0.00    +0.000 A 
ATOM     29  C   UNL     1       1.982   7.341  20.306  0.00  0.00    +0.000 A 
BRANCH  27  30
ATOM     30  O   UNL     1       2.957   8.224  16.896  0.00  0.00    +0.000 OA
ATOM     31  H   UNL     1       3.791   8.724  16.913  0.00  0.00    +0.000 HD
ENDBRANCH  27  30
BRANCH  28  32
ATOM     32  C   UNL     1       3.449   6.023  18.782  0.00  0.00    +0.000 C 
BRANCH  32  33
ATOM     33  O   UNL     1       3.262   5.367  17.537  0.00  0.00    +0.000 OA
ATOM     34  H   UNL     1       2.311   5.155  17.472  0.00  0.00    +0.000 HD
ENDBRANCH  32  33
ENDBRANCH  28  32
ENDBRANCH  23  24
BRANCH  23  35
ATOM     35  O   UNL     1      -0.940   8.064  21.831  0.00  0.00    +0.000 OA
ATOM     36  H   UNL     1      -1.132   7.412  22.528  0.00  0.00    +0.000 HD
ENDBRANCH  23  35
ENDBRANCH  22  23
ENDBRANCH   5  22
TORSDOF 11
ENDMDL
MODEL 8
REMARK VINA RESULT:      -6.5      8.171     10.967
REMARK  Name = 
REMARK  15 active torsions:
REMARK  status: ('A' for Active; 'I' for Inactive)
REMARK    1  A    between atoms: C_1  and  C_2
REMARK    2  A    between atoms: C_2  and  N_3
REMARK    3  A    between atoms: N_3  and  C_4
REMARK    4  A    between atoms: C_4  and  C_5
REMARK    5  A    between atoms: N_9  and  C_10
REMARK    6  A    between atoms: C_10  and  C_11
REMARK    7  A    between atoms: C_11  and  O_12
REMARK    8  A    between atoms: C_11  and  C_13
REMARK    9  A    between atoms: C_16  and  O_17
REMARK   10  A    between atoms: C_18  and  C_19
REMARK   11  A    between atoms: C_19  and  O_20
REMARK   12  A    between atoms: C_24  and  O_25
REMARK   13  A    between atoms: O_25  and  C_26
REMARK   14  A    between atoms: C_27  and  O_28
REMARK   15  A    between atoms: O_28  and  C_29
REMARK                            x       y       z     vdW  Elec       q    Type
REMARK                         _______ _______ _______ _____ _____    ______ ____
ROOT
ATOM      1  N   UNL     1      -1.823  13.360  22.189  0.00  0.00    +0.000 N 
ATOM      2  C   UNL     1      -2.044  12.780  20.954  0.00  0.00    +0.000 A 
ATOM      3  N   UNL     1      -0.989  12.409  20.219  0.00  0.00    +0.000 NA
ATOM      4  C   UNL     1      -1.187  11.932  18.978  0.00  0.00    +0.000 A 
ATOM      5  N   UNL     1      -0.059  11.540  18.212  0.00  0.00    +0.000 N 
ATOM      6  C   UNL     1      -2.474  11.823  18.440  0.00  0.00    +0.000 A 
ATOM      7  C   UNL     1      -2.792  11.349  17.150  0.00  0.00    +0.000 A 
ATOM      8  C   UNL     1      -4.114  11.226  16.656  0.00  0.00    +0.000 A 
ATOM      9  C   UNL     1      -5.151  11.599  17.511  0.00  0.00    +0.000 A 
ATOM     10  C   UNL     1      -4.805  12.069  18.805  0.00  0.00    +0.000 A 
ATOM     11  C   UNL     1      -3.506  12.186  19.285  0.00  0.00    +0.000 A 
ATOM     12  N   UNL     1      -3.301  12.639  20.523  0.00  0.00    +0.000 NA
ATOM     13  H   UNL     1       0.079  12.202  17.450  0.00  0.00    +0.000 HD
ENDROOT
BRANCH   1  15
ATOM     14  C   UNL     1      -3.329  12.266  23.827  0.00  0.00    +0.000 C 
ATOM     15  C   UNL     1      -2.934  13.549  23.109  0.00  0.00    +0.000 C 
ENDBRANCH   1  15
BRANCH   1  16
ATOM     16  C   UNL     1      -0.471  13.748  22.567  0.00  0.00    +0.000 C 
ATOM     17  C   UNL     1      -0.422  15.192  23.051  0.00  0.00    +0.000 C 
ENDBRANCH   1  16
BRANCH   8  18
ATOM     18  O   UNL     1      -4.005  10.756  15.391  0.00  0.00    +0.000 OA
ATOM     19  C   UNL     1      -2.934  10.056  14.818  0.00  0.00    +0.000 C 
ENDBRANCH   8  18
BRANCH   9  20
ATOM     20  O   UNL     1      -6.507  11.640  17.420  0.00  0.00    +0.000 OA
ATOM     21  C   UNL     1      -7.371  11.962  18.476  0.00  0.00    +0.000 C 
ENDBRANCH   9  20
BRANCH   5  22
ATOM     22  C   UNL     1       1.144  11.374  19.041  0.00  0.00    +0.000 C 
BRANCH  22  23
ATOM     23  C   UNL     1       2.291  12.353  18.686  0.00  0.00    +0.000 C 
BRANCH  23  24
ATOM     24  C   UNL     1       2.180  13.718  19.370  0.00  0.00    +0.000 A 
ATOM     25  C   UNL     1       1.414  14.732  18.779  0.00  0.00    +0.000 A 
ATOM     26  C   UNL     1       1.335  16.006  19.358  0.00  0.00    +0.000 A 
ATOM     27  C   UNL     1       2.028  16.281  20.538  0.00  0.00    +0.000 A 
ATOM     28  C   UNL     1       2.795  15.301  21.167  0.00  0.00    +0.000 A 
ATOM     29  C   UNL     1       2.851  14.025  20.569  0.00  0.00    +0.000 A 
BRANCH  27  30
ATOM     30  O   UNL     1       1.964  17.532  21.087  0.00  0.00    +0.000 OA
ATOM     31  H   UNL     1       1.396  17.500  21.877  0.00  0.00    +0.000 HD
ENDBRANCH  27  30
BRANCH  28  32
ATOM     32  C   UNL     1       3.594  15.494  22.440  0.00  0.00    +0.000 C 
BRANCH  32  33
ATOM     33  O   UNL     1       4.177  14.335  23.014  0.00  0.00    +0.000 OA
ATOM     34  H   UNL     1       5.141  14.493  23.049  0.00  0.00    +0.000 HD
ENDBRANCH  32  33
ENDBRANCH  28  32
ENDBRANCH  23  24
BRANCH  23  35
ATOM     35  O   UNL     1       2.305  12.546  17.263  0.00  0.00    +0.000 OA
ATOM     36  H   UNL     1       3.080  12.068  16.921  0.00  0.00    +0.000 HD
ENDBRANCH  23  35
ENDBRANCH  22  23
ENDBRANCH   5  22
TORSDOF 11
ENDMDL
MODEL 9
REMARK VINA RESULT:      -6.5      2.382      8.316
REMARK  Name = 
REMARK  15 active torsions:
REMARK  status: ('A' for Active; 'I' for Inactive)
REMARK    1  A    between atoms: C_1  and  C_2
REMARK    2  A    between atoms: C_2  and  N_3
REMARK    3  A    between atoms: N_3  and  C_4
REMARK    4  A    between atoms: C_4  and  C_5
REMARK    5  A    between atoms: N_9  and  C_10
REMARK    6  A    between atoms: C_10  and  C_11
REMARK    7  A    between atoms: C_11  and  O_12
REMARK    8  A    between atoms: C_11  and  C_13
REMARK    9  A    between atoms: C_16  and  O_17
REMARK   10  A    between atoms: C_18  and  C_19
REMARK   11  A    between atoms: C_19  and  O_20
REMARK   12  A    between atoms: C_24  and  O_25
REMARK   13  A    between atoms: O_25  and  C_26
REMARK   14  A    between atoms: C_27  and  O_28
REMARK   15  A    between atoms: O_28  and  C_29
REMARK                            x       y       z     vdW  Elec       q    Type
REMARK                         _______ _______ _______ _____ _____    ______ ____
ROOT
ATOM      1  N   UNL     1       7.417   6.112  18.317  0.00  0.00    +0.000 N 
ATOM      2  C   UNL     1       6.875   5.451  17.232  0.00  0.00    +0.000 A 
ATOM      3  N   UNL     1       5.934   4.524  17.447  0.00  0.00    +0.000 NA
ATOM      4  C   UNL     1       5.467   3.808  16.410  0.00  0.00    +0.000 A 
ATOM      5  N   UNL     1       4.468   2.830  16.653  0.00  0.00    +0.000 N 
ATOM      6  C   UNL     1       5.952   4.009  15.112  0.00  0.00    +0.000 A 
ATOM      7  C   UNL     1       5.542   3.307  13.960  0.00  0.00    +0.000 A 
ATOM      8  C   UNL     1       6.039   3.566  12.659  0.00  0.00    +0.000 A 
ATOM      9  C   UNL     1       6.987   4.579  12.527  0.00  0.00    +0.000 A 
ATOM     10  C   UNL     1       7.381   5.273  13.702  0.00  0.00    +0.000 A 
ATOM     11  C   UNL     1       6.888   5.017  14.976  0.00  0.00    +0.000 A 
ATOM     12  N   UNL     1       7.331   5.737  16.009  0.00  0.00    +0.000 NA
ATOM     13  H   UNL     1       4.867   1.901  16.534  0.00  0.00    +0.000 HD
ENDROOT
BRANCH   1  15
ATOM     14  C   UNL     1       7.457   8.511  17.691  0.00  0.00    +0.000 C 
ATOM     15  C   UNL     1       8.254   7.283  18.108  0.00  0.00    +0.000 C 
ENDBRANCH   1  15
BRANCH   1  16
ATOM     16  C   UNL     1       7.118   5.645  19.664  0.00  0.00    +0.000 C 
ATOM     17  C   UNL     1       8.392   5.330  20.440  0.00  0.00    +0.000 C 
ENDBRANCH   1  16
BRANCH   8  18
ATOM     18  O   UNL     1       5.420   2.687  11.834  0.00  0.00    +0.000 OA
ATOM     19  C   UNL     1       4.195   2.839  11.171  0.00  0.00    +0.000 C 
ENDBRANCH   8  18
BRANCH   9  20
ATOM     20  O   UNL     1       7.692   5.112  11.493  0.00  0.00    +0.000 OA
ATOM     21  C   UNL     1       8.132   6.441  11.425  0.00  0.00    +0.000 C 
ENDBRANCH   9  20
BRANCH   5  22
ATOM     22  C   UNL     1       3.827   3.007  17.965  0.00  0.00    +0.000 C 
BRANCH  22  23
ATOM     23  C   UNL     1       2.417   3.645  17.892  0.00  0.00    +0.000 C 
BRANCH  23  24
ATOM     24  C   UNL     1       2.250   4.890  18.768  0.00  0.00    +0.000 A 
ATOM     25  C   UNL     1       2.008   4.746  20.141  0.00  0.00    +0.000 A 
ATOM     26  C   UNL     1       1.803   5.867  20.958  0.00  0.00    +0.000 A 
ATOM     27  C   UNL     1       1.833   7.148  20.405  0.00  0.00    +0.000 A 
ATOM     28  C   UNL     1       2.078   7.340  19.046  0.00  0.00    +0.000 A 
ATOM     29  C   UNL     1       2.291   6.197  18.249  0.00  0.00    +0.000 A 
BRANCH  27  30
ATOM     30  O   UNL     1       1.610   8.236  21.204  0.00  0.00    +0.000 OA
ATOM     31  H   UNL     1       1.271   8.965  20.655  0.00  0.00    +0.000 HD
ENDBRANCH  27  30
BRANCH  28  32
ATOM     32  C   UNL     1       2.121   8.682  18.343  0.00  0.00    +0.000 C 
BRANCH  32  33
ATOM     33  O   UNL     1       2.804   8.734  17.100  0.00  0.00    +0.000 OA
ATOM     34  H   UNL     1       2.303   8.169  16.481  0.00  0.00    +0.000 HD
ENDBRANCH  32  33
ENDBRANCH  28  32
ENDBRANCH  23  24
BRANCH  23  35
ATOM     35  O   UNL     1       1.448   2.664  18.290  0.00  0.00    +0.000 OA
ATOM     36  H   UNL     1       1.909   2.031  18.868  0.00  0.00    +0.000 HD
ENDBRANCH  23  35
ENDBRANCH  22  23
ENDBRANCH   5  22
TORSDOF 11
ENDMDL
