MODEL 1
REMARK VINA RESULT:      -5.3      0.000      0.000
REMARK  Name = 
REMARK  19 active torsions:
REMARK  status: ('A' for Active; 'I' for Inactive)
REMARK    1  A    between atoms: C_1  and  C_2
REMARK    2  A    between atoms: C_2  and  C_3
REMARK    3  A    between atoms: C_3  and  C_4
REMARK    4  A    between atoms: C_4  and  C_5
REMARK    5  A    between atoms: C_5  and  C_6
REMARK    6  A    between atoms: C_6  and  C_7
REMARK    7  A    between atoms: C_7  and  C_8
REMARK    8  A    between atoms: C_8  and  C_9
REMARK    9  A    between atoms: C_9  and  C_10
REMARK   10  A    between atoms: C_10  and  C_11
REMARK   11  A    between atoms: C_11  and  C_12
REMARK   12  A    between atoms: C_12  and  C_13
REMARK   13  A    between atoms: C_13  and  C_14
REMARK   14  A    between atoms: C_14  and  C_15
REMARK   15  A    between atoms: C_15  and  C_16
REMARK   16  A    between atoms: C_16  and  O_17
REMARK   17  A    between atoms: C_16  and  C_18
REMARK   18  A    between atoms: C_18  and  C_19
REMARK   19  A    between atoms: C_18  and  N_20
REMARK                            x       y       z     vdW  Elec       q    Type
REMARK                         _______ _______ _______ _____ _____    ______ ____
ROOT
ATOM      1  C   UNL     1       4.304   2.689  19.159  0.00  0.00    +0.000 C 
ENDROOT
BRANCH   1   2
ATOM      2  C   UNL     1       3.838   2.480  17.728  0.00  0.00    +0.000 C 
BRANCH   2   3
ATOM      3  C   UNL     1       2.315   2.555  17.671  0.00  0.00    +0.000 C 
BRANCH   3   4
ATOM      4  C   UNL     1       1.710   2.176  19.012  0.00  0.00    +0.000 C 
BRANCH   4   5
ATOM      5  C   UNL     1       0.747   3.252  19.493  0.00  0.00    +0.000 C 
BRANCH   5   6
ATOM      6  C   UNL     1       1.056   3.617  20.939  0.00  0.00    +0.000 C 
BRANCH   6   7
ATOM      7  C   UNL     1       2.121   4.701  21.012  0.00  0.00    +0.000 C 
BRANCH   7   8
ATOM      8  C   UNL     1       1.608   5.988  20.375  0.00  0.00    +0.000 C 
BRANCH   8   9
ATOM      9  C   UNL     1       2.718   6.690  19.600  0.00  0.00    +0.000 C 
BRANCH   9  10
ATOM     10  C   UNL     1       2.256   7.035  18.188  0.00  0.00    +0.000 C 
BRANCH  10  12
ATOM     11  C   UNL     1       1.111   9.265  18.047  0.00  0.00    +0.000 C 
ATOM     12  C   UNL     1       2.428   8.522  17.905  0.00  0.00    +0.000 C 
ENDBRANCH  10  12
ENDBRANCH   9  10
ENDBRANCH   8   9
ENDBRANCH   7   8
ENDBRANCH   6   7
ENDBRANCH   5   6
ENDBRANCH   4   5
ENDBRANCH   3   4
ENDBRANCH   2   3
ENDBRANCH   1   2
BRANCH   1  13
ATOM     13  C   UNL     1       5.262   3.872  19.282  0.00  0.00    +0.000 C 
BRANCH  13  14
ATOM     14  C   UNL     1       4.942   4.985  18.279  0.00  0.00    +0.000 C 
BRANCH  14  15
ATOM     15  C   UNL     1       6.147   5.891  17.998  0.00  0.00    +0.000 C 
BRANCH  15  16
ATOM     16  C   UNL     1       6.357   6.139  16.503  0.00  0.00    +0.000 C 
BRANCH  16  17
ATOM     17  C   UNL     1       7.074   4.960  15.790  0.00  0.00    +0.000 C 
ATOM     18  C   UNL     1       6.124   4.009  15.066  0.00  0.00    +0.000 C 
BRANCH  17  19
ATOM     19  N   UNL     1       7.860   4.194  16.774  0.00  0.00    +0.000 NA
ATOM     20  H   UNL     1       7.234   3.873  17.516  0.00  0.00    +0.000 HD
ATOM     21  H   UNL     1       8.480   4.858  17.246  0.00  0.00    +0.000 HD
ENDBRANCH  17  19
ENDBRANCH  16  17
BRANCH  16  22
ATOM     22  O   UNL     1       5.088   6.360  15.874  0.00  0.00    +0.000 OA
ATOM     23  H   UNL     1       5.209   7.070  15.220  0.00  0.00    +0.000 HD
ENDBRANCH  16  22
ENDBRANCH  15  16
ENDBRANCH  14  15
ENDBRANCH  13  14
ENDBRANCH   1  13
TORSDOF 17
ENDMDL
MODEL 2
REMARK VINA RESULT:      -5.3      2.441      4.547
REMARK  Name = 
REMARK  19 active torsions:
REMARK  status: ('A' for Active; 'I' for Inactive)
REMARK    1  A    between atoms: C_1  and  C_2
REMARK    2  A    between atoms: C_2  and  C_3
REMARK    3  A    between atoms: C_3  and  C_4
REMARK    4  A    between atoms: C_4  and  C_5
REMARK    5  A    between atoms: C_5  and  C_6
REMARK    6  A    between atoms: C_6  and  C_7
REMARK    7  A    between atoms: C_7  and  C_8
REMARK    8  A    between atoms: C_8  and  C_9
REMARK    9  A    between atoms: C_9  and  C_10
REMARK   10  A    between atoms: C_10  and  C_11
REMARK   11  A    between atoms: C_11  and  C_12
REMARK   12  A    between atoms: C_12  and  C_13
REMARK   13  A    between atoms: C_13  and  C_14
REMARK   14  A    between atoms: C_14  and  C_15
REMARK   15  A    between atoms: C_15  and  C_16
REMARK   16  A    between atoms: C_16  and  O_17
REMARK   17  A    between atoms: C_16  and  C_18
REMARK   18  A    between atoms: C_18  and  C_19
REMARK   19  A    between atoms: C_18  and  N_20
REMARK                            x       y       z     vdW  Elec       q    Type
REMARK                         _______ _______ _______ _____ _____    ______ ____
ROOT
ATOM      1  C   UNL     1       6.714   5.226  16.987  0.00  0.00    +0.000 C 
ENDROOT
BRANCH   1   2
ATOM      2  C   UNL     1       5.609   4.339  17.538  0.00  0.00    +0.000 C 
BRANCH   2   3
ATOM      3  C   UNL     1       5.501   4.535  19.048  0.00  0.00    +0.000 C 
BRANCH   3   4
ATOM      4  C   UNL     1       4.459   5.590  19.376  0.00  0.00    +0.000 C 
BRANCH   4   5
ATOM      5  C   UNL     1       3.502   5.785  18.209  0.00  0.00    +0.000 C 
BRANCH   5   6
ATOM      6  C   UNL     1       2.064   5.616  18.682  0.00  0.00    +0.000 C 
BRANCH   6   7
ATOM      7  C   UNL     1       2.004   5.438  20.193  0.00  0.00    +0.000 C 
BRANCH   7   8
ATOM      8  C   UNL     1       0.991   4.359  20.555  0.00  0.00    +0.000 C 
BRANCH   8   9
ATOM      9  C   UNL     1       1.685   3.025  20.806  0.00  0.00    +0.000 C 
BRANCH   9  10
ATOM     10  C   UNL     1       1.520   2.096  19.607  0.00  0.00    +0.000 C 
BRANCH  10  12
ATOM     11  C   UNL     1       2.667   2.245  17.380  0.00  0.00    +0.000 C 
ATOM     12  C   UNL     1       2.836   1.934  18.856  0.00  0.00    +0.000 C 
ENDBRANCH  10  12
ENDBRANCH   9  10
ENDBRANCH   8   9
ENDBRANCH   7   8
ENDBRANCH   6   7
ENDBRANCH   5   6
ENDBRANCH   4   5
ENDBRANCH   3   4
ENDBRANCH   2   3
ENDBRANCH   1   2
BRANCH   1  13
ATOM     13  C   UNL     1       7.270   4.694  15.668  0.00  0.00    +0.000 C 
BRANCH  13  14
ATOM     14  C   UNL     1       6.397   5.082  14.472  0.00  0.00    +0.000 C 
BRANCH  14  15
ATOM     15  C   UNL     1       5.804   3.862  13.754  0.00  0.00    +0.000 C 
BRANCH  15  16
ATOM     16  C   UNL     1       6.630   3.440  12.537  0.00  0.00    +0.000 C 
BRANCH  16  17
ATOM     17  C   UNL     1       5.774   2.771  11.427  0.00  0.00    +0.000 C 
ATOM     18  C   UNL     1       4.297   3.155  11.474  0.00  0.00    +0.000 C 
BRANCH  17  19
ATOM     19  N   UNL     1       5.892   1.306  11.532  0.00  0.00    +0.000 NA
ATOM     20  H   UNL     1       5.290   0.876  10.826  0.00  0.00    +0.000 HD
ATOM     21  H   UNL     1       5.464   1.032  12.420  0.00  0.00    +0.000 HD
ENDBRANCH  17  19
ENDBRANCH  16  17
BRANCH  16  22
ATOM     22  O   UNL     1       7.288   4.589  11.988  0.00  0.00    +0.000 OA
ATOM     23  H   UNL     1       7.175   4.554  11.022  0.00  0.00    +0.000 HD
ENDBRANCH  16  22
ENDBRANCH  15  16
ENDBRANCH  14  15
ENDBRANCH  13  14
ENDBRANCH   1  13
TORSDOF 17
ENDMDL
MODEL 3
REMARK VINA RESULT:      -5.3      2.402      3.123
REMARK  Name = 
REMARK  19 active torsions:
REMARK  status: ('A' for Active; 'I' for Inactive)
REMARK    1  A    between atoms: C_1  and  C_2
REMARK    2  A    between atoms: C_2  and  C_3
REMARK    3  A    between atoms: C_3  and  C_4
REMARK    4  A    between atoms: C_4  and  C_5
REMARK    5  A    between atoms: C_5  and  C_6
REMARK    6  A    between atoms: C_6  and  C_7
REMARK    7  A    between atoms: C_7  and  C_8
REMARK    8  A    between atoms: C_8  and  C_9
REMARK    9  A    between atoms: C_9  and  C_10
REMARK   10  A    between atoms: C_10  and  C_11
REMARK   11  A    between atoms: C_11  and  C_12
REMARK   12  A    between atoms: C_12  and  C_13
REMARK   13  A    between atoms: C_13  and  C_14
REMARK   14  A    between atoms: C_14  and  C_15
REMARK   15  A    between atoms: C_15  and  C_16
REMARK   16  A    between atoms: C_16  and  O_17
REMARK   17  A    between atoms: C_16  and  C_18
REMARK   18  A    between atoms: C_18  and  C_19
REMARK   19  A    between atoms: C_18  and  N_20
REMARK                            x       y       z     vdW  Elec       q    Type
REMARK                         _______ _______ _______ _____ _____    ______ ____
ROOT
ATOM      1  C   UNL     1       4.400   4.302  16.393  0.00  0.00    +0.000 C 
ENDROOT
BRANCH   1   2
ATOM      2  C   UNL     1       4.433   3.339  17.569  0.00  0.00    +0.000 C 
BRANCH   2   3
ATOM      3  C   UNL     1       3.075   2.657  17.708  0.00  0.00    +0.000 C 
BRANCH   3   4
ATOM      4  C   UNL     1       1.954   3.682  17.651  0.00  0.00    +0.000 C 
BRANCH   4   5
ATOM      5  C   UNL     1       1.064   3.577  18.882  0.00  0.00    +0.000 C 
BRANCH   5   6
ATOM      6  C   UNL     1       1.917   3.330  20.119  0.00  0.00    +0.000 C 
BRANCH   6   7
ATOM      7  C   UNL     1       2.615   4.607  20.564  0.00  0.00    +0.000 C 
BRANCH   7   8
ATOM      8  C   UNL     1       1.600   5.732  20.729  0.00  0.00    +0.000 C 
BRANCH   8   9
ATOM      9  C   UNL     1       2.043   6.978  19.971  0.00  0.00    +0.000 C 
BRANCH   9  10
ATOM     10  C   UNL     1       3.199   6.654  19.029  0.00  0.00    +0.000 C 
BRANCH  10  12
ATOM     11  C   UNL     1       1.993   8.509  17.845  0.00  0.00    +0.000 C 
ATOM     12  C   UNL     1       3.180   7.563  17.807  0.00  0.00    +0.000 C 
ENDBRANCH  10  12
ENDBRANCH   9  10
ENDBRANCH   8   9
ENDBRANCH   7   8
ENDBRANCH   6   7
ENDBRANCH   5   6
ENDBRANCH   4   5
ENDBRANCH   3   4
ENDBRANCH   2   3
ENDBRANCH   1   2
BRANCH   1  13
ATOM     13  C   UNL     1       5.761   4.949  16.145  0.00  0.00    +0.000 C 
BRANCH  13  14
ATOM     14  C   UNL     1       6.558   4.223  15.057  0.00  0.00    +0.000 C 
BRANCH  14  15
ATOM     15  C   UNL     1       5.753   4.027  13.766  0.00  0.00    +0.000 C 
BRANCH  15  16
ATOM     16  C   UNL     1       6.618   3.527  12.607  0.00  0.00    +0.000 C 
BRANCH  16  17
ATOM     17  C   UNL     1       5.790   2.842  11.486  0.00  0.00    +0.000 C 
ATOM     18  C   UNL     1       4.308   3.209  11.503  0.00  0.00    +0.000 C 
BRANCH  17  19
ATOM     19  N   UNL     1       5.922   1.378  11.602  0.00  0.00    +0.000 NA
ATOM     20  H   UNL     1       5.579   0.948  10.740  0.00  0.00    +0.000 HD
ATOM     21  H   UNL     1       5.252   1.071  12.313  0.00  0.00    +0.000 HD
ENDBRANCH  17  19
ENDBRANCH  16  17
BRANCH  16  22
ATOM     22  O   UNL     1       7.342   4.629  12.044  0.00  0.00    +0.000 OA
ATOM     23  H   UNL     1       7.153   4.641  11.089  0.00  0.00    +0.000 HD
ENDBRANCH  16  22
ENDBRANCH  15  16
ENDBRANCH  14  15
ENDBRANCH  13  14
ENDBRANCH   1  13
TORSDOF 17
ENDMDL
MODEL 4
REMARK VINA RESULT:      -5.3      2.229      4.400
REMARK  Name = 
REMARK  19 active torsions:
REMARK  status: ('A' for Active; 'I' for Inactive)
REMARK    1  A    between atoms: C_1  and  C_2
REMARK    2  A    between atoms: C_2  and  C_3
REMARK    3  A    between atoms: C_3  and  C_4
REMARK    4  A    between atoms: C_4  and  C_5
REMARK    5  A    between atoms: C_5  and  C_6
REMARK    6  A    between atoms: C_6  and  C_7
REMARK    7  A    between atoms: C_7  and  C_8
REMARK    8  A    between atoms: C_8  and  C_9
REMARK    9  A    between atoms: C_9  and  C_10
REMARK   10  A    between atoms: C_10  and  C_11
REMARK   11  A    between atoms: C_11  and  C_12
REMARK   12  A    between atoms: C_12  and  C_13
REMARK   13  A    between atoms: C_13  and  C_14
REMARK   14  A    between atoms: C_14  and  C_15
REMARK   15  A    between atoms: C_15  and  C_16
REMARK   16  A    between atoms: C_16  and  O_17
REMARK   17  A    between atoms: C_16  and  C_18
REMARK   18  A    between atoms: C_18  and  C_19
REMARK   19  A    between atoms: C_18  and  N_20
REMARK                            x       y       z     vdW  Elec       q    Type
REMARK                         _______ _______ _______ _____ _____    ______ ____
ROOT
ATOM      1  C   UNL     1       7.200   6.688  17.416  0.00  0.00    +0.000 C 
ENDROOT
BRANCH   1   2
ATOM      2  C   UNL     1       7.196   5.285  18.003  0.00  0.00    +0.000 C 
BRANCH   2   3
ATOM      3  C   UNL     1       6.488   5.300  19.355  0.00  0.00    +0.000 C 
BRANCH   3   4
ATOM      4  C   UNL     1       5.148   4.589  19.264  0.00  0.00    +0.000 C 
BRANCH   4   5
ATOM      5  C   UNL     1       4.008   5.542  19.597  0.00  0.00    +0.000 C 
BRANCH   5   6
ATOM      6  C   UNL     1       2.966   5.512  18.487  0.00  0.00    +0.000 C 
BRANCH   6   7
ATOM      7  C   UNL     1       2.814   4.108  17.919  0.00  0.00    +0.000 C 
BRANCH   7   8
ATOM      8  C   UNL     1       1.348   3.690  17.935  0.00  0.00    +0.000 C 
BRANCH   8   9
ATOM      9  C   UNL     1       1.066   2.746  19.099  0.00  0.00    +0.000 C 
BRANCH   9  10
ATOM     10  C   UNL     1       0.821   3.531  20.384  0.00  0.00    +0.000 C 
BRANCH  10  12
ATOM     11  C   UNL     1       2.908   2.507  21.329  0.00  0.00    +0.000 C 
ATOM     12  C   UNL     1       1.446   2.827  21.582  0.00  0.00    +0.000 C 
ENDBRANCH  10  12
ENDBRANCH   9  10
ENDBRANCH   8   9
ENDBRANCH   7   8
ENDBRANCH   6   7
ENDBRANCH   5   6
ENDBRANCH   4   5
ENDBRANCH   3   4
ENDBRANCH   2   3
ENDBRANCH   1   2
BRANCH   1  13
ATOM     13  C   UNL     1       5.873   7.031  16.744  0.00  0.00    +0.000 C 
BRANCH  13  14
ATOM     14  C   UNL     1       5.276   5.836  15.993  0.00  0.00    +0.000 C 
BRANCH  14  15
ATOM     15  C   UNL     1       6.014   5.534  14.683  0.00  0.00    +0.000 C 
BRANCH  15  16
ATOM     16  C   UNL     1       5.883   4.069  14.262  0.00  0.00    +0.000 C 
BRANCH  16  17
ATOM     17  C   UNL     1       6.833   3.687  13.094  0.00  0.00    +0.000 C 
ATOM     18  C   UNL     1       7.402   4.890  12.345  0.00  0.00    +0.000 C 
BRANCH  17  19
ATOM     19  N   UNL     1       6.117   2.823  12.139  0.00  0.00    +0.000 NA
ATOM     20  H   UNL     1       6.741   2.068  11.846  0.00  0.00    +0.000 HD
ATOM     21  H   UNL     1       5.976   3.370  11.286  0.00  0.00    +0.000 HD
ENDBRANCH  17  19
ENDBRANCH  16  17
BRANCH  16  22
ATOM     22  O   UNL     1       6.163   3.224  15.385  0.00  0.00    +0.000 OA
ATOM     23  H   UNL     1       6.223   2.311  15.053  0.00  0.00    +0.000 HD
ENDBRANCH  16  22
ENDBRANCH  15  16
ENDBRANCH  14  15
ENDBRANCH  13  14
ENDBRANCH   1  13
TORSDOF 17
ENDMDL
MODEL 5
REMARK VINA RESULT:      -5.2      1.432      3.219
REMARK  Name = 
REMARK  19 active torsions:
REMARK  status: ('A' for Active; 'I' for Inactive)
REMARK    1  A    between atoms: C_1  and  C_2
REMARK    2  A    between atoms: C_2  and  C_3
REMARK    3  A    between atoms: C_3  and  C_4
REMARK    4  A    between atoms: C_4  and  C_5
REMARK    5  A    between atoms: C_5  and  C_6
REMARK    6  A    between atoms: C_6  and  C_7
REMARK    7  A    between atoms: C_7  and  C_8
REMARK    8  A    between atoms: C_8  and  C_9
REMARK    9  A    between atoms: C_9  and  C_10
REMARK   10  A    between atoms: C_10  and  C_11
REMARK   11  A    between atoms: C_11  and  C_12
REMARK   12  A    between atoms: C_12  and  C_13
REMARK   13  A    between atoms: C_13  and  C_14
REMARK   14  A    between atoms: C_14  and  C_15
REMARK   15  A    between atoms: C_15  and  C_16
REMARK   16  A    between atoms: C_16  and  O_17
REMARK   17  A    between atoms: C_16  and  C_18
REMARK   18  A    between atoms: C_18  and  C_19
REMARK   19  A    between atoms: C_18  and  N_20
REMARK                            x       y       z     vdW  Elec       q    Type
REMARK                         _______ _______ _______ _____ _____    ______ ____
ROOT
ATOM      1  C   UNL     1       7.232   5.630  19.473  0.00  0.00    +0.000 C 
ENDROOT
BRANCH   1   2
ATOM      2  C   UNL     1       5.720   5.494  19.396  0.00  0.00    +0.000 C 
BRANCH   2   3
ATOM      3  C   UNL     1       5.357   4.089  18.922  0.00  0.00    +0.000 C 
BRANCH   3   4
ATOM      4  C   UNL     1       4.207   4.140  17.930  0.00  0.00    +0.000 C 
BRANCH   4   5
ATOM      5  C   UNL     1       3.462   2.813  17.901  0.00  0.00    +0.000 C 
BRANCH   5   6
ATOM      6  C   UNL     1       1.969   3.059  17.729  0.00  0.00    +0.000 C 
BRANCH   6   7
ATOM      7  C   UNL     1       1.162   2.240  18.726  0.00  0.00    +0.000 C 
BRANCH   7   8
ATOM      8  C   UNL     1       0.724   3.117  19.894  0.00  0.00    +0.000 C 
BRANCH   8   9
ATOM      9  C   UNL     1       1.745   3.063  21.025  0.00  0.00    +0.000 C 
BRANCH   9  10
ATOM     10  C   UNL     1       2.445   4.409  21.184  0.00  0.00    +0.000 C 
BRANCH  10  12
ATOM     11  C   UNL     1       2.325   6.561  19.900  0.00  0.00    +0.000 C 
ATOM     12  C   UNL     1       1.548   5.551  20.724  0.00  0.00    +0.000 C 
ENDBRANCH  10  12
ENDBRANCH   9  10
ENDBRANCH   8   9
ENDBRANCH   7   8
ENDBRANCH   6   7
ENDBRANCH   5   6
ENDBRANCH   4   5
ENDBRANCH   3   4
ENDBRANCH   2   3
ENDBRANCH   1   2
BRANCH   1  13
ATOM     13  C   UNL     1       7.771   6.619  18.443  0.00  0.00    +0.000 C 
BRANCH  13  14
ATOM     14  C   UNL     1       6.996   6.562  17.123  0.00  0.00    +0.000 C 
BRANCH  14  15
ATOM     15  C   UNL     1       7.444   5.402  16.225  0.00  0.00    +0.000 C 
BRANCH  15  16
ATOM     16  C   UNL     1       6.721   5.394  14.876  0.00  0.00    +0.000 C 
BRANCH  16  17
ATOM     17  C   UNL     1       6.470   3.961  14.333  0.00  0.00    +0.000 C 
ATOM     18  C   UNL     1       5.373   3.888  13.273  0.00  0.00    +0.000 C 
BRANCH  17  19
ATOM     19  N   UNL     1       6.116   3.067  15.450  0.00  0.00    +0.000 NA
ATOM     20  H   UNL     1       5.368   2.440  15.146  0.00  0.00    +0.000 HD
ATOM     21  H   UNL     1       5.673   3.645  16.170  0.00  0.00    +0.000 HD
ENDBRANCH  17  19
ENDBRANCH  16  17
BRANCH  16  22
ATOM     22  O   UNL     1       5.463   6.069  15.006  0.00  0.00    +0.000 OA
ATOM     23  H   UNL     1       4.771   5.452  14.710  0.00  0.00    +0.000 HD
ENDBRANCH  16  22
ENDBRANCH  15  16
ENDBRANCH  14  15
ENDBRANCH  13  14
ENDBRANCH   1  13
TORSDOF 17
ENDMDL
MODEL 6
REMARK VINA RESULT:      -5.2      2.758      6.633
REMARK  Name = 
REMARK  19 active torsions:
REMARK  status: ('A' for Active; 'I' for Inactive)
REMARK    1  A    between atoms: C_1  and  C_2
REMARK    2  A    between atoms: C_2  and  C_3
REMARK    3  A    between atoms: C_3  and  C_4
REMARK    4  A    between atoms: C_4  and  C_5
REMARK    5  A    between atoms: C_5  and  C_6
REMARK    6  A    between atoms: C_6  and  C_7
REMARK    7  A    between atoms: C_7  and  C_8
REMARK    8  A    between atoms: C_8  and  C_9
REMARK    9  A    between atoms: C_9  and  C_10
REMARK   10  A    between atoms: C_10  and  C_11
REMARK   11  A    between atoms: C_11  and  C_12
REMARK   12  A    between atoms: C_12  and  C_13
REMARK   13  A    between atoms: C_13  and  C_14
REMARK   14  A    between atoms: C_14  and  C_15
REMARK   15  A    between atoms: C_15  and  C_16
REMARK   16  A    between atoms: C_16  and  O_17
REMARK   17  A    between atoms: C_16  and  C_18
REMARK   18  A    between atoms: C_18  and  C_19
REMARK   19  A    between atoms: C_18  and  N_20
REMARK                            x       y       z     vdW  Elec       q    Type
REMARK                         _______ _______ _______ _____ _____    ______ ____
ROOT
ATOM      1  C   UNL     1       4.794   4.125  18.453  0.00  0.00    +0.000 C 
ENDROOT
BRANCH   1   2
ATOM      2  C   UNL     1       5.802   4.924  19.262  0.00  0.00    +0.000 C 
BRANCH   2   3
ATOM      3  C   UNL     1       7.139   4.955  18.525  0.00  0.00    +0.000 C 
BRANCH   3   4
ATOM      4  C   UNL     1       7.623   6.385  18.356  0.00  0.00    +0.000 C 
BRANCH   4   5
ATOM      5  C   UNL     1       7.174   6.952  17.017  0.00  0.00    +0.000 C 
BRANCH   5   6
ATOM      6  C   UNL     1       6.925   5.819  16.031  0.00  0.00    +0.000 C 
BRANCH   6   7
ATOM      7  C   UNL     1       5.563   5.962  15.367  0.00  0.00    +0.000 C 
BRANCH   7   8
ATOM      8  C   UNL     1       5.154   4.646  14.714  0.00  0.00    +0.000 C 
BRANCH   8   9
ATOM      9  C   UNL     1       6.381   3.854  14.277  0.00  0.00    +0.000 C 
BRANCH   9  10
ATOM     10  C   UNL     1       6.538   3.895  12.760  0.00  0.00    +0.000 C 
BRANCH  10  12
ATOM     11  C   UNL     1       5.750   1.906  11.447  0.00  0.00    +0.000 C 
ATOM     12  C   UNL     1       5.352   3.232  12.070  0.00  0.00    +0.000 C 
ENDBRANCH  10  12
ENDBRANCH   9  10
ENDBRANCH   8   9
ENDBRANCH   7   8
ENDBRANCH   6   7
ENDBRANCH   5   6
ENDBRANCH   4   5
ENDBRANCH   3   4
ENDBRANCH   2   3
ENDBRANCH   1   2
BRANCH   1  13
ATOM     13  C   UNL     1       3.524   4.924  18.172  0.00  0.00    +0.000 C 
BRANCH  13  14
ATOM     14  C   UNL     1       3.093   5.771  19.373  0.00  0.00    +0.000 C 
BRANCH  14  15
ATOM     15  C   UNL     1       2.388   4.945  20.456  0.00  0.00    +0.000 C 
BRANCH  15  16
ATOM     16  C   UNL     1       1.457   3.882  19.868  0.00  0.00    +0.000 C 
BRANCH  16  17
ATOM     17  C   UNL     1       1.867   2.436  20.258  0.00  0.00    +0.000 C 
ATOM     18  C   UNL     1       3.061   2.369  21.208  0.00  0.00    +0.000 C 
BRANCH  17  19
ATOM     19  N   UNL     1       2.181   1.669  19.040  0.00  0.00    +0.000 NA
ATOM     20  H   UNL     1       1.341   1.170  18.739  0.00  0.00    +0.000 HD
ATOM     21  H   UNL     1       2.825   0.921  19.312  0.00  0.00    +0.000 HD
ENDBRANCH  17  19
ENDBRANCH  16  17
BRANCH  16  22
ATOM     22  O   UNL     1       0.118   4.123  20.318  0.00  0.00    +0.000 OA
ATOM     23  H   UNL     1       0.169   4.386  21.253  0.00  0.00    +0.000 HD
ENDBRANCH  16  22
ENDBRANCH  15  16
ENDBRANCH  14  15
ENDBRANCH  13  14
ENDBRANCH   1  13
TORSDOF 17
ENDMDL
MODEL 7
REMARK VINA RESULT:      -5.2      4.295      6.036
REMARK  Name = 
REMARK  19 active torsions:
REMARK  status: ('A' for Active; 'I' for Inactive)
REMARK    1  A    between atoms: C_1  and  C_2
REMARK    2  A    between atoms: C_2  and  C_3
REMARK    3  A    between atoms: C_3  and  C_4
REMARK    4  A    between atoms: C_4  and  C_5
REMARK    5  A    between atoms: C_5  and  C_6
REMARK    6  A    between atoms: C_6  and  C_7
REMARK    7  A    between atoms: C_7  and  C_8
REMARK    8  A    between atoms: C_8  and  C_9
REMARK    9  A    between atoms: C_9  and  C_10
REMARK   10  A    between atoms: C_10  and  C_11
REMARK   11  A    between atoms: C_11  and  C_12
REMARK   12  A    between atoms: C_12  and  C_13
REMARK   13  A    between atoms: C_13  and  C_14
REMARK   14  A    between atoms: C_14  and  C_15
REMARK   15  A    between atoms: C_15  and  C_16
REMARK   16  A    between atoms: C_16  and  O_17
REMARK   17  A    between atoms: C_16  and  C_18
REMARK   18  A    between atoms: C_18  and  C_19
REMARK   19  A    between atoms: C_18  and  N_20
REMARK                            x       y       z     vdW  Elec       q    Type
REMARK                         _______ _______ _______ _____ _____    ______ ____
ROOT
ATOM      1  C   UNL     1       7.699   6.594  17.761  0.00  0.00    +0.000 C 
ENDROOT
BRANCH   1   2
ATOM      2  C   UNL     1       7.433   6.072  19.164  0.00  0.00    +0.000 C 
BRANCH   2   3
ATOM      3  C   UNL     1       6.087   5.352  19.194  0.00  0.00    +0.000 C 
BRANCH   3   4
ATOM      4  C   UNL     1       5.667   4.944  17.793  0.00  0.00    +0.000 C 
BRANCH   4   5
ATOM      5  C   UNL     1       4.161   5.083  17.619  0.00  0.00    +0.000 C 
BRANCH   5   6
ATOM      6  C   UNL     1       3.603   3.850  16.921  0.00  0.00    +0.000 C 
BRANCH   6   7
ATOM      7  C   UNL     1       3.695   2.625  17.821  0.00  0.00    +0.000 C 
BRANCH   7   8
ATOM      8  C   UNL     1       2.298   2.121  18.167  0.00  0.00    +0.000 C 
BRANCH   8   9
ATOM      9  C   UNL     1       2.040   2.225  19.666  0.00  0.00    +0.000 C 
BRANCH   9  10
ATOM     10  C   UNL     1       0.765   3.015  19.941  0.00  0.00    +0.000 C 
BRANCH  10  12
ATOM     11  C   UNL     1       2.392   4.561  21.063  0.00  0.00    +0.000 C 
ATOM     12  C   UNL     1       1.083   4.461  20.300  0.00  0.00    +0.000 C 
ENDBRANCH  10  12
ENDBRANCH   9  10
ENDBRANCH   8   9
ENDBRANCH   7   8
ENDBRANCH   6   7
ENDBRANCH   5   6
ENDBRANCH   4   5
ENDBRANCH   3   4
ENDBRANCH   2   3
ENDBRANCH   1   2
BRANCH   1  13
ATOM     13  C   UNL     1       7.627   8.118  17.695  0.00  0.00    +0.000 C 
BRANCH  13  14
ATOM     14  C   UNL     1       8.666   8.787  18.598  0.00  0.00    +0.000 C 
BRANCH  14  15
ATOM     15  C   UNL     1       8.859  10.274  18.276  0.00  0.00    +0.000 C 
BRANCH  15  16
ATOM     16  C   UNL     1       9.741  10.987  19.303  0.00  0.00    +0.000 C 
BRANCH  16  17
ATOM     17  C   UNL     1      11.200  11.191  18.809  0.00  0.00    +0.000 C 
ATOM     18  C   UNL     1      12.052  12.047  19.745  0.00  0.00    +0.000 C 
BRANCH  17  19
ATOM     19  N   UNL     1      11.184  11.813  17.473  0.00  0.00    +0.000 NA
ATOM     20  H   UNL     1      11.616  11.170  16.806  0.00  0.00    +0.000 HD
ATOM     21  H   UNL     1      11.831  12.606  17.503  0.00  0.00    +0.000 HD
ENDBRANCH  17  19
ENDBRANCH  16  17
BRANCH  16  22
ATOM     22  O   UNL     1       9.172  12.265  19.614  0.00  0.00    +0.000 OA
ATOM     23  H   UNL     1       9.907  12.862  19.840  0.00  0.00    +0.000 HD
ENDBRANCH  16  22
ENDBRANCH  15  16
ENDBRANCH  14  15
ENDBRANCH  13  14
ENDBRANCH   1  13
TORSDOF 17
ENDMDL
MODEL 8
REMARK VINA RESULT:      -5.2      2.583      4.647
REMARK  Name = 
REMARK  19 active torsions:
REMARK  status: ('A' for Active; 'I' for Inactive)
REMARK    1  A    between atoms: C_1  and  C_2
REMARK    2  A    between atoms: C_2  and  C_3
REMARK    3  A    between atoms: C_3  and  C_4
REMARK    4  A    between atoms: C_4  and  C_5
REMARK    5  A    between atoms: C_5  and  C_6
REMARK    6  A    between atoms: C_6  and  C_7
REMARK    7  A    between atoms: C_7  and  C_8
REMARK    8  A    between atoms: C_8  and  C_9
REMARK    9  A    between atoms: C_9  and  C_10
REMARK   10  A    between atoms: C_10  and  C_11
REMARK   11  A    between atoms: C_11  and  C_12
REMARK   12  A    between atoms: C_12  and  C_13
REMARK   13  A    between atoms: C_13  and  C_14
REMARK   14  A    between atoms: C_14  and  C_15
REMARK   15  A    between atoms: C_15  and  C_16
REMARK   16  A    between atoms: C_16  and  O_17
REMARK   17  A    between atoms: C_16  and  C_18
REMARK   18  A    between atoms: C_18  and  C_19
REMARK   19  A    between atoms: C_18  and  N_20
REMARK                            x       y       z     vdW  Elec       q    Type
REMARK                         _______ _______ _______ _____ _____    ______ ____
ROOT
ATOM      1  C   UNL     1       5.036   4.679  16.326  0.00  0.00    +0.000 C 
ENDROOT
BRANCH   1   2
ATOM      2  C   UNL     1       5.679   4.746  17.702  0.00  0.00    +0.000 C 
BRANCH   2   3
ATOM      3  C   UNL     1       4.744   5.468  18.668  0.00  0.00    +0.000 C 
BRANCH   3   4
ATOM      4  C   UNL     1       3.745   6.322  17.907  0.00  0.00    +0.000 C 
BRANCH   4   5
ATOM      5  C   UNL     1       2.336   6.111  18.444  0.00  0.00    +0.000 C 
BRANCH   5   6
ATOM      6  C   UNL     1       1.794   4.771  17.966  0.00  0.00    +0.000 C 
BRANCH   6   7
ATOM      7  C   UNL     1       1.162   3.997  19.115  0.00  0.00    +0.000 C 
BRANCH   7   8
ATOM      8  C   UNL     1       1.408   4.720  20.434  0.00  0.00    +0.000 C 
BRANCH   8   9
ATOM      9  C   UNL     1       2.265   3.871  21.366  0.00  0.00    +0.000 C 
BRANCH   9  10
ATOM     10  C   UNL     1       2.479   2.478  20.783  0.00  0.00    +0.000 C 
BRANCH  10  12
ATOM     11  C   UNL     1       3.862   1.695  18.840  0.00  0.00    +0.000 C 
ATOM     12  C   UNL     1       3.887   2.332  20.218  0.00  0.00    +0.000 C 
ENDBRANCH  10  12
ENDBRANCH   9  10
ENDBRANCH   8   9
ENDBRANCH   7   8
ENDBRANCH   6   7
ENDBRANCH   5   6
ENDBRANCH   4   5
ENDBRANCH   3   4
ENDBRANCH   2   3
ENDBRANCH   1   2
BRANCH   1  13
ATOM     13  C   UNL     1       5.723   5.608  15.327  0.00  0.00    +0.000 C 
BRANCH  13  14
ATOM     14  C   UNL     1       6.714   4.863  14.429  0.00  0.00    +0.000 C 
BRANCH  14  15
ATOM     15  C   UNL     1       6.074   3.671  13.704  0.00  0.00    +0.000 C 
BRANCH  15  16
ATOM     16  C   UNL     1       6.766   3.353  12.377  0.00  0.00    +0.000 C 
BRANCH  16  17
ATOM     17  C   UNL     1       5.817   2.685  11.345  0.00  0.00    +0.000 C 
ATOM     18  C   UNL     1       4.366   3.150  11.452  0.00  0.00    +0.000 C 
BRANCH  17  19
ATOM     19  N   UNL     1       5.864   1.222  11.509  0.00  0.00    +0.000 NA
ATOM     20  H   UNL     1       6.073   0.795  10.604  0.00  0.00    +0.000 HD
ATOM     21  H   UNL     1       4.910   0.911  11.712  0.00  0.00    +0.000 HD
ENDBRANCH  17  19
ENDBRANCH  16  17
BRANCH  16  22
ATOM     22  O   UNL     1       7.291   4.561  11.813  0.00  0.00    +0.000 OA
ATOM     23  H   UNL     1       7.571   4.358  10.903  0.00  0.00    +0.000 HD
ENDBRANCH  16  22
ENDBRANCH  15  16
ENDBRANCH  14  15
ENDBRANCH  13  14
ENDBRANCH   1  13
TORSDOF 17
ENDMDL
MODEL 9
REMARK VINA RESULT:      -5.1      2.385      4.631
REMARK  Name = 
REMARK  19 active torsions:
REMARK  status: ('A' for Active; 'I' for Inactive)
REMARK    1  A    between atoms: C_1  and  C_2
REMARK    2  A    between atoms: C_2  and  C_3
REMARK    3  A    between atoms: C_3  and  C_4
REMARK    4  A    between atoms: C_4  and  C_5
REMARK    5  A    between atoms: C_5  and  C_6
REMARK    6  A    between atoms: C_6  and  C_7
REMARK    7  A    between atoms: C_7  and  C_8
REMARK    8  A    between atoms: C_8  and  C_9
REMARK    9  A    between atoms: C_9  and  C_10
REMARK   10  A    between atoms: C_10  and  C_11
REMARK   11  A    between atoms: C_11  and  C_12
REMARK   12  A    between atoms: C_12  and  C_13
REMARK   13  A    between atoms: C_13  and  C_14
REMARK   14  A    between atoms: C_14  and  C_15
REMARK   15  A    between atoms: C_15  and  C_16
REMARK   16  A    between atoms: C_16  and  O_17
REMARK   17  A    between atoms: C_16  and  C_18
REMARK   18  A    between atoms: C_18  and  C_19
REMARK   19  A    between atoms: C_18  and  N_20
REMARK                            x       y       z     vdW  Elec       q    Type
REMARK                         _______ _______ _______ _____ _____    ______ ____
ROOT
ATOM      1  C   UNL     1       5.735   6.091  16.281  0.00  0.00    +0.000 C 
ENDROOT
BRANCH   1   2
ATOM      2  C   UNL     1       4.923   6.058  17.566  0.00  0.00    +0.000 C 
BRANCH   2   3
ATOM      3  C   UNL     1       3.916   7.205  17.562  0.00  0.00    +0.000 C 
BRANCH   3   4
ATOM      4  C   UNL     1       2.538   6.709  17.965  0.00  0.00    +0.000 C 
BRANCH   4   5
ATOM      5  C   UNL     1       2.619   5.303  18.543  0.00  0.00    +0.000 C 
BRANCH   5   6
ATOM      6  C   UNL     1       1.665   4.380  17.798  0.00  0.00    +0.000 C 
BRANCH   6   7
ATOM      7  C   UNL     1       0.896   3.492  18.766  0.00  0.00    +0.000 C 
BRANCH   7   8
ATOM      8  C   UNL     1       0.880   4.120  20.155  0.00  0.00    +0.000 C 
BRANCH   8   9
ATOM      9  C   UNL     1       1.255   3.093  21.219  0.00  0.00    +0.000 C 
BRANCH   9  10
ATOM     10  C   UNL     1       2.222   2.058  20.652  0.00  0.00    +0.000 C 
BRANCH  10  12
ATOM     11  C   UNL     1       4.468   2.388  19.584  0.00  0.00    +0.000 C 
ATOM     12  C   UNL     1       3.668   2.484  20.871  0.00  0.00    +0.000 C 
ENDBRANCH  10  12
ENDBRANCH   9  10
ENDBRANCH   8   9
ENDBRANCH   7   8
ENDBRANCH   6   7
ENDBRANCH   5   6
ENDBRANCH   4   5
ENDBRANCH   3   4
ENDBRANCH   2   3
ENDBRANCH   1   2
BRANCH   1  13
ATOM     13  C   UNL     1       6.615   4.852  16.129  0.00  0.00    +0.000 C 
BRANCH  13  14
ATOM     14  C   UNL     1       5.923   3.742  15.334  0.00  0.00    +0.000 C 
BRANCH  14  15
ATOM     15  C   UNL     1       5.551   4.178  13.911  0.00  0.00    +0.000 C 
BRANCH  15  16
ATOM     16  C   UNL     1       6.523   3.637  12.861  0.00  0.00    +0.000 C 
BRANCH  16  17
ATOM     17  C   UNL     1       5.803   3.007  11.638  0.00  0.00    +0.000 C 
ATOM     18  C   UNL     1       4.315   3.341  11.560  0.00  0.00    +0.000 C 
BRANCH  17  19
ATOM     19  N   UNL     1       5.964   1.542  11.673  0.00  0.00    +0.000 NA
ATOM     20  H   UNL     1       5.309   1.155  12.356  0.00  0.00    +0.000 HD
ATOM     21  H   UNL     1       6.884   1.350  12.079  0.00  0.00    +0.000 HD
ENDBRANCH  17  19
ENDBRANCH  16  17
BRANCH  16  22
ATOM     22  O   UNL     1       7.371   4.699  12.405  0.00  0.00    +0.000 OA
ATOM     23  H   UNL     1       7.678   5.183  13.192  0.00  0.00    +0.000 HD
ENDBRANCH  16  22
ENDBRANCH  15  16
ENDBRANCH  14  15
ENDBRANCH  13  14
ENDBRANCH   1  13
TORSDOF 17
ENDMDL
