MODEL 1
REMARK VINA RESULT:      -8.3      0.000      0.000
REMARK  Name = 
REMARK  10 active torsions:
REMARK  status: ('A' for Active; 'I' for Inactive)
REMARK    1  A    between atoms: C_1  and  C_2
REMARK    2  A    between atoms: C_6  and  C_7
REMARK    3  A    between atoms: C_7  and  C_9
REMARK    4  A    between atoms: C_14  and  C_15
REMARK    5  A    between atoms: C_15  and  C_16
REMARK    6  A    between atoms: C_15  and  C_17
REMARK    7  A    between atoms: C_15  and  C_18
REMARK    8  A    between atoms: C_21  and  C_22
REMARK    9  A    between atoms: C_22  and  C_23
REMARK   10  A    between atoms: C_23  and  O_25
REMARK                            x       y       z     vdW  Elec       q    Type
REMARK                         _______ _______ _______ _____ _____    ______ ____
ROOT
ATOM      1  C   UNL     1       1.300   9.268  19.531  0.00  0.00    +0.000 A 
ATOM      2  N   UNL     1       2.164   8.724  18.608  0.00  0.00    +0.000 N 
ATOM      3  C   UNL     1       2.363   7.390  18.832  0.00  0.00    +0.000 A 
ATOM      4  C   UNL     1       3.076   6.452  18.084  0.00  0.00    +0.000 A 
ATOM      5  C   UNL     1       3.097   5.131  18.546  0.00  0.00    +0.000 A 
ATOM      6  C   UNL     1       2.437   4.740  19.719  0.00  0.00    +0.000 A 
ATOM      7  C   UNL     1       1.724   5.730  20.439  0.00  0.00    +0.000 A 
ATOM      8  C   UNL     1       1.688   7.073  20.003  0.00  0.00    +0.000 A 
ATOM      9  C   UNL     1       1.066   8.280  20.489  0.00  0.00    +0.000 A 
ATOM     10  H   UNL     1       2.528   9.239  17.815  0.00  0.00    +0.000 HD
ENDROOT
BRANCH   6  11
ATOM     11  C   UNL     1       2.488   3.298  20.257  0.00  0.00    +0.000 C 
ATOM     12  C   UNL     1       3.871   2.621  20.102  0.00  0.00    +0.000 C 
ATOM     13  C   UNL     1       2.154   3.312  21.765  0.00  0.00    +0.000 C 
ATOM     14  C   UNL     1       1.463   2.411  19.519  0.00  0.00    +0.000 C 
ENDBRANCH   6  11
BRANCH   1  15
ATOM     15  C   UNL     1       0.759  10.618  19.448  0.00  0.00    +0.000 C 
ATOM     16  O   UNL     1       1.418  11.596  19.816  0.00  0.00    +0.000 OA
BRANCH  15  22
ATOM     17  C   UNL     1      -2.802   9.777  16.030  0.00  0.00    +0.000 C 
ATOM     18  C   UNL     1      -2.332  10.443  17.288  0.00  0.00    +0.000 A 
ATOM     19  C   UNL     1      -3.155  11.331  17.985  0.00  0.00    +0.000 A 
ATOM     20  C   UNL     1      -2.669  11.930  19.133  0.00  0.00    +0.000 A 
ATOM     21  N   UNL     1      -1.433  11.712  19.621  0.00  0.00    +0.000 NA
ATOM     22  C   UNL     1      -0.636  10.848  18.934  0.00  0.00    +0.000 A 
ATOM     23  C   UNL     1      -1.049  10.194  17.777  0.00  0.00    +0.000 A 
ENDBRANCH  15  22
ENDBRANCH   1  15
BRANCH   9  24
ATOM     24  C   UNL     1       0.231   8.393  21.733  0.00  0.00    +0.000 C 
BRANCH  24  25
ATOM     25  C   UNL     1       0.774   9.366  22.763  0.00  0.00    +0.000 C 
ATOM     26  O   UNL     1       0.080  10.152  23.394  0.00  0.00    +0.000 OA
BRANCH  25  27
ATOM     27  O   UNL     1       2.119   9.333  22.913  0.00  0.00    +0.000 OA
ATOM     28  H   UNL     1       2.404   8.846  23.727  0.00  0.00    +0.000 HD
ENDBRANCH  25  27
ENDBRANCH  24  25
ENDBRANCH   9  24
TORSDOF 6
ENDMDL
MODEL 2
REMARK VINA RESULT:      -8.2      3.520      7.540
REMARK  Name = 
REMARK  10 active torsions:
REMARK  status: ('A' for Active; 'I' for Inactive)
REMARK    1  A    between atoms: C_1  and  C_2
REMARK    2  A    between atoms: C_6  and  C_7
REMARK    3  A    between atoms: C_7  and  C_9
REMARK    4  A    between atoms: C_14  and  C_15
REMARK    5  A    between atoms: C_15  and  C_16
REMARK    6  A    between atoms: C_15  and  C_17
REMARK    7  A    between atoms: C_15  and  C_18
REMARK    8  A    between atoms: C_21  and  C_22
REMARK    9  A    between atoms: C_22  and  C_23
REMARK   10  A    between atoms: C_23  and  O_25
REMARK                            x       y       z     vdW  Elec       q    Type
REMARK                         _______ _______ _______ _____ _____    ______ ____
ROOT
ATOM      1  C   UNL     1       3.162   5.290  18.754  0.00  0.00    +0.000 A 
ATOM      2  N   UNL     1       2.905   6.294  17.849  0.00  0.00    +0.000 N 
ATOM      3  C   UNL     1       2.275   7.354  18.439  0.00  0.00    +0.000 A 
ATOM      4  C   UNL     1       1.928   8.598  17.911  0.00  0.00    +0.000 A 
ATOM      5  C   UNL     1       1.298   9.514  18.761  0.00  0.00    +0.000 A 
ATOM      6  C   UNL     1       1.010   9.212  20.100  0.00  0.00    +0.000 A 
ATOM      7  C   UNL     1       1.387   7.937  20.588  0.00  0.00    +0.000 A 
ATOM      8  C   UNL     1       2.019   6.988  19.754  0.00  0.00    +0.000 A 
ATOM      9  C   UNL     1       2.520   5.649  19.941  0.00  0.00    +0.000 A 
ATOM     10  H   UNL     1       3.228   6.273  16.888  0.00  0.00    +0.000 HD
ENDROOT
BRANCH   6  11
ATOM     11  C   UNL     1       0.280  10.197  21.032  0.00  0.00    +0.000 C 
ATOM     12  C   UNL     1       0.018   9.640  22.451  0.00  0.00    +0.000 C 
ATOM     13  C   UNL     1       1.141  11.469  21.193  0.00  0.00    +0.000 C 
ATOM     14  C   UNL     1      -1.091  10.585  20.437  0.00  0.00    +0.000 C 
ENDBRANCH   6  11
BRANCH   1  15
ATOM     15  C   UNL     1       3.975   4.116  18.464  0.00  0.00    +0.000 C 
ATOM     16  O   UNL     1       3.681   3.006  18.920  0.00  0.00    +0.000 OA
BRANCH  15  22
ATOM     17  C   UNL     1       6.221   3.924  13.994  0.00  0.00    +0.000 C 
ATOM     18  C   UNL     1       6.281   4.139  15.476  0.00  0.00    +0.000 A 
ATOM     19  C   UNL     1       7.493   4.403  16.117  0.00  0.00    +0.000 A 
ATOM     20  C   UNL     1       7.497   4.578  17.491  0.00  0.00    +0.000 A 
ATOM     21  N   UNL     1       6.391   4.500  18.255  0.00  0.00    +0.000 NA
ATOM     22  C   UNL     1       5.215   4.238  17.622  0.00  0.00    +0.000 A 
ATOM     23  C   UNL     1       5.119   4.059  16.245  0.00  0.00    +0.000 A 
ENDBRANCH  15  22
ENDBRANCH   1  15
BRANCH   9  24
ATOM     24  C   UNL     1       2.455   4.861  21.218  0.00  0.00    +0.000 C 
BRANCH  24  25
ATOM     25  C   UNL     1       1.484   3.695  21.183  0.00  0.00    +0.000 C 
ATOM     26  O   UNL     1       1.581   2.704  21.894  0.00  0.00    +0.000 OA
BRANCH  25  27
ATOM     27  O   UNL     1       0.500   3.810  20.261  0.00  0.00    +0.000 OA
ATOM     28  H   UNL     1       0.261   4.751  20.067  0.00  0.00    +0.000 HD
ENDBRANCH  25  27
ENDBRANCH  24  25
ENDBRANCH   9  24
TORSDOF 6
ENDMDL
MODEL 3
REMARK VINA RESULT:      -7.9      0.639      1.582
REMARK  Name = 
REMARK  10 active torsions:
REMARK  status: ('A' for Active; 'I' for Inactive)
REMARK    1  A    between atoms: C_1  and  C_2
REMARK    2  A    between atoms: C_6  and  C_7
REMARK    3  A    between atoms: C_7  and  C_9
REMARK    4  A    between atoms: C_14  and  C_15
REMARK    5  A    between atoms: C_15  and  C_16
REMARK    6  A    between atoms: C_15  and  C_17
REMARK    7  A    between atoms: C_15  and  C_18
REMARK    8  A    between atoms: C_21  and  C_22
REMARK    9  A    between atoms: C_22  and  C_23
REMARK   10  A    between atoms: C_23  and  O_25
REMARK                            x       y       z     vdW  Elec       q    Type
REMARK                         _______ _______ _______ _____ _____    ______ ____
ROOT
ATOM      1  C   UNL     1       1.288   9.206  19.517  0.00  0.00    +0.000 A 
ATOM      2  N   UNL     1       2.145   8.667  18.584  0.00  0.00    +0.000 N 
ATOM      3  C   UNL     1       2.369   7.339  18.815  0.00  0.00    +0.000 A 
ATOM      4  C   UNL     1       3.084   6.406  18.063  0.00  0.00    +0.000 A 
ATOM      5  C   UNL     1       3.134   5.089  18.536  0.00  0.00    +0.000 A 
ATOM      6  C   UNL     1       2.499   4.698  19.723  0.00  0.00    +0.000 A 
ATOM      7  C   UNL     1       1.783   5.683  20.446  0.00  0.00    +0.000 A 
ATOM      8  C   UNL     1       1.718   7.022  20.000  0.00  0.00    +0.000 A 
ATOM      9  C   UNL     1       1.086   8.222  20.487  0.00  0.00    +0.000 A 
ATOM     10  H   UNL     1       2.488   9.181  17.780  0.00  0.00    +0.000 HD
ENDROOT
BRANCH   6  11
ATOM     11  C   UNL     1       2.583   3.261  20.272  0.00  0.00    +0.000 C 
ATOM     12  C   UNL     1       2.219   3.142  21.771  0.00  0.00    +0.000 C 
ATOM     13  C   UNL     1       1.596   2.367  19.491  0.00  0.00    +0.000 C 
ATOM     14  C   UNL     1       4.013   2.704  20.106  0.00  0.00    +0.000 C 
ENDBRANCH   6  11
BRANCH   1  15
ATOM     15  C   UNL     1       0.724  10.546  19.431  0.00  0.00    +0.000 C 
ATOM     16  O   UNL     1       1.344  11.529  19.851  0.00  0.00    +0.000 OA
BRANCH  15  22
ATOM     17  C   UNL     1      -3.846  12.569  19.725  0.00  0.00    +0.000 C 
ATOM     18  C   UNL     1      -2.835  11.729  19.005  0.00  0.00    +0.000 A 
ATOM     19  C   UNL     1      -3.156  11.081  17.810  0.00  0.00    +0.000 A 
ATOM     20  C   UNL     1      -2.191  10.304  17.192  0.00  0.00    +0.000 A 
ATOM     21  N   UNL     1      -0.950  10.128  17.684  0.00  0.00    +0.000 NA
ATOM     22  C   UNL     1      -0.647  10.759  18.851  0.00  0.00    +0.000 A 
ATOM     23  C   UNL     1      -1.553  11.567  19.533  0.00  0.00    +0.000 A 
ENDBRANCH  15  22
ENDBRANCH   1  15
BRANCH   9  24
ATOM     24  C   UNL     1       0.270   8.334  21.743  0.00  0.00    +0.000 C 
BRANCH  24  25
ATOM     25  C   UNL     1       0.830   9.304  22.767  0.00  0.00    +0.000 C 
ATOM     26  O   UNL     1       0.141  10.049  23.450  0.00  0.00    +0.000 OA
BRANCH  25  27
ATOM     27  O   UNL     1       2.181   9.317  22.849  0.00  0.00    +0.000 OA
ATOM     28  H   UNL     1       2.622   9.162  21.976  0.00  0.00    +0.000 HD
ENDBRANCH  25  27
ENDBRANCH  24  25
ENDBRANCH   9  24
TORSDOF 6
ENDMDL
MODEL 4
REMARK VINA RESULT:      -7.9      5.128      8.584
REMARK  Name = 
REMARK  10 active torsions:
REMARK  status: ('A' for Active; 'I' for Inactive)
REMARK    1  A    between atoms: C_1  and  C_2
REMARK    2  A    between atoms: C_6  and  C_7
REMARK    3  A    between atoms: C_7  and  C_9
REMARK    4  A    between atoms: C_14  and  C_15
REMARK    5  A    between atoms: C_15  and  C_16
REMARK    6  A    between atoms: C_15  and  C_17
REMARK    7  A    between atoms: C_15  and  C_18
REMARK    8  A    between atoms: C_21  and  C_22
REMARK    9  A    between atoms: C_22  and  C_23
REMARK   10  A    between atoms: C_23  and  O_25
REMARK                            x       y       z     vdW  Elec       q    Type
REMARK                         _______ _______ _______ _____ _____    ______ ____
ROOT
ATOM      1  C   UNL     1       5.824   5.405  16.756  0.00  0.00    +0.000 A 
ATOM      2  N   UNL     1       4.658   4.800  17.168  0.00  0.00    +0.000 N 
ATOM      3  C   UNL     1       3.721   5.720  17.547  0.00  0.00    +0.000 A 
ATOM      4  C   UNL     1       2.392   5.539  17.931  0.00  0.00    +0.000 A 
ATOM      5  C   UNL     1       1.646   6.679  18.254  0.00  0.00    +0.000 A 
ATOM      6  C   UNL     1       2.196   7.968  18.206  0.00  0.00    +0.000 A 
ATOM      7  C   UNL     1       3.549   8.097  17.806  0.00  0.00    +0.000 A 
ATOM      8  C   UNL     1       4.330   6.966  17.480  0.00  0.00    +0.000 A 
ATOM      9  C   UNL     1       5.689   6.765  17.043  0.00  0.00    +0.000 A 
ATOM     10  H   UNL     1       4.499   3.801  17.107  0.00  0.00    +0.000 HD
ENDROOT
BRANCH   6  11
ATOM     11  C   UNL     1       1.397   9.225  18.600  0.00  0.00    +0.000 C 
ATOM     12  C   UNL     1       0.030   9.346  17.886  0.00  0.00    +0.000 C 
ATOM     13  C   UNL     1       1.117   9.186  20.118  0.00  0.00    +0.000 C 
ATOM     14  C   UNL     1       2.199  10.500  18.264  0.00  0.00    +0.000 C 
ENDBRANCH   6  11
BRANCH   1  15
ATOM     15  C   UNL     1       6.935   4.700  16.131  0.00  0.00    +0.000 C 
ATOM     16  O   UNL     1       7.824   4.176  16.810  0.00  0.00    +0.000 OA
BRANCH  15  22
ATOM     17  C   UNL     1       5.523   2.654  11.785  0.00  0.00    +0.000 C 
ATOM     18  C   UNL     1       6.359   3.630  12.557  0.00  0.00    +0.000 A 
ATOM     19  C   UNL     1       7.289   4.449  11.914  0.00  0.00    +0.000 A 
ATOM     20  C   UNL     1       8.046   5.323  12.674  0.00  0.00    +0.000 A 
ATOM     21  N   UNL     1       7.944   5.427  14.013  0.00  0.00    +0.000 NA
ATOM     22  C   UNL     1       7.038   4.621  14.632  0.00  0.00    +0.000 A 
ATOM     23  C   UNL     1       6.229   3.722  13.944  0.00  0.00    +0.000 A 
ENDBRANCH  15  22
ENDBRANCH   1  15
BRANCH   9  24
ATOM     24  C   UNL     1       6.709   7.848  16.831  0.00  0.00    +0.000 C 
BRANCH  24  25
ATOM     25  C   UNL     1       7.770   7.927  17.913  0.00  0.00    +0.000 C 
ATOM     26  O   UNL     1       8.120   6.975  18.596  0.00  0.00    +0.000 OA
BRANCH  25  27
ATOM     27  O   UNL     1       8.289   9.163  18.102  0.00  0.00    +0.000 OA
ATOM     28  H   UNL     1       9.185   9.271  17.695  0.00  0.00    +0.000 HD
ENDBRANCH  25  27
ENDBRANCH  24  25
ENDBRANCH   9  24
TORSDOF 6
ENDMDL
MODEL 5
REMARK VINA RESULT:      -7.9      3.840      7.552
REMARK  Name = 
REMARK  10 active torsions:
REMARK  status: ('A' for Active; 'I' for Inactive)
REMARK    1  A    between atoms: C_1  and  C_2
REMARK    2  A    between atoms: C_6  and  C_7
REMARK    3  A    between atoms: C_7  and  C_9
REMARK    4  A    between atoms: C_14  and  C_15
REMARK    5  A    between atoms: C_15  and  C_16
REMARK    6  A    between atoms: C_15  and  C_17
REMARK    7  A    between atoms: C_15  and  C_18
REMARK    8  A    between atoms: C_21  and  C_22
REMARK    9  A    between atoms: C_22  and  C_23
REMARK   10  A    between atoms: C_23  and  O_25
REMARK                            x       y       z     vdW  Elec       q    Type
REMARK                         _______ _______ _______ _____ _____    ______ ____
ROOT
ATOM      1  C   UNL     1       3.394   5.056  18.130  0.00  0.00    +0.000 A 
ATOM      2  N   UNL     1       3.159   6.259  17.503  0.00  0.00    +0.000 N 
ATOM      3  C   UNL     1       2.542   7.148  18.337  0.00  0.00    +0.000 A 
ATOM      4  C   UNL     1       2.219   8.490  18.136  0.00  0.00    +0.000 A 
ATOM      5  C   UNL     1       1.597   9.176  19.186  0.00  0.00    +0.000 A 
ATOM      6  C   UNL     1       1.295   8.554  20.406  0.00  0.00    +0.000 A 
ATOM      7  C   UNL     1       1.648   7.191  20.561  0.00  0.00    +0.000 A 
ATOM      8  C   UNL     1       2.271   6.470  19.518  0.00  0.00    +0.000 A 
ATOM      9  C   UNL     1       2.749   5.119  19.366  0.00  0.00    +0.000 A 
ATOM     10  H   UNL     1       3.488   6.473  16.568  0.00  0.00    +0.000 HD
ENDROOT
BRANCH   6  11
ATOM     11  C   UNL     1       0.574   9.288  21.552  0.00  0.00    +0.000 C 
ATOM     12  C   UNL     1      -0.717   8.584  22.032  0.00  0.00    +0.000 C 
ATOM     13  C   UNL     1       1.523   9.378  22.767  0.00  0.00    +0.000 C 
ATOM     14  C   UNL     1       0.177  10.714  21.113  0.00  0.00    +0.000 C 
ENDBRANCH   6  11
BRANCH   1  15
ATOM     15  C   UNL     1       4.190   3.978  17.558  0.00  0.00    +0.000 C 
ATOM     16  O   UNL     1       4.022   2.804  17.906  0.00  0.00    +0.000 OA
BRANCH  15  22
ATOM     17  C   UNL     1       6.027   3.535  12.922  0.00  0.00    +0.000 C 
ATOM     18  C   UNL     1       6.134   4.054  14.324  0.00  0.00    +0.000 A 
ATOM     19  C   UNL     1       7.252   4.781  14.739  0.00  0.00    +0.000 A 
ATOM     20  C   UNL     1       7.310   5.225  16.049  0.00  0.00    +0.000 A 
ATOM     21  N   UNL     1       6.345   4.990  16.959  0.00  0.00    +0.000 NA
ATOM     22  C   UNL     1       5.261   4.277  16.546  0.00  0.00    +0.000 A 
ATOM     23  C   UNL     1       5.117   3.802  15.245  0.00  0.00    +0.000 A 
ENDBRANCH  15  22
ENDBRANCH   1  15
BRANCH   9  24
ATOM     24  C   UNL     1       2.662   4.038  20.406  0.00  0.00    +0.000 C 
BRANCH  24  25
ATOM     25  C   UNL     1       1.404   3.193  20.325  0.00  0.00    +0.000 C 
ATOM     26  O   UNL     1       0.810   2.952  19.283  0.00  0.00    +0.000 OA
BRANCH  25  27
ATOM     27  O   UNL     1       0.950   2.744  21.518  0.00  0.00    +0.000 OA
ATOM     28  H   UNL     1       0.033   2.374  21.467  0.00  0.00    +0.000 HD
ENDBRANCH  25  27
ENDBRANCH  24  25
ENDBRANCH   9  24
TORSDOF 6
ENDMDL
MODEL 6
REMARK VINA RESULT:      -7.9      5.134      8.572
REMARK  Name = 
REMARK  10 active torsions:
REMARK  status: ('A' for Active; 'I' for Inactive)
REMARK    1  A    between atoms: C_1  and  C_2
REMARK    2  A    between atoms: C_6  and  C_7
REMARK    3  A    between atoms: C_7  and  C_9
REMARK    4  A    between atoms: C_14  and  C_15
REMARK    5  A    between atoms: C_15  and  C_16
REMARK    6  A    between atoms: C_15  and  C_17
REMARK    7  A    between atoms: C_15  and  C_18
REMARK    8  A    between atoms: C_21  and  C_22
REMARK    9  A    between atoms: C_22  and  C_23
REMARK   10  A    between atoms: C_23  and  O_25
REMARK                            x       y       z     vdW  Elec       q    Type
REMARK                         _______ _______ _______ _____ _____    ______ ____
ROOT
ATOM      1  C   UNL     1       5.824   5.407  16.754  0.00  0.00    +0.000 A 
ATOM      2  N   UNL     1       4.660   4.800  17.167  0.00  0.00    +0.000 N 
ATOM      3  C   UNL     1       3.722   5.718  17.548  0.00  0.00    +0.000 A 
ATOM      4  C   UNL     1       2.393   5.535  17.933  0.00  0.00    +0.000 A 
ATOM      5  C   UNL     1       1.646   6.674  18.257  0.00  0.00    +0.000 A 
ATOM      6  C   UNL     1       2.193   7.964  18.208  0.00  0.00    +0.000 A 
ATOM      7  C   UNL     1       3.546   8.095  17.806  0.00  0.00    +0.000 A 
ATOM      8  C   UNL     1       4.328   6.965  17.479  0.00  0.00    +0.000 A 
ATOM      9  C   UNL     1       5.687   6.767  17.040  0.00  0.00    +0.000 A 
ATOM     10  H   UNL     1       4.502   3.801  17.107  0.00  0.00    +0.000 HD
ENDROOT
BRANCH   6  11
ATOM     11  C   UNL     1       1.392   9.219  18.602  0.00  0.00    +0.000 C 
ATOM     12  C   UNL     1       1.044   9.292  20.108  0.00  0.00    +0.000 C 
ATOM     13  C   UNL     1       2.226  10.474  18.265  0.00  0.00    +0.000 C 
ATOM     14  C   UNL     1       0.059   9.272  17.825  0.00  0.00    +0.000 C 
ENDBRANCH   6  11
BRANCH   1  15
ATOM     15  C   UNL     1       6.935   4.704  16.128  0.00  0.00    +0.000 C 
ATOM     16  O   UNL     1       7.827   4.184  16.806  0.00  0.00    +0.000 OA
BRANCH  15  22
ATOM     17  C   UNL     1       5.514   2.653  11.787  0.00  0.00    +0.000 C 
ATOM     18  C   UNL     1       6.352   3.630  12.556  0.00  0.00    +0.000 A 
ATOM     19  C   UNL     1       7.282   4.448  11.910  0.00  0.00    +0.000 A 
ATOM     20  C   UNL     1       8.041   5.322  12.669  0.00  0.00    +0.000 A 
ATOM     21  N   UNL     1       7.942   5.427  14.007  0.00  0.00    +0.000 NA
ATOM     22  C   UNL     1       7.036   4.623  14.629  0.00  0.00    +0.000 A 
ATOM     23  C   UNL     1       6.225   3.723  13.943  0.00  0.00    +0.000 A 
ENDBRANCH  15  22
ENDBRANCH   1  15
BRANCH   9  24
ATOM     24  C   UNL     1       6.704   7.852  16.827  0.00  0.00    +0.000 C 
BRANCH  24  25
ATOM     25  C   UNL     1       7.755   7.946  17.918  0.00  0.00    +0.000 C 
ATOM     26  O   UNL     1       8.353   8.974  18.204  0.00  0.00    +0.000 OA
BRANCH  25  27
ATOM     27  O   UNL     1       8.022   6.775  18.544  0.00  0.00    +0.000 OA
ATOM     28  H   UNL     1       7.867   6.817  19.521  0.00  0.00    +0.000 HD
ENDBRANCH  25  27
ENDBRANCH  24  25
ENDBRANCH   9  24
TORSDOF 6
ENDMDL
MODEL 7
REMARK VINA RESULT:      -7.8      1.110      1.622
REMARK  Name = 
REMARK  10 active torsions:
REMARK  status: ('A' for Active; 'I' for Inactive)
REMARK    1  A    between atoms: C_1  and  C_2
REMARK    2  A    between atoms: C_6  and  C_7
REMARK    3  A    between atoms: C_7  and  C_9
REMARK    4  A    between atoms: C_14  and  C_15
REMARK    5  A    between atoms: C_15  and  C_16
REMARK    6  A    between atoms: C_15  and  C_17
REMARK    7  A    between atoms: C_15  and  C_18
REMARK    8  A    between atoms: C_21  and  C_22
REMARK    9  A    between atoms: C_22  and  C_23
REMARK   10  A    between atoms: C_23  and  O_25
REMARK                            x       y       z     vdW  Elec       q    Type
REMARK                         _______ _______ _______ _____ _____    ______ ____
ROOT
ATOM      1  C   UNL     1       0.693  10.064  19.353  0.00  0.00    +0.000 A 
ATOM      2  N   UNL     1       1.606   9.900  18.336  0.00  0.00    +0.000 N 
ATOM      3  C   UNL     1       2.195   8.667  18.384  0.00  0.00    +0.000 A 
ATOM      4  C   UNL     1       3.089   8.066  17.497  0.00  0.00    +0.000 A 
ATOM      5  C   UNL     1       3.521   6.767  17.789  0.00  0.00    +0.000 A 
ATOM      6  C   UNL     1       3.088   6.075  18.929  0.00  0.00    +0.000 A 
ATOM      7  C   UNL     1       2.177   6.729  19.795  0.00  0.00    +0.000 A 
ATOM      8  C   UNL     1       1.727   8.042  19.532  0.00  0.00    +0.000 A 
ATOM      9  C   UNL     1       0.823   8.953  20.189  0.00  0.00    +0.000 A 
ATOM     10  H   UNL     1       1.748  10.582  17.600  0.00  0.00    +0.000 HD
ENDROOT
BRANCH   6  11
ATOM     11  C   UNL     1       3.590   4.662  19.281  0.00  0.00    +0.000 C 
ATOM     12  C   UNL     1       3.277   3.600  18.201  0.00  0.00    +0.000 C 
ATOM     13  C   UNL     1       5.125   4.701  19.450  0.00  0.00    +0.000 C 
ATOM     14  C   UNL     1       2.947   4.174  20.597  0.00  0.00    +0.000 C 
ENDBRANCH   6  11
BRANCH   1  15
ATOM     15  C   UNL     1      -0.216  11.197  19.460  0.00  0.00    +0.000 C 
ATOM     16  O   UNL     1       0.067  12.182  20.150  0.00  0.00    +0.000 OA
BRANCH  15  22
ATOM     17  C   UNL     1      -3.029   9.818  15.555  0.00  0.00    +0.000 C 
ATOM     18  C   UNL     1      -2.879  10.517  16.872  0.00  0.00    +0.000 A 
ATOM     19  C   UNL     1      -3.946  11.211  17.446  0.00  0.00    +0.000 A 
ATOM     20  C   UNL     1      -3.751  11.852  18.658  0.00  0.00    +0.000 A 
ATOM     21  N   UNL     1      -2.578  11.853  19.319  0.00  0.00    +0.000 NA
ATOM     22  C   UNL     1      -1.542  11.178  18.750  0.00  0.00    +0.000 A 
ATOM     23  C   UNL     1      -1.654  10.498  17.541  0.00  0.00    +0.000 A 
ENDBRANCH  15  22
ENDBRANCH   1  15
BRANCH   9  24
ATOM     24  C   UNL     1       0.085   8.682  21.469  0.00  0.00    +0.000 C 
BRANCH  24  25
ATOM     25  C   UNL     1       0.710   9.319  22.696  0.00  0.00    +0.000 C 
ATOM     26  O   UNL     1       1.900   9.585  22.797  0.00  0.00    +0.000 OA
BRANCH  25  27
ATOM     27  O   UNL     1      -0.154   9.544  23.714  0.00  0.00    +0.000 OA
ATOM     28  H   UNL     1      -0.315  10.507  23.877  0.00  0.00    +0.000 HD
ENDBRANCH  25  27
ENDBRANCH  24  25
ENDBRANCH   9  24
TORSDOF 6
ENDMDL
MODEL 8
REMARK VINA RESULT:      -7.8      5.538      8.450
REMARK  Name = 
REMARK  10 active torsions:
REMARK  status: ('A' for Active; 'I' for Inactive)
REMARK    1  A    between atoms: C_1  and  C_2
REMARK    2  A    between atoms: C_6  and  C_7
REMARK    3  A    between atoms: C_7  and  C_9
REMARK    4  A    between atoms: C_14  and  C_15
REMARK    5  A    between atoms: C_15  and  C_16
REMARK    6  A    between atoms: C_15  and  C_17
REMARK    7  A    between atoms: C_15  and  C_18
REMARK    8  A    between atoms: C_21  and  C_22
REMARK    9  A    between atoms: C_22  and  C_23
REMARK   10  A    between atoms: C_23  and  O_25
REMARK                            x       y       z     vdW  Elec       q    Type
REMARK                         _______ _______ _______ _____ _____    ______ ____
ROOT
ATOM      1  C   UNL     1       5.801   4.272  15.757  0.00  0.00    +0.000 A 
ATOM      2  N   UNL     1       5.403   3.014  16.149  0.00  0.00    +0.000 N 
ATOM      3  C   UNL     1       4.513   3.068  17.185  0.00  0.00    +0.000 A 
ATOM      4  C   UNL     1       3.800   2.044  17.809  0.00  0.00    +0.000 A 
ATOM      5  C   UNL     1       2.931   2.395  18.849  0.00  0.00    +0.000 A 
ATOM      6  C   UNL     1       2.769   3.722  19.270  0.00  0.00    +0.000 A 
ATOM      7  C   UNL     1       3.514   4.724  18.601  0.00  0.00    +0.000 A 
ATOM      8  C   UNL     1       4.404   4.403  17.552  0.00  0.00    +0.000 A 
ATOM      9  C   UNL     1       5.273   5.165  16.691  0.00  0.00    +0.000 A 
ATOM     10  H   UNL     1       5.676   2.167  15.663  0.00  0.00    +0.000 HD
ENDROOT
BRANCH   6  11
ATOM     11  C   UNL     1       1.847   4.113  20.440  0.00  0.00    +0.000 C 
ATOM     12  C   UNL     1       1.791   5.635  20.711  0.00  0.00    +0.000 C 
ATOM     13  C   UNL     1       0.407   3.654  20.119  0.00  0.00    +0.000 C 
ATOM     14  C   UNL     1       2.316   3.436  21.745  0.00  0.00    +0.000 C 
ENDBRANCH   6  11
BRANCH   1  15
ATOM     15  C   UNL     1       6.601   4.543  14.571  0.00  0.00    +0.000 C 
ATOM     16  O   UNL     1       7.521   5.367  14.595  0.00  0.00    +0.000 OA
BRANCH  15  22
ATOM     17  C   UNL     1       3.335   3.170  11.033  0.00  0.00    +0.000 C 
ATOM     18  C   UNL     1       4.728   3.186  11.588  0.00  0.00    +0.000 A 
ATOM     19  C   UNL     1       5.767   2.508  10.947  0.00  0.00    +0.000 A 
ATOM     20  C   UNL     1       7.032   2.542  11.509  0.00  0.00    +0.000 A 
ATOM     21  N   UNL     1       7.322   3.189  12.653  0.00  0.00    +0.000 NA
ATOM     22  C   UNL     1       6.301   3.842  13.274  0.00  0.00    +0.000 A 
ATOM     23  C   UNL     1       5.003   3.869  12.773  0.00  0.00    +0.000 A 
ENDBRANCH  15  22
ENDBRANCH   1  15
BRANCH   9  24
ATOM     24  C   UNL     1       5.463   6.655  16.738  0.00  0.00    +0.000 C 
BRANCH  24  25
ATOM     25  C   UNL     1       6.766   7.098  17.377  0.00  0.00    +0.000 C 
ATOM     26  O   UNL     1       7.444   8.031  16.970  0.00  0.00    +0.000 OA
BRANCH  25  27
ATOM     27  O   UNL     1       7.157   6.348  18.434  0.00  0.00    +0.000 OA
ATOM     28  H   UNL     1       7.960   6.710  18.888  0.00  0.00    +0.000 HD
ENDBRANCH  25  27
ENDBRANCH  24  25
ENDBRANCH   9  24
TORSDOF 6
ENDMDL
MODEL 9
REMARK VINA RESULT:      -7.8      0.815      1.412
REMARK  Name = 
REMARK  10 active torsions:
REMARK  status: ('A' for Active; 'I' for Inactive)
REMARK    1  A    between atoms: C_1  and  C_2
REMARK    2  A    between atoms: C_6  and  C_7
REMARK    3  A    between atoms: C_7  and  C_9
REMARK    4  A    between atoms: C_14  and  C_15
REMARK    5  A    between atoms: C_15  and  C_16
REMARK    6  A    between atoms: C_15  and  C_17
REMARK    7  A    between atoms: C_15  and  C_18
REMARK    8  A    between atoms: C_21  and  C_22
REMARK    9  A    between atoms: C_22  and  C_23
REMARK   10  A    between atoms: C_23  and  O_25
REMARK                            x       y       z     vdW  Elec       q    Type
REMARK                         _______ _______ _______ _____ _____    ______ ____
ROOT
ATOM      1  C   UNL     1       1.090   9.689  19.420  0.00  0.00    +0.000 A 
ATOM      2  N   UNL     1       2.010   9.456  18.423  0.00  0.00    +0.000 N 
ATOM      3  C   UNL     1       2.456   8.164  18.444  0.00  0.00    +0.000 A 
ATOM      4  C   UNL     1       3.305   7.494  17.562  0.00  0.00    +0.000 A 
ATOM      5  C   UNL     1       3.581   6.146  17.820  0.00  0.00    +0.000 A 
ATOM      6  C   UNL     1       3.040   5.472  18.924  0.00  0.00    +0.000 A 
ATOM      7  C   UNL     1       2.181   6.197  19.787  0.00  0.00    +0.000 A 
ATOM      8  C   UNL     1       1.887   7.559  19.557  0.00  0.00    +0.000 A 
ATOM      9  C   UNL     1       1.071   8.546  20.221  0.00  0.00    +0.000 A 
ATOM     10  H   UNL     1       2.249  10.140  17.715  0.00  0.00    +0.000 HD
ENDROOT
BRANCH   6  11
ATOM     11  C   UNL     1       3.371   4.001  19.240  0.00  0.00    +0.000 C 
ATOM     12  C   UNL     1       2.818   3.514  20.600  0.00  0.00    +0.000 C 
ATOM     13  C   UNL     1       2.753   3.102  18.148  0.00  0.00    +0.000 C 
ATOM     14  C   UNL     1       4.899   3.788  19.269  0.00  0.00    +0.000 C 
ENDBRANCH   6  11
BRANCH   1  15
ATOM     15  C   UNL     1       0.310  10.913  19.542  0.00  0.00    +0.000 C 
ATOM     16  O   UNL     1       0.736  11.884  20.176  0.00  0.00    +0.000 OA
BRANCH  15  22
ATOM     17  C   UNL     1      -2.867   9.749  15.851  0.00  0.00    +0.000 C 
ATOM     18  C   UNL     1      -2.567  10.450  17.141  0.00  0.00    +0.000 A 
ATOM     19  C   UNL     1      -3.525  11.252  17.766  0.00  0.00    +0.000 A 
ATOM     20  C   UNL     1      -3.192  11.890  18.948  0.00  0.00    +0.000 A 
ATOM     21  N   UNL     1      -1.984  11.790  19.535  0.00  0.00    +0.000 NA
ATOM     22  C   UNL     1      -1.055  11.010  18.917  0.00  0.00    +0.000 A 
ATOM     23  C   UNL     1      -1.308  10.325  17.732  0.00  0.00    +0.000 A 
ENDBRANCH  15  22
ENDBRANCH   1  15
BRANCH   9  24
ATOM     24  C   UNL     1       0.268   8.319  21.470  0.00  0.00    +0.000 C 
BRANCH  24  25
ATOM     25  C   UNL     1       0.675   9.196  22.640  0.00  0.00    +0.000 C 
ATOM     26  O   UNL     1       1.820   9.574  22.845  0.00  0.00    +0.000 OA
BRANCH  25  27
ATOM     27  O   UNL     1      -0.335   9.509  23.486  0.00  0.00    +0.000 OA
ATOM     28  H   UNL     1      -1.216   9.184  23.172  0.00  0.00    +0.000 HD
ENDBRANCH  25  27
ENDBRANCH  24  25
ENDBRANCH   9  24
TORSDOF 6
ENDMDL
