MODEL 1
REMARK VINA RESULT:      -8.5      0.000      0.000
REMARK  Name = 
REMARK  7 active torsions:
REMARK  status: ('A' for Active; 'I' for Inactive)
REMARK    1  A    between atoms: C_1  and  O_2
REMARK    2  A    between atoms: O_2  and  C_3
REMARK    3  A    between atoms: C_6  and  C_7
REMARK    4  A    between atoms: C_7  and  C_8
REMARK    5  A    between atoms: C_8  and  N_9
REMARK    6  A    between atoms: C_10  and  C_11
REMARK    7  A    between atoms: C_15  and  N_16
REMARK                            x       y       z     vdW  Elec       q    Type
REMARK                         _______ _______ _______ _____ _____    ______ ____
ROOT
ATOM      1  N   UNL     1       2.236   6.959  18.574  0.00  0.00    +0.000 N 
ATOM      2  C   UNL     1       1.778   7.607  19.721  0.00  0.00    +0.000 A 
ATOM      3  N   UNL     1       1.896   6.776  20.754  0.00  0.00    +0.000 NA
ATOM      4  C   UNL     1       2.116   5.571  20.176  0.00  0.00    +0.000 A 
ATOM      5  N   UNL     1       2.684   4.489  20.741  0.00  0.00    +0.000 NA
ATOM      6  C   UNL     1       2.941   3.520  19.843  0.00  0.00    +0.000 A 
ATOM      7  C   UNL     1       3.974   2.646  20.104  0.00  0.00    +0.000 A 
ATOM      8  C   UNL     1       4.300   1.632  19.206  0.00  0.00    +0.000 A 
ATOM      9  C   UNL     1       3.446   1.373  18.142  0.00  0.00    +0.000 A 
ATOM     10  C   UNL     1       2.441   2.283  17.839  0.00  0.00    +0.000 A 
ATOM     11  C   UNL     1       2.352   3.468  18.555  0.00  0.00    +0.000 A 
ATOM     12  N   UNL     1       1.872   4.583  17.957  0.00  0.00    +0.000 NA
ATOM     13  C   UNL     1       1.910   5.633  18.804  0.00  0.00    +0.000 A 
ENDROOT
BRANCH   2  14
ATOM     14  C   UNL     1       1.288   8.988  19.828  0.00  0.00    +0.000 A 
ATOM     15  C   UNL     1       1.390   9.817  18.695  0.00  0.00    +0.000 A 
ATOM     16  C   UNL     1       0.956  11.144  18.721  0.00  0.00    +0.000 A 
ATOM     17  C   UNL     1       0.400  11.663  19.885  0.00  0.00    +0.000 A 
ATOM     18  C   UNL     1       0.305  10.847  21.027  0.00  0.00    +0.000 A 
ATOM     19  C   UNL     1       0.759   9.522  21.009  0.00  0.00    +0.000 A 
BRANCH  18  20
ATOM     20  N   UNL     1      -0.293  11.392  22.254  0.00  0.00    +0.000 N 
ATOM     21  O   UNL     1      -0.308  10.668  23.258  0.00  0.00    +0.000 OA
ATOM     22  O   UNL     1      -0.727  12.547  22.205  0.00  0.00    +0.000 OA
ENDBRANCH  18  20
ENDBRANCH   2  14
BRANCH   1  23
ATOM     23  C   UNL     1       3.493   7.372  17.914  0.00  0.00    +0.000 C 
BRANCH  23  24
ATOM     24  C   UNL     1       4.724   6.442  18.105  0.00  0.00    +0.000 C 
BRANCH  24  28
ATOM     25  C   UNL     1       6.037   4.180  14.614  0.00  0.00    +0.000 A 
ATOM     26  C   UNL     1       5.649   5.514  14.492  0.00  0.00    +0.000 A 
ATOM     27  C   UNL     1       5.226   6.244  15.601  0.00  0.00    +0.000 A 
ATOM     28  C   UNL     1       5.133   5.645  16.873  0.00  0.00    +0.000 A 
ATOM     29  C   UNL     1       5.527   4.302  16.982  0.00  0.00    +0.000 A 
ATOM     30  C   UNL     1       5.965   3.569  15.861  0.00  0.00    +0.000 A 
BRANCH  25  32
ATOM     31  C   UNL     1       5.436   3.465  12.422  0.00  0.00    +0.000 C 
ATOM     32  O   UNL     1       6.420   3.580  13.443  0.00  0.00    +0.000 OA
ENDBRANCH  25  32
ENDBRANCH  24  28
ENDBRANCH  23  24
ENDBRANCH   1  23
TORSDOF 6
ENDMDL
MODEL 2
REMARK VINA RESULT:      -8.4      0.193      1.016
REMARK  Name = 
REMARK  7 active torsions:
REMARK  status: ('A' for Active; 'I' for Inactive)
REMARK    1  A    between atoms: C_1  and  O_2
REMARK    2  A    between atoms: O_2  and  C_3
REMARK    3  A    between atoms: C_6  and  C_7
REMARK    4  A    between atoms: C_7  and  C_8
REMARK    5  A    between atoms: C_8  and  N_9
REMARK    6  A    between atoms: C_10  and  C_11
REMARK    7  A    between atoms: C_15  and  N_16
REMARK                            x       y       z     vdW  Elec       q    Type
REMARK                         _______ _______ _______ _____ _____    ______ ____
ROOT
ATOM      1  N   UNL     1       2.274   6.979  18.508  0.00  0.00    +0.000 N 
ATOM      2  C   UNL     1       1.778   7.629  19.638  0.00  0.00    +0.000 A 
ATOM      3  N   UNL     1       1.859   6.799  20.675  0.00  0.00    +0.000 NA
ATOM      4  C   UNL     1       2.096   5.592  20.107  0.00  0.00    +0.000 A 
ATOM      5  N   UNL     1       2.641   4.511  20.692  0.00  0.00    +0.000 NA
ATOM      6  C   UNL     1       2.927   3.540  19.805  0.00  0.00    +0.000 A 
ATOM      7  C   UNL     1       3.948   2.664  20.102  0.00  0.00    +0.000 A 
ATOM      8  C   UNL     1       4.303   1.648  19.216  0.00  0.00    +0.000 A 
ATOM      9  C   UNL     1       3.485   1.389  18.124  0.00  0.00    +0.000 A 
ATOM     10  C   UNL     1       2.493   2.301  17.785  0.00  0.00    +0.000 A 
ATOM     11  C   UNL     1       2.383   3.487  18.496  0.00  0.00    +0.000 A 
ATOM     12  N   UNL     1       1.926   4.602  17.881  0.00  0.00    +0.000 NA
ATOM     13  C   UNL     1       1.938   5.653  18.728  0.00  0.00    +0.000 A 
ENDROOT
BRANCH   2  14
ATOM     14  C   UNL     1       1.289   9.011  19.725  0.00  0.00    +0.000 A 
ATOM     15  C   UNL     1       1.521   9.868  18.634  0.00  0.00    +0.000 A 
ATOM     16  C   UNL     1       1.096  11.198  18.647  0.00  0.00    +0.000 A 
ATOM     17  C   UNL     1       0.416  11.692  19.755  0.00  0.00    +0.000 A 
ATOM     18  C   UNL     1       0.188  10.848  20.857  0.00  0.00    +0.000 A 
ATOM     19  C   UNL     1       0.634   9.519  20.854  0.00  0.00    +0.000 A 
BRANCH  18  20
ATOM     20  N   UNL     1      -0.540  11.366  22.023  0.00  0.00    +0.000 N 
ATOM     21  O   UNL     1      -1.391  12.244  21.826  0.00  0.00    +0.000 OA
ATOM     22  O   UNL     1      -0.266  10.878  23.123  0.00  0.00    +0.000 OA
ENDBRANCH  18  20
ENDBRANCH   2  14
BRANCH   1  23
ATOM     23  C   UNL     1       3.554   7.388  17.891  0.00  0.00    +0.000 C 
BRANCH  23  24
ATOM     24  C   UNL     1       4.774   6.451  18.118  0.00  0.00    +0.000 C 
BRANCH  24  28
ATOM     25  C   UNL     1       5.953   4.210  14.565  0.00  0.00    +0.000 A 
ATOM     26  C   UNL     1       5.964   3.608  15.822  0.00  0.00    +0.000 A 
ATOM     27  C   UNL     1       5.591   4.315  16.963  0.00  0.00    +0.000 A 
ATOM     28  C   UNL     1       5.235   5.677  16.890  0.00  0.00    +0.000 A 
ATOM     29  C   UNL     1       5.228   6.272  15.618  0.00  0.00    +0.000 A 
ATOM     30  C   UNL     1       5.595   5.551  14.465  0.00  0.00    +0.000 A 
BRANCH  25  32
ATOM     31  C   UNL     1       5.564   3.426  12.349  0.00  0.00    +0.000 C 
ATOM     32  O   UNL     1       6.353   3.403  13.533  0.00  0.00    +0.000 OA
ENDBRANCH  25  32
ENDBRANCH  24  28
ENDBRANCH  23  24
ENDBRANCH   1  23
TORSDOF 6
ENDMDL
MODEL 3
REMARK VINA RESULT:      -8.3      2.592      8.212
REMARK  Name = 
REMARK  7 active torsions:
REMARK  status: ('A' for Active; 'I' for Inactive)
REMARK    1  A    between atoms: C_1  and  O_2
REMARK    2  A    between atoms: O_2  and  C_3
REMARK    3  A    between atoms: C_6  and  C_7
REMARK    4  A    between atoms: C_7  and  C_8
REMARK    5  A    between atoms: C_8  and  N_9
REMARK    6  A    between atoms: C_10  and  C_11
REMARK    7  A    between atoms: C_15  and  N_16
REMARK                            x       y       z     vdW  Elec       q    Type
REMARK                         _______ _______ _______ _____ _____    ______ ____
ROOT
ATOM      1  N   UNL     1       5.156   4.336  17.317  0.00  0.00    +0.000 N 
ATOM      2  C   UNL     1       4.881   3.967  16.001  0.00  0.00    +0.000 A 
ATOM      3  N   UNL     1       3.645   3.478  15.946  0.00  0.00    +0.000 NA
ATOM      4  C   UNL     1       3.322   3.270  17.245  0.00  0.00    +0.000 A 
ATOM      5  N   UNL     1       2.087   3.166  17.769  0.00  0.00    +0.000 NA
ATOM      6  C   UNL     1       2.102   3.164  19.115  0.00  0.00    +0.000 A 
ATOM      7  C   UNL     1       0.987   3.624  19.781  0.00  0.00    +0.000 A 
ATOM      8  C   UNL     1       0.948   3.663  21.173  0.00  0.00    +0.000 A 
ATOM      9  C   UNL     1       1.958   3.041  21.894  0.00  0.00    +0.000 A 
ATOM     10  C   UNL     1       3.111   2.631  21.236  0.00  0.00    +0.000 A 
ATOM     11  C   UNL     1       3.265   2.914  19.887  0.00  0.00    +0.000 A 
ATOM     12  N   UNL     1       4.502   3.115  19.377  0.00  0.00    +0.000 NA
ATOM     13  C   UNL     1       4.433   3.421  18.064  0.00  0.00    +0.000 A 
ENDROOT
BRANCH   2  14
ATOM     14  C   UNL     1       5.758   4.121  14.832  0.00  0.00    +0.000 A 
ATOM     15  C   UNL     1       6.666   5.196  14.821  0.00  0.00    +0.000 A 
ATOM     16  C   UNL     1       7.525   5.415  13.742  0.00  0.00    +0.000 A 
ATOM     17  C   UNL     1       7.495   4.550  12.654  0.00  0.00    +0.000 A 
ATOM     18  C   UNL     1       6.583   3.480  12.648  0.00  0.00    +0.000 A 
ATOM     19  C   UNL     1       5.706   3.271  13.721  0.00  0.00    +0.000 A 
BRANCH  18  20
ATOM     20  N   UNL     1       6.560   2.559  11.502  0.00  0.00    +0.000 N 
ATOM     21  O   UNL     1       7.644   2.248  10.992  0.00  0.00    +0.000 OA
ATOM     22  O   UNL     1       5.457   2.141  11.136  0.00  0.00    +0.000 OA
ENDBRANCH  18  20
ENDBRANCH   2  14
BRANCH   1  23
ATOM     23  C   UNL     1       5.285   5.759  17.701  0.00  0.00    +0.000 C 
BRANCH  23  24
ATOM     24  C   UNL     1       4.266   6.750  17.071  0.00  0.00    +0.000 C 
BRANCH  24  28
ATOM     25  C   UNL     1       1.386   8.445  19.876  0.00  0.00    +0.000 A 
ATOM     26  C   UNL     1       2.045   7.251  20.168  0.00  0.00    +0.000 A 
ATOM     27  C   UNL     1       2.965   6.700  19.277  0.00  0.00    +0.000 A 
ATOM     28  C   UNL     1       3.225   7.309  18.033  0.00  0.00    +0.000 A 
ATOM     29  C   UNL     1       2.555   8.510  17.752  0.00  0.00    +0.000 A 
ATOM     30  C   UNL     1       1.634   9.070  18.659  0.00  0.00    +0.000 A 
BRANCH  25  32
ATOM     31  C   UNL     1      -0.338   9.965  20.503  0.00  0.00    +0.000 C 
ATOM     32  O   UNL     1       0.502   8.866  20.834  0.00  0.00    +0.000 OA
ENDBRANCH  25  32
ENDBRANCH  24  28
ENDBRANCH  23  24
ENDBRANCH   1  23
TORSDOF 6
ENDMDL
MODEL 4
REMARK VINA RESULT:      -8.1      1.525      2.018
REMARK  Name = 
REMARK  7 active torsions:
REMARK  status: ('A' for Active; 'I' for Inactive)
REMARK    1  A    between atoms: C_1  and  O_2
REMARK    2  A    between atoms: O_2  and  C_3
REMARK    3  A    between atoms: C_6  and  C_7
REMARK    4  A    between atoms: C_7  and  C_8
REMARK    5  A    between atoms: C_8  and  N_9
REMARK    6  A    between atoms: C_10  and  C_11
REMARK    7  A    between atoms: C_15  and  N_16
REMARK                            x       y       z     vdW  Elec       q    Type
REMARK                         _______ _______ _______ _____ _____    ______ ____
ROOT
ATOM      1  N   UNL     1       2.189   6.987  18.604  0.00  0.00    +0.000 N 
ATOM      2  C   UNL     1       1.703   7.614  19.752  0.00  0.00    +0.000 A 
ATOM      3  N   UNL     1       1.805   6.768  20.774  0.00  0.00    +0.000 NA
ATOM      4  C   UNL     1       2.044   5.573  20.182  0.00  0.00    +0.000 A 
ATOM      5  N   UNL     1       2.606   4.486  20.741  0.00  0.00    +0.000 NA
ATOM      6  C   UNL     1       2.887   3.533  19.834  0.00  0.00    +0.000 A 
ATOM      7  C   UNL     1       3.920   2.661  20.102  0.00  0.00    +0.000 A 
ATOM      8  C   UNL     1       4.271   1.662  19.195  0.00  0.00    +0.000 A 
ATOM      9  C   UNL     1       3.440   1.415  18.110  0.00  0.00    +0.000 A 
ATOM     10  C   UNL     1       2.436   2.324  17.800  0.00  0.00    +0.000 A 
ATOM     11  C   UNL     1       2.326   3.497  18.533  0.00  0.00    +0.000 A 
ATOM     12  N   UNL     1       1.851   4.619  17.942  0.00  0.00    +0.000 NA
ATOM     13  C   UNL     1       1.866   5.656  18.807  0.00  0.00    +0.000 A 
ENDROOT
BRANCH   2  14
ATOM     14  C   UNL     1       1.203   8.990  19.869  0.00  0.00    +0.000 A 
ATOM     15  C   UNL     1       0.213   9.257  20.833  0.00  0.00    +0.000 A 
ATOM     16  C   UNL     1      -0.319  10.537  20.998  0.00  0.00    +0.000 A 
ATOM     17  C   UNL     1       0.142  11.581  20.203  0.00  0.00    +0.000 A 
ATOM     18  C   UNL     1       1.122  11.324  19.227  0.00  0.00    +0.000 A 
ATOM     19  C   UNL     1       1.642  10.035  19.047  0.00  0.00    +0.000 A 
BRANCH  18  20
ATOM     20  N   UNL     1       1.617  12.429  18.394  0.00  0.00    +0.000 N 
ATOM     21  O   UNL     1       0.888  13.421  18.261  0.00  0.00    +0.000 OA
ATOM     22  O   UNL     1       2.740  12.301  17.896  0.00  0.00    +0.000 OA
ENDBRANCH  18  20
ENDBRANCH   2  14
BRANCH   1  23
ATOM     23  C   UNL     1       3.457   7.417  17.977  0.00  0.00    +0.000 C 
BRANCH  23  24
ATOM     24  C   UNL     1       4.700   6.515  18.217  0.00  0.00    +0.000 C 
BRANCH  24  28
ATOM     25  C   UNL     1       5.942   4.262  14.694  0.00  0.00    +0.000 A 
ATOM     26  C   UNL     1       5.950   3.670  15.957  0.00  0.00    +0.000 A 
ATOM     27  C   UNL     1       5.557   4.382  17.088  0.00  0.00    +0.000 A 
ATOM     28  C   UNL     1       5.183   5.738  17.000  0.00  0.00    +0.000 A 
ATOM     29  C   UNL     1       5.178   6.322  15.723  0.00  0.00    +0.000 A 
ATOM     30  C   UNL     1       5.565   5.596  14.580  0.00  0.00    +0.000 A 
BRANCH  25  32
ATOM     31  C   UNL     1       5.619   3.500  12.460  0.00  0.00    +0.000 C 
ATOM     32  O   UNL     1       6.362   3.452  13.673  0.00  0.00    +0.000 OA
ENDBRANCH  25  32
ENDBRANCH  24  28
ENDBRANCH  23  24
ENDBRANCH   1  23
TORSDOF 6
ENDMDL
MODEL 5
REMARK VINA RESULT:      -8.1      4.056      9.071
REMARK  Name = 
REMARK  7 active torsions:
REMARK  status: ('A' for Active; 'I' for Inactive)
REMARK    1  A    between atoms: C_1  and  O_2
REMARK    2  A    between atoms: O_2  and  C_3
REMARK    3  A    between atoms: C_6  and  C_7
REMARK    4  A    between atoms: C_7  and  C_8
REMARK    5  A    between atoms: C_8  and  N_9
REMARK    6  A    between atoms: C_10  and  C_11
REMARK    7  A    between atoms: C_15  and  N_16
REMARK                            x       y       z     vdW  Elec       q    Type
REMARK                         _______ _______ _______ _____ _____    ______ ____
ROOT
ATOM      1  N   UNL     1       0.334  11.059  20.286  0.00  0.00    +0.000 N 
ATOM      2  C   UNL     1       0.557   9.712  20.570  0.00  0.00    +0.000 A 
ATOM      3  N   UNL     1      -0.138   9.386  21.657  0.00  0.00    +0.000 NA
ATOM      4  C   UNL     1      -0.502  10.582  22.179  0.00  0.00    +0.000 A 
ATOM      5  N   UNL     1      -1.519  10.824  23.026  0.00  0.00    +0.000 NA
ATOM      6  C   UNL     1      -1.741  12.141  23.195  0.00  0.00    +0.000 A 
ATOM      7  C   UNL     1      -3.012  12.551  23.533  0.00  0.00    +0.000 A 
ATOM      8  C   UNL     1      -3.308  13.901  23.706  0.00  0.00    +0.000 A 
ATOM      9  C   UNL     1      -2.268  14.820  23.741  0.00  0.00    +0.000 A 
ATOM     10  C   UNL     1      -0.997  14.426  23.342  0.00  0.00    +0.000 A 
ATOM     11  C   UNL     1      -0.803  13.145  22.848  0.00  0.00    +0.000 A 
ATOM     12  N   UNL     1       0.157  12.919  21.921  0.00  0.00    +0.000 NA
ATOM     13  C   UNL     1       0.155  11.624  21.538  0.00  0.00    +0.000 A 
ENDROOT
BRANCH   2  14
ATOM     14  C   UNL     1       1.371   8.764  19.798  0.00  0.00    +0.000 A 
ATOM     15  C   UNL     1       1.742   9.120  18.488  0.00  0.00    +0.000 A 
ATOM     16  C   UNL     1       2.506   8.267  17.688  0.00  0.00    +0.000 A 
ATOM     17  C   UNL     1       2.923   7.041  18.194  0.00  0.00    +0.000 A 
ATOM     18  C   UNL     1       2.548   6.669  19.498  0.00  0.00    +0.000 A 
ATOM     19  C   UNL     1       1.764   7.515  20.293  0.00  0.00    +0.000 A 
BRANCH  18  20
ATOM     20  N   UNL     1       2.999   5.378  20.036  0.00  0.00    +0.000 N 
ATOM     21  O   UNL     1       3.997   4.856  19.521  0.00  0.00    +0.000 OA
ATOM     22  O   UNL     1       2.360   4.906  20.981  0.00  0.00    +0.000 OA
ENDBRANCH  18  20
ENDBRANCH   2  14
BRANCH   1  23
ATOM     23  C   UNL     1      -0.451  11.471  19.102  0.00  0.00    +0.000 C 
BRANCH  23  24
ATOM     24  C   UNL     1      -1.977  11.179  19.136  0.00  0.00    +0.000 C 
BRANCH  24  28
ATOM     25  C   UNL     1      -3.683  10.335  15.210  0.00  0.00    +0.000 A 
ATOM     26  C   UNL     1      -4.328  11.197  16.096  0.00  0.00    +0.000 A 
ATOM     27  C   UNL     1      -3.793  11.471  17.353  0.00  0.00    +0.000 A 
ATOM     28  C   UNL     1      -2.605  10.850  17.787  0.00  0.00    +0.000 A 
ATOM     29  C   UNL     1      -1.964   9.985  16.886  0.00  0.00    +0.000 A 
ATOM     30  C   UNL     1      -2.502   9.719  15.612  0.00  0.00    +0.000 A 
BRANCH  25  32
ATOM     31  C   UNL     1      -3.532   9.721  12.912  0.00  0.00    +0.000 C 
ATOM     32  O   UNL     1      -4.324  10.147  14.015  0.00  0.00    +0.000 OA
ENDBRANCH  25  32
ENDBRANCH  24  28
ENDBRANCH  23  24
ENDBRANCH   1  23
TORSDOF 6
ENDMDL
MODEL 6
REMARK VINA RESULT:      -8.0      1.497      1.771
REMARK  Name = 
REMARK  7 active torsions:
REMARK  status: ('A' for Active; 'I' for Inactive)
REMARK    1  A    between atoms: C_1  and  O_2
REMARK    2  A    between atoms: O_2  and  C_3
REMARK    3  A    between atoms: C_6  and  C_7
REMARK    4  A    between atoms: C_7  and  C_8
REMARK    5  A    between atoms: C_8  and  N_9
REMARK    6  A    between atoms: C_10  and  C_11
REMARK    7  A    between atoms: C_15  and  N_16
REMARK                            x       y       z     vdW  Elec       q    Type
REMARK                         _______ _______ _______ _____ _____    ______ ____
ROOT
ATOM      1  N   UNL     1       2.193   6.921  18.695  0.00  0.00    +0.000 N 
ATOM      2  C   UNL     1       1.728   7.534  19.859  0.00  0.00    +0.000 A 
ATOM      3  N   UNL     1       1.838   6.671  20.866  0.00  0.00    +0.000 NA
ATOM      4  C   UNL     1       2.060   5.484  20.253  0.00  0.00    +0.000 A 
ATOM      5  N   UNL     1       2.622   4.385  20.788  0.00  0.00    +0.000 NA
ATOM      6  C   UNL     1       2.884   3.444  19.863  0.00  0.00    +0.000 A 
ATOM      7  C   UNL     1       3.914   2.561  20.104  0.00  0.00    +0.000 A 
ATOM      8  C   UNL     1       4.246   1.574  19.177  0.00  0.00    +0.000 A 
ATOM      9  C   UNL     1       3.399   1.349  18.100  0.00  0.00    +0.000 A 
ATOM     10  C   UNL     1       2.397   2.270  17.818  0.00  0.00    +0.000 A 
ATOM     11  C   UNL     1       2.305   3.432  18.569  0.00  0.00    +0.000 A 
ATOM     12  N   UNL     1       1.830   4.565  18.002  0.00  0.00    +0.000 NA
ATOM     13  C   UNL     1       1.864   5.589  18.882  0.00  0.00    +0.000 A 
ENDROOT
BRANCH   2  14
ATOM     14  C   UNL     1       1.239   8.911  20.004  0.00  0.00    +0.000 A 
ATOM     15  C   UNL     1       0.359   9.195  21.064  0.00  0.00    +0.000 A 
ATOM     16  C   UNL     1      -0.157  10.478  21.261  0.00  0.00    +0.000 A 
ATOM     17  C   UNL     1       0.212  11.507  20.402  0.00  0.00    +0.000 A 
ATOM     18  C   UNL     1       1.082  11.232  19.331  0.00  0.00    +0.000 A 
ATOM     19  C   UNL     1       1.583   9.941  19.120  0.00  0.00    +0.000 A 
BRANCH  18  20
ATOM     20  N   UNL     1       1.481  12.322  18.429  0.00  0.00    +0.000 N 
ATOM     21  O   UNL     1       2.614  12.274  17.934  0.00  0.00    +0.000 OA
ATOM     22  O   UNL     1       0.649  13.208  18.212  0.00  0.00    +0.000 OA
ENDBRANCH  18  20
ENDBRANCH   2  14
BRANCH   1  23
ATOM     23  C   UNL     1       3.456   7.352  18.057  0.00  0.00    +0.000 C 
BRANCH  23  24
ATOM     24  C   UNL     1       4.686   6.420  18.237  0.00  0.00    +0.000 C 
BRANCH  24  28
ATOM     25  C   UNL     1       6.056   4.269  14.697  0.00  0.00    +0.000 A 
ATOM     26  C   UNL     1       5.671   5.607  14.612  0.00  0.00    +0.000 A 
ATOM     27  C   UNL     1       5.230   6.302  15.737  0.00  0.00    +0.000 A 
ATOM     28  C   UNL     1       5.115   5.662  16.987  0.00  0.00    +0.000 A 
ATOM     29  C   UNL     1       5.506   4.316  17.059  0.00  0.00    +0.000 A 
ATOM     30  C   UNL     1       5.962   3.619  15.923  0.00  0.00    +0.000 A 
BRANCH  25  32
ATOM     31  C   UNL     1       5.454   3.471  12.534  0.00  0.00    +0.000 C 
ATOM     32  O   UNL     1       6.458   3.707  13.514  0.00  0.00    +0.000 OA
ENDBRANCH  25  32
ENDBRANCH  24  28
ENDBRANCH  23  24
ENDBRANCH   1  23
TORSDOF 6
ENDMDL
MODEL 7
REMARK VINA RESULT:      -8.0      2.709      7.862
REMARK  Name = 
REMARK  7 active torsions:
REMARK  status: ('A' for Active; 'I' for Inactive)
REMARK    1  A    between atoms: C_1  and  O_2
REMARK    2  A    between atoms: O_2  and  C_3
REMARK    3  A    between atoms: C_6  and  C_7
REMARK    4  A    between atoms: C_7  and  C_8
REMARK    5  A    between atoms: C_8  and  N_9
REMARK    6  A    between atoms: C_10  and  C_11
REMARK    7  A    between atoms: C_15  and  N_16
REMARK                            x       y       z     vdW  Elec       q    Type
REMARK                         _______ _______ _______ _____ _____    ______ ____
ROOT
ATOM      1  N   UNL     1       5.147   4.280  16.938  0.00  0.00    +0.000 N 
ATOM      2  C   UNL     1       4.759   3.926  15.646  0.00  0.00    +0.000 A 
ATOM      3  N   UNL     1       3.500   3.494  15.684  0.00  0.00    +0.000 NA
ATOM      4  C   UNL     1       3.265   3.299  17.003  0.00  0.00    +0.000 A 
ATOM      5  N   UNL     1       2.069   3.251  17.617  0.00  0.00    +0.000 NA
ATOM      6  C   UNL     1       2.183   3.247  18.958  0.00  0.00    +0.000 A 
ATOM      7  C   UNL     1       1.143   3.757  19.704  0.00  0.00    +0.000 A 
ATOM      8  C   UNL     1       1.208   3.795  21.096  0.00  0.00    +0.000 A 
ATOM      9  C   UNL     1       2.239   3.126  21.741  0.00  0.00    +0.000 A 
ATOM     10  C   UNL     1       3.320   2.664  21.000  0.00  0.00    +0.000 A 
ATOM     11  C   UNL     1       3.387   2.942  19.643  0.00  0.00    +0.000 A 
ATOM     12  N   UNL     1       4.591   3.087  19.043  0.00  0.00    +0.000 NA
ATOM     13  C   UNL     1       4.440   3.398  17.737  0.00  0.00    +0.000 A 
ENDROOT
BRANCH   2  14
ATOM     14  C   UNL     1       5.553   4.041  14.416  0.00  0.00    +0.000 A 
ATOM     15  C   UNL     1       5.245   3.184  13.344  0.00  0.00    +0.000 A 
ATOM     16  C   UNL     1       5.961   3.226  12.146  0.00  0.00    +0.000 A 
ATOM     17  C   UNL     1       6.997   4.141  11.996  0.00  0.00    +0.000 A 
ATOM     18  C   UNL     1       7.322   4.995  13.066  0.00  0.00    +0.000 A 
ATOM     19  C   UNL     1       6.618   4.939  14.276  0.00  0.00    +0.000 A 
BRANCH  18  20
ATOM     20  N   UNL     1       8.410   5.971  12.904  0.00  0.00    +0.000 N 
ATOM     21  O   UNL     1       9.257   6.043  13.803  0.00  0.00    +0.000 OA
ATOM     22  O   UNL     1       8.415   6.643  11.868  0.00  0.00    +0.000 OA
ENDBRANCH  18  20
ENDBRANCH   2  14
BRANCH   1  23
ATOM     23  C   UNL     1       5.369   5.694  17.309  0.00  0.00    +0.000 C 
BRANCH  23  24
ATOM     24  C   UNL     1       4.342   6.730  16.772  0.00  0.00    +0.000 C 
BRANCH  24  28
ATOM     25  C   UNL     1       1.554   8.315  19.730  0.00  0.00    +0.000 A 
ATOM     26  C   UNL     1       1.744   8.966  18.511  0.00  0.00    +0.000 A 
ATOM     27  C   UNL     1       2.634   8.468  17.561  0.00  0.00    +0.000 A 
ATOM     28  C   UNL     1       3.405   7.317  17.820  0.00  0.00    +0.000 A 
ATOM     29  C   UNL     1       3.203   6.672  19.050  0.00  0.00    +0.000 A 
ATOM     30  C   UNL     1       2.295   7.171  20.004  0.00  0.00    +0.000 A 
BRANCH  25  32
ATOM     31  C   UNL     1       1.013   8.992  21.949  0.00  0.00    +0.000 C 
ATOM     32  O   UNL     1       0.659   8.918  20.573  0.00  0.00    +0.000 OA
ENDBRANCH  25  32
ENDBRANCH  24  28
ENDBRANCH  23  24
ENDBRANCH   1  23
TORSDOF 6
ENDMDL
MODEL 8
REMARK VINA RESULT:      -7.9      3.611      9.548
REMARK  Name = 
REMARK  7 active torsions:
REMARK  status: ('A' for Active; 'I' for Inactive)
REMARK    1  A    between atoms: C_1  and  O_2
REMARK    2  A    between atoms: O_2  and  C_3
REMARK    3  A    between atoms: C_6  and  C_7
REMARK    4  A    between atoms: C_7  and  C_8
REMARK    5  A    between atoms: C_8  and  N_9
REMARK    6  A    between atoms: C_10  and  C_11
REMARK    7  A    between atoms: C_15  and  N_16
REMARK                            x       y       z     vdW  Elec       q    Type
REMARK                         _______ _______ _______ _____ _____    ______ ____
ROOT
ATOM      1  N   UNL     1       0.807  10.001  19.831  0.00  0.00    +0.000 N 
ATOM      2  C   UNL     1       1.260   8.752  20.256  0.00  0.00    +0.000 A 
ATOM      3  N   UNL     1       0.779   8.518  21.474  0.00  0.00    +0.000 NA
ATOM      4  C   UNL     1       0.324   9.728  21.880  0.00  0.00    +0.000 A 
ATOM      5  N   UNL     1      -0.587   9.974  22.839  0.00  0.00    +0.000 NA
ATOM      6  C   UNL     1      -0.969  11.264  22.861  0.00  0.00    +0.000 A 
ATOM      7  C   UNL     1      -2.226  11.565  23.340  0.00  0.00    +0.000 A 
ATOM      8  C   UNL     1      -2.686  12.879  23.373  0.00  0.00    +0.000 A 
ATOM      9  C   UNL     1      -1.795  13.912  23.115  0.00  0.00    +0.000 A 
ATOM     10  C   UNL     1      -0.550  13.618  22.574  0.00  0.00    +0.000 A 
ATOM     11  C   UNL     1      -0.244  12.309  22.234  0.00  0.00    +0.000 A 
ATOM     12  N   UNL     1       0.598  12.058  21.204  0.00  0.00    +0.000 NA
ATOM     13  C   UNL     1       0.727  10.729  21.006  0.00  0.00    +0.000 A 
ENDROOT
BRANCH   2  14
ATOM     14  C   UNL     1       2.085   7.801  19.499  0.00  0.00    +0.000 A 
ATOM     15  C   UNL     1       2.598   8.210  18.255  0.00  0.00    +0.000 A 
ATOM     16  C   UNL     1       3.381   7.359  17.472  0.00  0.00    +0.000 A 
ATOM     17  C   UNL     1       3.675   6.080  17.931  0.00  0.00    +0.000 A 
ATOM     18  C   UNL     1       3.157   5.655  19.168  0.00  0.00    +0.000 A 
ATOM     19  C   UNL     1       2.354   6.501  19.944  0.00  0.00    +0.000 A 
BRANCH  18  20
ATOM     20  N   UNL     1       3.478   4.307  19.659  0.00  0.00    +0.000 N 
ATOM     21  O   UNL     1       4.650   3.922  19.558  0.00  0.00    +0.000 OA
ATOM     22  O   UNL     1       2.556   3.654  20.156  0.00  0.00    +0.000 OA
ENDBRANCH  18  20
ENDBRANCH   2  14
BRANCH   1  23
ATOM     23  C   UNL     1      -0.187  10.125  18.744  0.00  0.00    +0.000 C 
BRANCH  23  24
ATOM     24  C   UNL     1      -0.660  11.561  18.384  0.00  0.00    +0.000 C 
BRANCH  24  28
ATOM     25  C   UNL     1      -4.948  12.156  18.919  0.00  0.00    +0.000 A 
ATOM     26  C   UNL     1      -4.448  11.598  17.742  0.00  0.00    +0.000 A 
ATOM     27  C   UNL     1      -3.080  11.406  17.561  0.00  0.00    +0.000 A 
ATOM     28  C   UNL     1      -2.154  11.812  18.542  0.00  0.00    +0.000 A 
ATOM     29  C   UNL     1      -2.670  12.372  19.722  0.00  0.00    +0.000 A 
ATOM     30  C   UNL     1      -4.054  12.554  19.907  0.00  0.00    +0.000 A 
BRANCH  25  32
ATOM     31  C   UNL     1      -7.087  11.261  18.368  0.00  0.00    +0.000 C 
ATOM     32  O   UNL     1      -6.310  12.297  18.959  0.00  0.00    +0.000 OA
ENDBRANCH  25  32
ENDBRANCH  24  28
ENDBRANCH  23  24
ENDBRANCH   1  23
TORSDOF 6
ENDMDL
MODEL 9
REMARK VINA RESULT:      -7.9      3.737      9.687
REMARK  Name = 
REMARK  7 active torsions:
REMARK  status: ('A' for Active; 'I' for Inactive)
REMARK    1  A    between atoms: C_1  and  O_2
REMARK    2  A    between atoms: O_2  and  C_3
REMARK    3  A    between atoms: C_6  and  C_7
REMARK    4  A    between atoms: C_7  and  C_8
REMARK    5  A    between atoms: C_8  and  N_9
REMARK    6  A    between atoms: C_10  and  C_11
REMARK    7  A    between atoms: C_15  and  N_16
REMARK                            x       y       z     vdW  Elec       q    Type
REMARK                         _______ _______ _______ _____ _____    ______ ____
ROOT
ATOM      1  N   UNL     1       0.598  10.059  19.816  0.00  0.00    +0.000 N 
ATOM      2  C   UNL     1       1.165   8.879  20.298  0.00  0.00    +0.000 A 
ATOM      3  N   UNL     1       0.783   8.710  21.561  0.00  0.00    +0.000 NA
ATOM      4  C   UNL     1       0.272   9.916  21.909  0.00  0.00    +0.000 A 
ATOM      5  N   UNL     1      -0.589  10.176  22.910  0.00  0.00    +0.000 NA
ATOM      6  C   UNL     1      -1.059  11.436  22.864  0.00  0.00    +0.000 A 
ATOM      7  C   UNL     1      -2.299  11.690  23.408  0.00  0.00    +0.000 A 
ATOM      8  C   UNL     1      -2.848  12.971  23.377  0.00  0.00    +0.000 A 
ATOM      9  C   UNL     1      -2.051  14.036  22.981  0.00  0.00    +0.000 A 
ATOM     10  C   UNL     1      -0.826  13.783  22.376  0.00  0.00    +0.000 A 
ATOM     11  C   UNL     1      -0.453  12.473  22.112  0.00  0.00    +0.000 A 
ATOM     12  N   UNL     1       0.335  12.199  21.046  0.00  0.00    +0.000 NA
ATOM     13  C   UNL     1       0.545  10.870  20.937  0.00  0.00    +0.000 A 
ENDROOT
BRANCH   2  14
ATOM     14  C   UNL     1       2.003   7.928  19.556  0.00  0.00    +0.000 A 
ATOM     15  C   UNL     1       2.486   8.313  18.292  0.00  0.00    +0.000 A 
ATOM     16  C   UNL     1       3.279   7.460  17.522  0.00  0.00    +0.000 A 
ATOM     17  C   UNL     1       3.614   6.203  18.014  0.00  0.00    +0.000 A 
ATOM     18  C   UNL     1       3.127   5.802  19.271  0.00  0.00    +0.000 A 
ATOM     19  C   UNL     1       2.313   6.649  20.034  0.00  0.00    +0.000 A 
BRANCH  18  20
ATOM     20  N   UNL     1       3.490   4.478  19.795  0.00  0.00    +0.000 N 
ATOM     21  O   UNL     1       2.733   3.961  20.628  0.00  0.00    +0.000 OA
ATOM     22  O   UNL     1       4.520   3.960  19.355  0.00  0.00    +0.000 OA
ENDBRANCH  18  20
ENDBRANCH   2  14
BRANCH   1  23
ATOM     23  C   UNL     1      -0.473  10.032  18.796  0.00  0.00    +0.000 C 
BRANCH  23  24
ATOM     24  C   UNL     1      -0.980  11.405  18.275  0.00  0.00    +0.000 C 
BRANCH  24  28
ATOM     25  C   UNL     1      -5.247  12.230  18.658  0.00  0.00    +0.000 A 
ATOM     26  C   UNL     1      -4.382  12.441  19.732  0.00  0.00    +0.000 A 
ATOM     27  C   UNL     1      -3.018  12.179  19.620  0.00  0.00    +0.000 A 
ATOM     28  C   UNL     1      -2.476  11.647  18.433  0.00  0.00    +0.000 A 
ATOM     29  C   UNL     1      -3.357  11.440  17.360  0.00  0.00    +0.000 A 
ATOM     30  C   UNL     1      -4.734  11.717  17.472  0.00  0.00    +0.000 A 
BRANCH  25  32
ATOM     31  C   UNL     1      -7.327  11.528  19.586  0.00  0.00    +0.000 C 
ATOM     32  O   UNL     1      -6.562  12.519  18.910  0.00  0.00    +0.000 OA
ENDBRANCH  25  32
ENDBRANCH  24  28
ENDBRANCH  23  24
ENDBRANCH   1  23
TORSDOF 6
ENDMDL
