MODEL 1
REMARK VINA RESULT:      -6.5      0.000      0.000
REMARK  Name = 
REMARK  4 active torsions:
REMARK  status: ('A' for Active; 'I' for Inactive)
REMARK    1  A    between atoms: C_1  and  O_2
REMARK    2  A    between atoms: O_2  and  C_3
REMARK    3  A    between atoms: C_8  and  N_9
REMARK    4  A    between atoms: N_12  and  C_13
REMARK                            x       y       z     vdW  Elec       q    Type
REMARK                         _______ _______ _______ _____ _____    ______ ____
ROOT
ATOM      1  N   UNL     1       6.880   7.785  16.959  0.00  0.00    +0.000 N 
ATOM      2  C   UNL     1       7.896   8.209  17.809  0.00  0.00    +0.000 C 
ATOM      3  O   UNL     1       8.456   7.464  18.611  0.00  0.00    +0.000 OA
ATOM      4  N   UNL     1       8.189   9.556  17.677  0.00  0.00    +0.000 N 
ATOM      5  H   UNL     1       6.789   8.226  16.053  0.00  0.00    +0.000 HD
ATOM      6  H   UNL     1       7.682  10.065  16.970  0.00  0.00    +0.000 HD
ENDROOT
BRANCH   1  12
ATOM      7  C   UNL     1       6.487   5.470  16.222  0.00  0.00    +0.000 A 
ATOM      8  C   UNL     1       5.793   4.255  16.370  0.00  0.00    +0.000 A 
ATOM      9  C   UNL     1       4.844   4.088  17.378  0.00  0.00    +0.000 A 
ATOM     10  C   UNL     1       4.555   5.138  18.234  0.00  0.00    +0.000 A 
ATOM     11  C   UNL     1       5.214   6.357  18.079  0.00  0.00    +0.000 A 
ATOM     12  C   UNL     1       6.198   6.539  17.094  0.00  0.00    +0.000 A 
BRANCH   7  14
ATOM     13  C   UNL     1       7.256   4.949  14.042  0.00  0.00    +0.000 C 
ATOM     14  O   UNL     1       7.445   5.681  15.255  0.00  0.00    +0.000 OA
ENDBRANCH   7  14
ENDBRANCH   1  12
BRANCH   4  15
ATOM     15  C   UNL     1       9.080  10.302  18.499  0.00  0.00    +0.000 A 
ATOM     16  C   UNL     1       8.971  10.385  19.891  0.00  0.00    +0.000 A 
ATOM     17  C   UNL     1       9.876  11.164  20.595  0.00  0.00    +0.000 A 
ATOM     18  N   UNL     1      10.877  11.859  20.021  0.00  0.00    +0.000 NA
ATOM     19  C   UNL     1      10.971  11.765  18.678  0.00  0.00    +0.000 A 
ATOM     20  C   UNL     1      10.110  11.013  17.885  0.00  0.00    +0.000 A 
ENDBRANCH   4  15
TORSDOF 3
ENDMDL
MODEL 2
REMARK VINA RESULT:      -6.4      5.468      7.082
REMARK  Name = 
REMARK  4 active torsions:
REMARK  status: ('A' for Active; 'I' for Inactive)
REMARK    1  A    between atoms: C_1  and  O_2
REMARK    2  A    between atoms: O_2  and  C_3
REMARK    3  A    between atoms: C_8  and  N_9
REMARK    4  A    between atoms: N_12  and  C_13
REMARK                            x       y       z     vdW  Elec       q    Type
REMARK                         _______ _______ _______ _____ _____    ______ ____
ROOT
ATOM      1  N   UNL     1       4.716   3.439  18.183  0.00  0.00    +0.000 N 
ATOM      2  C   UNL     1       4.825   3.963  16.899  0.00  0.00    +0.000 C 
ATOM      3  O   UNL     1       3.915   4.575  16.343  0.00  0.00    +0.000 OA
ATOM      4  N   UNL     1       6.048   3.698  16.305  0.00  0.00    +0.000 N 
ATOM      5  H   UNL     1       5.547   3.390  18.758  0.00  0.00    +0.000 HD
ATOM      6  H   UNL     1       6.729   3.206  16.864  0.00  0.00    +0.000 HD
ENDROOT
BRANCH   1  12
ATOM      7  C   UNL     1       2.989   4.400  19.650  0.00  0.00    +0.000 A 
ATOM      8  C   UNL     1       1.776   4.251  20.347  0.00  0.00    +0.000 A 
ATOM      9  C   UNL     1       1.048   3.064  20.279  0.00  0.00    +0.000 A 
ATOM     10  C   UNL     1       1.534   1.999  19.538  0.00  0.00    +0.000 A 
ATOM     11  C   UNL     1       2.749   2.123  18.865  0.00  0.00    +0.000 A 
ATOM     12  C   UNL     1       3.484   3.320  18.891  0.00  0.00    +0.000 A 
BRANCH   7  14
ATOM     13  C   UNL     1       3.130   6.683  19.033  0.00  0.00    +0.000 C 
ATOM     14  O   UNL     1       3.736   5.556  19.670  0.00  0.00    +0.000 OA
ENDBRANCH   7  14
ENDBRANCH   1  12
BRANCH   4  15
ATOM     15  C   UNL     1       6.402   3.985  14.956  0.00  0.00    +0.000 A 
ATOM     16  C   UNL     1       5.869   3.314  13.851  0.00  0.00    +0.000 A 
ATOM     17  C   UNL     1       6.304   3.653  12.579  0.00  0.00    +0.000 A 
ATOM     18  N   UNL     1       7.222   4.606  12.328  0.00  0.00    +0.000 NA
ATOM     19  C   UNL     1       7.725   5.247  13.405  0.00  0.00    +0.000 A 
ATOM     20  C   UNL     1       7.353   4.976  14.717  0.00  0.00    +0.000 A 
ENDBRANCH   4  15
TORSDOF 3
ENDMDL
MODEL 3
REMARK VINA RESULT:      -6.3      4.644      7.420
REMARK  Name = 
REMARK  4 active torsions:
REMARK  status: ('A' for Active; 'I' for Inactive)
REMARK    1  A    between atoms: C_1  and  O_2
REMARK    2  A    between atoms: O_2  and  C_3
REMARK    3  A    between atoms: C_8  and  N_9
REMARK    4  A    between atoms: N_12  and  C_13
REMARK                            x       y       z     vdW  Elec       q    Type
REMARK                         _______ _______ _______ _____ _____    ______ ____
ROOT
ATOM      1  N   UNL     1       5.669   3.139  16.257  0.00  0.00    +0.000 N 
ATOM      2  C   UNL     1       4.529   3.594  16.909  0.00  0.00    +0.000 C 
ATOM      3  O   UNL     1       3.790   4.462  16.447  0.00  0.00    +0.000 OA
ATOM      4  N   UNL     1       4.329   2.991  18.140  0.00  0.00    +0.000 N 
ATOM      5  H   UNL     1       5.953   2.177  16.389  0.00  0.00    +0.000 HD
ATOM      6  H   UNL     1       4.986   2.275  18.408  0.00  0.00    +0.000 HD
ENDROOT
BRANCH   1  12
ATOM      7  C   UNL     1       7.214   4.806  15.311  0.00  0.00    +0.000 A 
ATOM      8  C   UNL     1       7.766   5.439  14.183  0.00  0.00    +0.000 A 
ATOM      9  C   UNL     1       7.395   5.061  12.892  0.00  0.00    +0.000 A 
ATOM     10  C   UNL     1       6.448   4.066  12.711  0.00  0.00    +0.000 A 
ATOM     11  C   UNL     1       5.871   3.451  13.821  0.00  0.00    +0.000 A 
ATOM     12  C   UNL     1       6.253   3.790  15.129  0.00  0.00    +0.000 A 
BRANCH   7  14
ATOM     13  C   UNL     1       7.161   6.434  17.032  0.00  0.00    +0.000 C 
ATOM     14  O   UNL     1       7.559   5.130  16.604  0.00  0.00    +0.000 OA
ENDBRANCH   7  14
ENDBRANCH   1  12
BRANCH   4  15
ATOM     15  C   UNL     1       3.331   3.345  19.092  0.00  0.00    +0.000 A 
ATOM     16  C   UNL     1       3.367   4.511  19.861  0.00  0.00    +0.000 A 
ATOM     17  C   UNL     1       2.357   4.746  20.782  0.00  0.00    +0.000 A 
ATOM     18  N   UNL     1       1.320   3.912  20.990  0.00  0.00    +0.000 NA
ATOM     19  C   UNL     1       1.298   2.792  20.237  0.00  0.00    +0.000 A 
ATOM     20  C   UNL     1       2.266   2.468  19.291  0.00  0.00    +0.000 A 
ENDBRANCH   4  15
TORSDOF 3
ENDMDL
MODEL 4
REMARK VINA RESULT:      -6.3      0.087      1.104
REMARK  Name = 
REMARK  4 active torsions:
REMARK  status: ('A' for Active; 'I' for Inactive)
REMARK    1  A    between atoms: C_1  and  O_2
REMARK    2  A    between atoms: O_2  and  C_3
REMARK    3  A    between atoms: C_8  and  N_9
REMARK    4  A    between atoms: N_12  and  C_13
REMARK                            x       y       z     vdW  Elec       q    Type
REMARK                         _______ _______ _______ _____ _____    ______ ____
ROOT
ATOM      1  N   UNL     1       6.873   7.792  16.975  0.00  0.00    +0.000 N 
ATOM      2  C   UNL     1       7.902   8.230  17.801  0.00  0.00    +0.000 C 
ATOM      3  O   UNL     1       8.480   7.499  18.602  0.00  0.00    +0.000 OA
ATOM      4  N   UNL     1       8.187   9.577  17.647  0.00  0.00    +0.000 N 
ATOM      5  H   UNL     1       6.765   8.220  16.065  0.00  0.00    +0.000 HD
ATOM      6  H   UNL     1       7.665  10.075  16.942  0.00  0.00    +0.000 HD
ENDROOT
BRANCH   1  12
ATOM      7  C   UNL     1       6.474   5.467  16.271  0.00  0.00    +0.000 A 
ATOM      8  C   UNL     1       5.788   4.251  16.448  0.00  0.00    +0.000 A 
ATOM      9  C   UNL     1       4.862   4.091  17.479  0.00  0.00    +0.000 A 
ATOM     10  C   UNL     1       4.588   5.149  18.329  0.00  0.00    +0.000 A 
ATOM     11  C   UNL     1       5.239   6.369  18.147  0.00  0.00    +0.000 A 
ATOM     12  C   UNL     1       6.200   6.544  17.138  0.00  0.00    +0.000 A 
BRANCH   7  14
ATOM     13  C   UNL     1       7.222   4.891  14.098  0.00  0.00    +0.000 C 
ATOM     14  O   UNL     1       7.409   5.671  15.281  0.00  0.00    +0.000 OA
ENDBRANCH   7  14
ENDBRANCH   1  12
BRANCH   4  15
ATOM     15  C   UNL     1       9.089  10.338  18.443  0.00  0.00    +0.000 A 
ATOM     16  C   UNL     1      10.194  11.023  17.929  0.00  0.00    +0.000 A 
ATOM     17  C   UNL     1      11.027  11.711  18.798  0.00  0.00    +0.000 A 
ATOM     18  N   UNL     1      10.841  11.769  20.131  0.00  0.00    +0.000 NA
ATOM     19  C   UNL     1       9.768  11.106  20.611  0.00  0.00    +0.000 A 
ATOM     20  C   UNL     1       8.878  10.386  19.820  0.00  0.00    +0.000 A 
ENDBRANCH   4  15
TORSDOF 3
ENDMDL
MODEL 5
REMARK VINA RESULT:      -6.3      4.641      7.414
REMARK  Name = 
REMARK  4 active torsions:
REMARK  status: ('A' for Active; 'I' for Inactive)
REMARK    1  A    between atoms: C_1  and  O_2
REMARK    2  A    between atoms: O_2  and  C_3
REMARK    3  A    between atoms: C_8  and  N_9
REMARK    4  A    between atoms: N_12  and  C_13
REMARK                            x       y       z     vdW  Elec       q    Type
REMARK                         _______ _______ _______ _____ _____    ______ ____
ROOT
ATOM      1  N   UNL     1       5.644   3.143  16.283  0.00  0.00    +0.000 N 
ATOM      2  C   UNL     1       4.469   3.566  16.895  0.00  0.00    +0.000 C 
ATOM      3  O   UNL     1       3.712   4.396  16.395  0.00  0.00    +0.000 OA
ATOM      4  N   UNL     1       4.257   2.979  18.131  0.00  0.00    +0.000 N 
ATOM      5  H   UNL     1       5.960   2.196  16.443  0.00  0.00    +0.000 HD
ATOM      6  H   UNL     1       4.934   2.294  18.432  0.00  0.00    +0.000 HD
ENDROOT
BRANCH   1  12
ATOM      7  C   UNL     1       7.194   4.811  15.348  0.00  0.00    +0.000 A 
ATOM      8  C   UNL     1       7.753   5.445  14.224  0.00  0.00    +0.000 A 
ATOM      9  C   UNL     1       7.390   5.068  12.931  0.00  0.00    +0.000 A 
ATOM     10  C   UNL     1       6.444   4.073  12.743  0.00  0.00    +0.000 A 
ATOM     11  C   UNL     1       5.861   3.457  13.849  0.00  0.00    +0.000 A 
ATOM     12  C   UNL     1       6.235   3.796  15.160  0.00  0.00    +0.000 A 
BRANCH   7  14
ATOM     13  C   UNL     1       7.136   6.440  17.068  0.00  0.00    +0.000 C 
ATOM     14  O   UNL     1       7.531   5.134  16.644  0.00  0.00    +0.000 OA
ENDBRANCH   7  14
ENDBRANCH   1  12
BRANCH   4  15
ATOM     15  C   UNL     1       3.220   3.311  19.048  0.00  0.00    +0.000 A 
ATOM     16  C   UNL     1       2.038   2.578  19.186  0.00  0.00    +0.000 A 
ATOM     17  C   UNL     1       1.078   3.005  20.091  0.00  0.00    +0.000 A 
ATOM     18  N   UNL     1       1.209   4.100  20.864  0.00  0.00    +0.000 NA
ATOM     19  C   UNL     1       2.357   4.795  20.722  0.00  0.00    +0.000 A 
ATOM     20  C   UNL     1       3.376   4.447  19.841  0.00  0.00    +0.000 A 
ENDBRANCH   4  15
TORSDOF 3
ENDMDL
MODEL 6
REMARK VINA RESULT:      -6.3      5.434      7.070
REMARK  Name = 
REMARK  4 active torsions:
REMARK  status: ('A' for Active; 'I' for Inactive)
REMARK    1  A    between atoms: C_1  and  O_2
REMARK    2  A    between atoms: O_2  and  C_3
REMARK    3  A    between atoms: C_8  and  N_9
REMARK    4  A    between atoms: N_12  and  C_13
REMARK                            x       y       z     vdW  Elec       q    Type
REMARK                         _______ _______ _______ _____ _____    ______ ____
ROOT
ATOM      1  N   UNL     1       4.748   3.462  18.178  0.00  0.00    +0.000 N 
ATOM      2  C   UNL     1       4.890   3.999  16.904  0.00  0.00    +0.000 C 
ATOM      3  O   UNL     1       3.994   4.614  16.329  0.00  0.00    +0.000 OA
ATOM      4  N   UNL     1       6.131   3.746  16.342  0.00  0.00    +0.000 N 
ATOM      5  H   UNL     1       5.562   3.410  18.777  0.00  0.00    +0.000 HD
ATOM      6  H   UNL     1       6.797   3.252  16.915  0.00  0.00    +0.000 HD
ENDROOT
BRANCH   1  12
ATOM      7  C   UNL     1       2.975   4.400  19.605  0.00  0.00    +0.000 A 
ATOM      8  C   UNL     1       1.743   4.239  20.266  0.00  0.00    +0.000 A 
ATOM      9  C   UNL     1       1.023   3.049  20.166  0.00  0.00    +0.000 A 
ATOM     10  C   UNL     1       1.535   1.994  19.428  0.00  0.00    +0.000 A 
ATOM     11  C   UNL     1       2.769   2.130  18.792  0.00  0.00    +0.000 A 
ATOM     12  C   UNL     1       3.496   3.330  18.850  0.00  0.00    +0.000 A 
BRANCH   7  14
ATOM     13  C   UNL     1       3.085   6.710  19.092  0.00  0.00    +0.000 C 
ATOM     14  O   UNL     1       3.716   5.559  19.658  0.00  0.00    +0.000 OA
ENDBRANCH   7  14
ENDBRANCH   1  12
BRANCH   4  15
ATOM     15  C   UNL     1       6.521   4.049  15.007  0.00  0.00    +0.000 A 
ATOM     16  C   UNL     1       7.453   5.036  14.673  0.00  0.00    +0.000 A 
ATOM     17  C   UNL     1       7.742   5.270  13.337  0.00  0.00    +0.000 A 
ATOM     18  N   UNL     1       7.177   4.596  12.317  0.00  0.00    +0.000 NA
ATOM     19  C   UNL     1       6.282   3.644  12.656  0.00  0.00    +0.000 A 
ATOM     20  C   UNL     1       5.926   3.339  13.965  0.00  0.00    +0.000 A 
ENDBRANCH   4  15
TORSDOF 3
ENDMDL
MODEL 7
REMARK VINA RESULT:      -6.1      5.837      7.184
REMARK  Name = 
REMARK  4 active torsions:
REMARK  status: ('A' for Active; 'I' for Inactive)
REMARK    1  A    between atoms: C_1  and  O_2
REMARK    2  A    between atoms: O_2  and  C_3
REMARK    3  A    between atoms: C_8  and  N_9
REMARK    4  A    between atoms: N_12  and  C_13
REMARK                            x       y       z     vdW  Elec       q    Type
REMARK                         _______ _______ _______ _____ _____    ______ ____
ROOT
ATOM      1  N   UNL     1       4.565   2.899  17.418  0.00  0.00    +0.000 N 
ATOM      2  C   UNL     1       5.044   3.782  16.456  0.00  0.00    +0.000 C 
ATOM      3  O   UNL     1       4.702   4.961  16.396  0.00  0.00    +0.000 OA
ATOM      4  N   UNL     1       5.919   3.189  15.560  0.00  0.00    +0.000 N 
ATOM      5  H   UNL     1       5.169   2.153  17.736  0.00  0.00    +0.000 HD
ATOM      6  H   UNL     1       6.145   2.219  15.720  0.00  0.00    +0.000 HD
ENDROOT
BRANCH   1  12
ATOM      7  C   UNL     1       3.594   3.145  19.667  0.00  0.00    +0.000 A 
ATOM      8  C   UNL     1       2.476   3.410  20.478  0.00  0.00    +0.000 A 
ATOM      9  C   UNL     1       1.238   3.724  19.918  0.00  0.00    +0.000 A 
ATOM     10  C   UNL     1       1.093   3.750  18.540  0.00  0.00    +0.000 A 
ATOM     11  C   UNL     1       2.185   3.460  17.724  0.00  0.00    +0.000 A 
ATOM     12  C   UNL     1       3.450   3.175  18.265  0.00  0.00    +0.000 A 
BRANCH   7  14
ATOM     13  C   UNL     1       4.962   1.557  20.771  0.00  0.00    +0.000 C 
ATOM     14  O   UNL     1       4.841   2.848  20.170  0.00  0.00    +0.000 OA
ENDBRANCH   7  14
ENDBRANCH   1  12
BRANCH   4  15
ATOM     15  C   UNL     1       6.463   3.798  14.395  0.00  0.00    +0.000 A 
ATOM     16  C   UNL     1       7.352   4.876  14.422  0.00  0.00    +0.000 A 
ATOM     17  C   UNL     1       7.801   5.414  13.226  0.00  0.00    +0.000 A 
ATOM     18  N   UNL     1       7.433   4.959  12.012  0.00  0.00    +0.000 NA
ATOM     19  C   UNL     1       6.577   3.915  12.002  0.00  0.00    +0.000 A 
ATOM     20  C   UNL     1       6.071   3.311  13.149  0.00  0.00    +0.000 A 
ENDBRANCH   4  15
TORSDOF 3
ENDMDL
MODEL 8
REMARK VINA RESULT:      -6.1      6.833      7.768
REMARK  Name = 
REMARK  4 active torsions:
REMARK  status: ('A' for Active; 'I' for Inactive)
REMARK    1  A    between atoms: C_1  and  O_2
REMARK    2  A    between atoms: O_2  and  C_3
REMARK    3  A    between atoms: C_8  and  N_9
REMARK    4  A    between atoms: N_12  and  C_13
REMARK                            x       y       z     vdW  Elec       q    Type
REMARK                         _______ _______ _______ _____ _____    ______ ____
ROOT
ATOM      1  N   UNL     1       2.946   5.787  20.002  0.00  0.00    +0.000 N 
ATOM      2  C   UNL     1       1.829   6.467  20.473  0.00  0.00    +0.000 C 
ATOM      3  O   UNL     1       0.702   5.975  20.495  0.00  0.00    +0.000 OA
ATOM      4  N   UNL     1       2.111   7.759  20.885  0.00  0.00    +0.000 N 
ATOM      5  H   UNL     1       3.847   5.990  20.414  0.00  0.00    +0.000 HD
ATOM      6  H   UNL     1       3.077   8.049  20.843  0.00  0.00    +0.000 HD
ENDROOT
BRANCH   1  12
ATOM      7  C   UNL     1       2.761   3.334  19.930  0.00  0.00    +0.000 A 
ATOM      8  C   UNL     1       2.711   2.147  19.176  0.00  0.00    +0.000 A 
ATOM      9  C   UNL     1       2.754   2.177  17.783  0.00  0.00    +0.000 A 
ATOM     10  C   UNL     1       2.878   3.389  17.124  0.00  0.00    +0.000 A 
ATOM     11  C   UNL     1       2.958   4.571  17.859  0.00  0.00    +0.000 A 
ATOM     12  C   UNL     1       2.882   4.569  19.261  0.00  0.00    +0.000 A 
BRANCH   7  14
ATOM     13  C   UNL     1       1.574   2.698  21.880  0.00  0.00    +0.000 C 
ATOM     14  O   UNL     1       2.704   3.359  21.305  0.00  0.00    +0.000 OA
ENDBRANCH   7  14
ENDBRANCH   1  12
BRANCH   4  15
ATOM     15  C   UNL     1       1.157   8.737  21.285  0.00  0.00    +0.000 A 
ATOM     16  C   UNL     1       0.784   8.964  22.613  0.00  0.00    +0.000 A 
ATOM     17  C   UNL     1      -0.178   9.923  22.891  0.00  0.00    +0.000 A 
ATOM     18  N   UNL     1      -0.789  10.669  21.951  0.00  0.00    +0.000 NA
ATOM     19  C   UNL     1      -0.415  10.441  20.675  0.00  0.00    +0.000 A 
ATOM     20  C   UNL     1       0.537   9.500  20.297  0.00  0.00    +0.000 A 
ENDBRANCH   4  15
TORSDOF 3
ENDMDL
MODEL 9
REMARK VINA RESULT:      -6.1      6.784      7.823
REMARK  Name = 
REMARK  4 active torsions:
REMARK  status: ('A' for Active; 'I' for Inactive)
REMARK    1  A    between atoms: C_1  and  O_2
REMARK    2  A    between atoms: O_2  and  C_3
REMARK    3  A    between atoms: C_8  and  N_9
REMARK    4  A    between atoms: N_12  and  C_13
REMARK                            x       y       z     vdW  Elec       q    Type
REMARK                         _______ _______ _______ _____ _____    ______ ____
ROOT
ATOM      1  N   UNL     1       2.986   5.816  20.037  0.00  0.00    +0.000 N 
ATOM      2  C   UNL     1       1.843   6.485  20.457  0.00  0.00    +0.000 C 
ATOM      3  O   UNL     1       0.721   5.982  20.431  0.00  0.00    +0.000 OA
ATOM      4  N   UNL     1       2.094   7.781  20.879  0.00  0.00    +0.000 N 
ATOM      5  H   UNL     1       3.867   6.028  20.488  0.00  0.00    +0.000 HD
ATOM      6  H   UNL     1       3.058   8.080  20.879  0.00  0.00    +0.000 HD
ENDROOT
BRANCH   1  12
ATOM      7  C   UNL     1       2.801   3.362  19.959  0.00  0.00    +0.000 A 
ATOM      8  C   UNL     1       2.797   2.174  19.206  0.00  0.00    +0.000 A 
ATOM      9  C   UNL     1       2.929   2.201  17.818  0.00  0.00    +0.000 A 
ATOM     10  C   UNL     1       3.096   3.412  17.165  0.00  0.00    +0.000 A 
ATOM     11  C   UNL     1       3.132   4.595  17.902  0.00  0.00    +0.000 A 
ATOM     12  C   UNL     1       2.967   4.596  19.297  0.00  0.00    +0.000 A 
BRANCH   7  14
ATOM     13  C   UNL     1       1.544   2.655  21.838  0.00  0.00    +0.000 C 
ATOM     14  O   UNL     1       2.657   3.392  21.328  0.00  0.00    +0.000 OA
ENDBRANCH   7  14
ENDBRANCH   1  12
BRANCH   4  15
ATOM     15  C   UNL     1       1.114   8.749  21.235  0.00  0.00    +0.000 A 
ATOM     16  C   UNL     1       0.444   9.556  20.311  0.00  0.00    +0.000 A 
ATOM     17  C   UNL     1      -0.474  10.490  20.767  0.00  0.00    +0.000 A 
ATOM     18  N   UNL     1      -0.773  10.676  22.067  0.00  0.00    +0.000 NA
ATOM     19  C   UNL     1      -0.121   9.888  22.947  0.00  0.00    +0.000 A 
ATOM     20  C   UNL     1       0.817   8.926  22.586  0.00  0.00    +0.000 A 
ENDBRANCH   4  15
TORSDOF 3
ENDMDL
