MODEL 1
REMARK VINA RESULT:      -7.6      0.000      0.000
REMARK  Name = 
REMARK  6 active torsions:
REMARK  status: ('A' for Active; 'I' for Inactive)
REMARK    1  A    between atoms: C_1  and  C_2
REMARK    2  A    between atoms: C_2  and  O_3
REMARK    3  A    between atoms: O_3  and  C_4
REMARK    4  A    between atoms: C_6  and  O_7
REMARK    5  A    between atoms: O_7  and  C_8
REMARK    6  A    between atoms: C_8  and  C_9
REMARK                            x       y       z     vdW  Elec       q    Type
REMARK                         _______ _______ _______ _____ _____    ______ ____
ROOT
ATOM      1  C   UNL     1       5.681   4.559  16.055  0.00  0.00    +0.000 A 
ATOM      2  C   UNL     1       6.689   5.537  15.936  0.00  0.00    +0.000 A 
ATOM      3  C   UNL     1       6.898   6.483  16.940  0.00  0.00    +0.000 A 
ATOM      4  C   UNL     1       6.082   6.461  18.071  0.00  0.00    +0.000 A 
ATOM      5  C   UNL     1       5.091   5.487  18.213  0.00  0.00    +0.000 A 
ATOM      6  O   UNL     1       4.330   5.583  19.358  0.00  0.00    +0.000 OA
ATOM      7  C   UNL     1       3.215   4.790  19.452  0.00  0.00    +0.000 A 
ATOM      8  C   UNL     1       2.305   5.074  20.470  0.00  0.00    +0.000 A 
ATOM      9  C   UNL     1       1.155   4.293  20.616  0.00  0.00    +0.000 A 
ATOM     10  C   UNL     1       0.909   3.232  19.743  0.00  0.00    +0.000 A 
ATOM     11  C   UNL     1       1.824   2.938  18.734  0.00  0.00    +0.000 A 
ATOM     12  C   UNL     1       2.975   3.717  18.603  0.00  0.00    +0.000 A 
ATOM     13  C   UNL     1       3.979   3.415  17.581  0.00  0.00    +0.000 A 
ATOM     14  O   UNL     1       4.018   2.297  17.086  0.00  0.00    +0.000 OA
ATOM     15  C   UNL     1       4.923   4.499  17.234  0.00  0.00    +0.000 A 
ENDROOT
BRANCH   1  16
ATOM     16  O   UNL     1       5.600   3.749  14.952  0.00  0.00    +0.000 OA
BRANCH  16  18
ATOM     17  C   UNL     1       5.849   3.401  12.583  0.00  0.00    +0.000 C 
ATOM     18  C   UNL     1       6.413   4.074  13.821  0.00  0.00    +0.000 C 
ENDBRANCH  16  18
ENDBRANCH   1  16
BRANCH   3  19
ATOM     19  O   UNL     1       7.864   7.449  16.960  0.00  0.00    +0.000 OA
BRANCH  19  20
ATOM     20  C   UNL     1       8.290   7.929  18.234  0.00  0.00    +0.000 C 
BRANCH  20  21
ATOM     21  C   UNL     1       8.234   9.425  18.203  0.00  0.00    +0.000 C 
ATOM     22  C   UNL     1       9.083  10.249  19.137  0.00  0.00    +0.000 C 
ATOM     23  O   UNL     1       9.436  10.066  17.759  0.00  0.00    +0.000 OA
ENDBRANCH  20  21
ENDBRANCH  19  20
ENDBRANCH   3  19
TORSDOF 5
ENDMDL
MODEL 2
REMARK VINA RESULT:      -7.5      1.469      5.209
REMARK  Name = 
REMARK  6 active torsions:
REMARK  status: ('A' for Active; 'I' for Inactive)
REMARK    1  A    between atoms: C_1  and  C_2
REMARK    2  A    between atoms: C_2  and  O_3
REMARK    3  A    between atoms: O_3  and  C_4
REMARK    4  A    between atoms: C_6  and  O_7
REMARK    5  A    between atoms: O_7  and  C_8
REMARK    6  A    between atoms: C_8  and  C_9
REMARK                            x       y       z     vdW  Elec       q    Type
REMARK                         _______ _______ _______ _____ _____    ______ ____
ROOT
ATOM      1  C   UNL     1       5.790   6.217  16.579  0.00  0.00    +0.000 A 
ATOM      2  C   UNL     1       6.500   5.559  15.555  0.00  0.00    +0.000 A 
ATOM      3  C   UNL     1       6.118   4.294  15.110  0.00  0.00    +0.000 A 
ATOM      4  C   UNL     1       5.020   3.671  15.704  0.00  0.00    +0.000 A 
ATOM      5  C   UNL     1       4.294   4.316  16.707  0.00  0.00    +0.000 A 
ATOM      6  O   UNL     1       3.250   3.592  17.238  0.00  0.00    +0.000 OA
ATOM      7  C   UNL     1       2.636   4.085  18.361  0.00  0.00    +0.000 A 
ATOM      8  C   UNL     1       1.771   3.234  19.050  0.00  0.00    +0.000 A 
ATOM      9  C   UNL     1       1.113   3.687  20.197  0.00  0.00    +0.000 A 
ATOM     10  C   UNL     1       1.322   4.988  20.661  0.00  0.00    +0.000 A 
ATOM     11  C   UNL     1       2.174   5.843  19.966  0.00  0.00    +0.000 A 
ATOM     12  C   UNL     1       2.818   5.385  18.814  0.00  0.00    +0.000 A 
ATOM     13  C   UNL     1       3.690   6.266  18.035  0.00  0.00    +0.000 A 
ATOM     14  O   UNL     1       3.581   7.479  18.153  0.00  0.00    +0.000 OA
ATOM     15  C   UNL     1       4.640   5.614  17.110  0.00  0.00    +0.000 A 
ENDROOT
BRANCH   1  16
ATOM     16  O   UNL     1       6.340   7.429  16.908  0.00  0.00    +0.000 OA
BRANCH  16  18
ATOM     17  C   UNL     1       8.058   8.854  17.811  0.00  0.00    +0.000 C 
ATOM     18  C   UNL     1       7.558   7.429  17.659  0.00  0.00    +0.000 C 
ENDBRANCH  16  18
ENDBRANCH   1  16
BRANCH   3  19
ATOM     19  O   UNL     1       6.698   3.576  14.103  0.00  0.00    +0.000 OA
BRANCH  19  20
ATOM     20  C   UNL     1       6.298   3.875  12.766  0.00  0.00    +0.000 C 
BRANCH  20  21
ATOM     21  C   UNL     1       5.071   3.073  12.463  0.00  0.00    +0.000 C 
ATOM     22  C   UNL     1       4.273   3.325  11.209  0.00  0.00    +0.000 C 
ATOM     23  O   UNL     1       5.176   2.215  11.320  0.00  0.00    +0.000 OA
ENDBRANCH  20  21
ENDBRANCH  19  20
ENDBRANCH   3  19
TORSDOF 5
ENDMDL
MODEL 3
REMARK VINA RESULT:      -7.5      2.952      6.431
REMARK  Name = 
REMARK  6 active torsions:
REMARK  status: ('A' for Active; 'I' for Inactive)
REMARK    1  A    between atoms: C_1  and  C_2
REMARK    2  A    between atoms: C_2  and  O_3
REMARK    3  A    between atoms: O_3  and  C_4
REMARK    4  A    between atoms: C_6  and  O_7
REMARK    5  A    between atoms: O_7  and  C_8
REMARK    6  A    between atoms: C_8  and  C_9
REMARK                            x       y       z     vdW  Elec       q    Type
REMARK                         _______ _______ _______ _____ _____    ______ ____
ROOT
ATOM      1  C   UNL     1       2.668   5.038  19.927  0.00  0.00    +0.000 A 
ATOM      2  C   UNL     1       2.040   6.145  20.531  0.00  0.00    +0.000 A 
ATOM      3  C   UNL     1       2.052   7.401  19.925  0.00  0.00    +0.000 A 
ATOM      4  C   UNL     1       2.712   7.558  18.707  0.00  0.00    +0.000 A 
ATOM      5  C   UNL     1       3.325   6.468  18.085  0.00  0.00    +0.000 A 
ATOM      6  O   UNL     1       3.970   6.750  16.901  0.00  0.00    +0.000 OA
ATOM      7  C   UNL     1       4.761   5.772  16.356  0.00  0.00    +0.000 A 
ATOM      8  C   UNL     1       5.618   6.139  15.318  0.00  0.00    +0.000 A 
ATOM      9  C   UNL     1       6.441   5.180  14.720  0.00  0.00    +0.000 A 
ATOM     10  C   UNL     1       6.415   3.855  15.162  0.00  0.00    +0.000 A 
ATOM     11  C   UNL     1       5.549   3.484  16.189  0.00  0.00    +0.000 A 
ATOM     12  C   UNL     1       4.722   4.447  16.772  0.00  0.00    +0.000 A 
ATOM     13  C   UNL     1       3.772   4.088  17.826  0.00  0.00    +0.000 A 
ATOM     14  O   UNL     1       3.424   2.922  17.952  0.00  0.00    +0.000 OA
ATOM     15  C   UNL     1       3.258   5.193  18.663  0.00  0.00    +0.000 A 
ENDROOT
BRANCH   1  16
ATOM     16  O   UNL     1       2.587   3.902  20.691  0.00  0.00    +0.000 OA
BRANCH  16  18
ATOM     17  C   UNL     1       0.669   2.818  19.719  0.00  0.00    +0.000 C 
ATOM     18  C   UNL     1       1.286   3.385  20.985  0.00  0.00    +0.000 C 
ENDBRANCH  16  18
ENDBRANCH   1  16
BRANCH   3  19
ATOM     19  O   UNL     1       1.447   8.534  20.390  0.00  0.00    +0.000 OA
BRANCH  19  20
ATOM     20  C   UNL     1       0.529   8.394  21.473  0.00  0.00    +0.000 C 
BRANCH  20  21
ATOM     21  C   UNL     1       0.412   9.724  22.151  0.00  0.00    +0.000 C 
ATOM     22  C   UNL     1      -0.729  10.014  23.091  0.00  0.00    +0.000 C 
ATOM     23  O   UNL     1       0.585   9.697  23.572  0.00  0.00    +0.000 OA
ENDBRANCH  20  21
ENDBRANCH  19  20
ENDBRANCH   3  19
TORSDOF 5
ENDMDL
MODEL 4
REMARK VINA RESULT:      -7.4      3.093      6.518
REMARK  Name = 
REMARK  6 active torsions:
REMARK  status: ('A' for Active; 'I' for Inactive)
REMARK    1  A    between atoms: C_1  and  C_2
REMARK    2  A    between atoms: C_2  and  O_3
REMARK    3  A    between atoms: O_3  and  C_4
REMARK    4  A    between atoms: C_6  and  O_7
REMARK    5  A    between atoms: O_7  and  C_8
REMARK    6  A    between atoms: C_8  and  C_9
REMARK                            x       y       z     vdW  Elec       q    Type
REMARK                         _______ _______ _______ _____ _____    ______ ____
ROOT
ATOM      1  C   UNL     1       1.588   4.742  19.836  0.00  0.00    +0.000 A 
ATOM      2  C   UNL     1       1.163   5.723  20.754  0.00  0.00    +0.000 A 
ATOM      3  C   UNL     1       1.630   7.035  20.676  0.00  0.00    +0.000 A 
ATOM      4  C   UNL     1       2.544   7.369  19.677  0.00  0.00    +0.000 A 
ATOM      5  C   UNL     1       2.963   6.413  18.748  0.00  0.00    +0.000 A 
ATOM      6  O   UNL     1       3.888   6.851  17.827  0.00  0.00    +0.000 OA
ATOM      7  C   UNL     1       4.488   5.913  17.028  0.00  0.00    +0.000 A 
ATOM      8  C   UNL     1       5.606   6.310  16.294  0.00  0.00    +0.000 A 
ATOM      9  C   UNL     1       6.253   5.395  15.457  0.00  0.00    +0.000 A 
ATOM     10  C   UNL     1       5.788   4.082  15.357  0.00  0.00    +0.000 A 
ATOM     11  C   UNL     1       4.663   3.688  16.079  0.00  0.00    +0.000 A 
ATOM     12  C   UNL     1       4.017   4.612  16.903  0.00  0.00    +0.000 A 
ATOM     13  C   UNL     1       2.810   4.246  17.646  0.00  0.00    +0.000 A 
ATOM     14  O   UNL     1       2.149   3.283  17.286  0.00  0.00    +0.000 OA
ATOM     15  C   UNL     1       2.444   5.111  18.788  0.00  0.00    +0.000 A 
ENDROOT
BRANCH   1  16
ATOM     16  O   UNL     1       1.055   3.506  20.099  0.00  0.00    +0.000 OA
BRANCH  16  18
ATOM     17  C   UNL     1       2.831   2.553  21.416  0.00  0.00    +0.000 C 
ATOM     18  C   UNL     1       1.355   2.903  21.361  0.00  0.00    +0.000 C 
ENDBRANCH  16  18
ENDBRANCH   1  16
BRANCH   3  19
ATOM     19  O   UNL     1       1.262   8.078  21.477  0.00  0.00    +0.000 OA
BRANCH  19  20
ATOM     20  C   UNL     1       0.388   9.059  20.921  0.00  0.00    +0.000 C 
BRANCH  20  21
ATOM     21  C   UNL     1       0.256  10.172  21.913  0.00  0.00    +0.000 C 
ATOM     22  C   UNL     1      -0.769  10.107  23.016  0.00  0.00    +0.000 C 
ATOM     23  O   UNL     1       0.618   9.832  23.257  0.00  0.00    +0.000 OA
ENDBRANCH  20  21
ENDBRANCH  19  20
ENDBRANCH   3  19
TORSDOF 5
ENDMDL
MODEL 5
REMARK VINA RESULT:      -7.2      3.797      6.054
REMARK  Name = 
REMARK  6 active torsions:
REMARK  status: ('A' for Active; 'I' for Inactive)
REMARK    1  A    between atoms: C_1  and  C_2
REMARK    2  A    between atoms: C_2  and  O_3
REMARK    3  A    between atoms: O_3  and  C_4
REMARK    4  A    between atoms: C_6  and  O_7
REMARK    5  A    between atoms: O_7  and  C_8
REMARK    6  A    between atoms: C_8  and  C_9
REMARK                            x       y       z     vdW  Elec       q    Type
REMARK                         _______ _______ _______ _____ _____    ______ ____
ROOT
ATOM      1  C   UNL     1       2.512   5.979  19.837  0.00  0.00    +0.000 A 
ATOM      2  C   UNL     1       3.384   5.343  18.930  0.00  0.00    +0.000 A 
ATOM      3  C   UNL     1       3.846   6.003  17.792  0.00  0.00    +0.000 A 
ATOM      4  C   UNL     1       3.423   7.309  17.547  0.00  0.00    +0.000 A 
ATOM      5  C   UNL     1       2.573   7.959  18.444  0.00  0.00    +0.000 A 
ATOM      6  O   UNL     1       2.199   9.235  18.082  0.00  0.00    +0.000 OA
ATOM      7  C   UNL     1       1.208   9.842  18.811  0.00  0.00    +0.000 A 
ATOM      8  C   UNL     1       0.645  11.007  18.290  0.00  0.00    +0.000 A 
ATOM      9  C   UNL     1      -0.364  11.670  18.995  0.00  0.00    +0.000 A 
ATOM     10  C   UNL     1      -0.815  11.168  20.217  0.00  0.00    +0.000 A 
ATOM     11  C   UNL     1      -0.244  10.012  20.746  0.00  0.00    +0.000 A 
ATOM     12  C   UNL     1       0.772   9.363  20.039  0.00  0.00    +0.000 A 
ATOM     13  C   UNL     1       1.423   8.169  20.581  0.00  0.00    +0.000 A 
ATOM     14  O   UNL     1       1.362   7.941  21.781  0.00  0.00    +0.000 OA
ATOM     15  C   UNL     1       2.159   7.319  19.620  0.00  0.00    +0.000 A 
ENDROOT
BRANCH   1  16
ATOM     16  O   UNL     1       2.134   5.159  20.868  0.00  0.00    +0.000 OA
BRANCH  16  18
ATOM     17  C   UNL     1       1.519   2.914  21.483  0.00  0.00    +0.000 C 
ATOM     18  C   UNL     1       1.222   4.096  20.578  0.00  0.00    +0.000 C 
ENDBRANCH  16  18
ENDBRANCH   1  16
BRANCH   3  19
ATOM     19  O   UNL     1       4.722   5.511  16.866  0.00  0.00    +0.000 OA
BRANCH  19  20
ATOM     20  C   UNL     1       5.665   4.534  17.305  0.00  0.00    +0.000 C 
BRANCH  20  21
ATOM     21  C   UNL     1       6.980   5.221  17.501  0.00  0.00    +0.000 C 
ATOM     22  C   UNL     1       7.461   5.591  18.881  0.00  0.00    +0.000 C 
ATOM     23  O   UNL     1       7.973   4.446  18.184  0.00  0.00    +0.000 OA
ENDBRANCH  20  21
ENDBRANCH  19  20
ENDBRANCH   3  19
TORSDOF 5
ENDMDL
MODEL 6
REMARK VINA RESULT:      -7.2      1.631      5.082
REMARK  Name = 
REMARK  6 active torsions:
REMARK  status: ('A' for Active; 'I' for Inactive)
REMARK    1  A    between atoms: C_1  and  C_2
REMARK    2  A    between atoms: C_2  and  O_3
REMARK    3  A    between atoms: O_3  and  C_4
REMARK    4  A    between atoms: C_6  and  O_7
REMARK    5  A    between atoms: O_7  and  C_8
REMARK    6  A    between atoms: C_8  and  C_9
REMARK                            x       y       z     vdW  Elec       q    Type
REMARK                         _______ _______ _______ _____ _____    ______ ____
ROOT
ATOM      1  C   UNL     1       5.799   6.106  17.342  0.00  0.00    +0.000 A 
ATOM      2  C   UNL     1       6.475   5.875  16.128  0.00  0.00    +0.000 A 
ATOM      3  C   UNL     1       6.007   4.935  15.209  0.00  0.00    +0.000 A 
ATOM      4  C   UNL     1       4.857   4.207  15.512  0.00  0.00    +0.000 A 
ATOM      5  C   UNL     1       4.165   4.436  16.703  0.00  0.00    +0.000 A 
ATOM      6  O   UNL     1       3.061   3.638  16.907  0.00  0.00    +0.000 OA
ATOM      7  C   UNL     1       2.467   3.671  18.142  0.00  0.00    +0.000 A 
ATOM      8  C   UNL     1       1.531   2.680  18.436  0.00  0.00    +0.000 A 
ATOM      9  C   UNL     1       0.890   2.670  19.678  0.00  0.00    +0.000 A 
ATOM     10  C   UNL     1       1.186   3.647  20.631  0.00  0.00    +0.000 A 
ATOM     11  C   UNL     1       2.111   4.646  20.334  0.00  0.00    +0.000 A 
ATOM     12  C   UNL     1       2.737   4.654  19.086  0.00  0.00    +0.000 A 
ATOM     13  C   UNL     1       3.685   5.710  18.723  0.00  0.00    +0.000 A 
ATOM     14  O   UNL     1       3.664   6.772  19.329  0.00  0.00    +0.000 OA
ATOM     15  C   UNL     1       4.599   5.425  17.597  0.00  0.00    +0.000 A 
ENDROOT
BRANCH   1  16
ATOM     16  O   UNL     1       6.432   7.032  18.131  0.00  0.00    +0.000 OA
BRANCH  16  18
ATOM     17  C   UNL     1       7.924   5.700  19.471  0.00  0.00    +0.000 C 
ATOM     18  C   UNL     1       7.810   6.813  18.445  0.00  0.00    +0.000 C 
ENDBRANCH  16  18
ENDBRANCH   1  16
BRANCH   3  19
ATOM     19  O   UNL     1       6.549   4.652  13.987  0.00  0.00    +0.000 OA
BRANCH  19  20
ATOM     20  C   UNL     1       6.429   3.314  13.508  0.00  0.00    +0.000 C 
BRANCH  20  21
ATOM     21  C   UNL     1       6.043   3.377  12.063  0.00  0.00    +0.000 C 
ATOM     22  C   UNL     1       5.405   2.193  11.381  0.00  0.00    +0.000 C 
ATOM     23  O   UNL     1       4.634   3.324  11.810  0.00  0.00    +0.000 OA
ENDBRANCH  20  21
ENDBRANCH  19  20
ENDBRANCH   3  19
TORSDOF 5
ENDMDL
MODEL 7
REMARK VINA RESULT:      -7.2      3.066      6.431
REMARK  Name = 
REMARK  6 active torsions:
REMARK  status: ('A' for Active; 'I' for Inactive)
REMARK    1  A    between atoms: C_1  and  C_2
REMARK    2  A    between atoms: C_2  and  O_3
REMARK    3  A    between atoms: O_3  and  C_4
REMARK    4  A    between atoms: C_6  and  O_7
REMARK    5  A    between atoms: O_7  and  C_8
REMARK    6  A    between atoms: C_8  and  C_9
REMARK                            x       y       z     vdW  Elec       q    Type
REMARK                         _______ _______ _______ _____ _____    ______ ____
ROOT
ATOM      1  C   UNL     1       1.587   4.578  19.735  0.00  0.00    +0.000 A 
ATOM      2  C   UNL     1       1.104   5.563  20.619  0.00  0.00    +0.000 A 
ATOM      3  C   UNL     1       1.538   6.886  20.531  0.00  0.00    +0.000 A 
ATOM      4  C   UNL     1       2.475   7.228  19.556  0.00  0.00    +0.000 A 
ATOM      5  C   UNL     1       2.950   6.268  18.660  0.00  0.00    +0.000 A 
ATOM      6  O   UNL     1       3.893   6.715  17.761  0.00  0.00    +0.000 OA
ATOM      7  C   UNL     1       4.544   5.779  17.000  0.00  0.00    +0.000 A 
ATOM      8  C   UNL     1       5.674   6.194  16.295  0.00  0.00    +0.000 A 
ATOM      9  C   UNL     1       6.373   5.282  15.497  0.00  0.00    +0.000 A 
ATOM     10  C   UNL     1       5.948   3.955  15.408  0.00  0.00    +0.000 A 
ATOM     11  C   UNL     1       4.812   3.543  16.100  0.00  0.00    +0.000 A 
ATOM     12  C   UNL     1       4.114   4.464  16.885  0.00  0.00    +0.000 A 
ATOM     13  C   UNL     1       2.893   4.078  17.596  0.00  0.00    +0.000 A 
ATOM     14  O   UNL     1       2.272   3.089  17.232  0.00  0.00    +0.000 OA
ATOM     15  C   UNL     1       2.467   4.953  18.708  0.00  0.00    +0.000 A 
ENDROOT
BRANCH   1  16
ATOM     16  O   UNL     1       1.080   3.333  20.004  0.00  0.00    +0.000 OA
BRANCH  16  18
ATOM     17  C   UNL     1       2.805   2.534  21.482  0.00  0.00    +0.000 C 
ATOM     18  C   UNL     1       1.317   2.780  21.302  0.00  0.00    +0.000 C 
ENDBRANCH  16  18
ENDBRANCH   1  16
BRANCH   3  19
ATOM     19  O   UNL     1       1.116   7.934  21.300  0.00  0.00    +0.000 OA
BRANCH  19  20
ATOM     20  C   UNL     1       1.094   9.227  20.697  0.00  0.00    +0.000 C 
BRANCH  20  21
ATOM     21  C   UNL     1      -0.324   9.708  20.693  0.00  0.00    +0.000 C 
ATOM     22  C   UNL     1      -0.659  11.121  20.289  0.00  0.00    +0.000 C 
ATOM     23  O   UNL     1      -0.857  10.013  19.399  0.00  0.00    +0.000 OA
ENDBRANCH  20  21
ENDBRANCH  19  20
ENDBRANCH   3  19
TORSDOF 5
ENDMDL
MODEL 8
REMARK VINA RESULT:      -7.2      2.924      5.152
REMARK  Name = 
REMARK  6 active torsions:
REMARK  status: ('A' for Active; 'I' for Inactive)
REMARK    1  A    between atoms: C_1  and  C_2
REMARK    2  A    between atoms: C_2  and  O_3
REMARK    3  A    between atoms: O_3  and  C_4
REMARK    4  A    between atoms: C_6  and  O_7
REMARK    5  A    between atoms: O_7  and  C_8
REMARK    6  A    between atoms: C_8  and  C_9
REMARK                            x       y       z     vdW  Elec       q    Type
REMARK                         _______ _______ _______ _____ _____    ______ ____
ROOT
ATOM      1  C   UNL     1       3.387   4.002  18.761  0.00  0.00    +0.000 A 
ATOM      2  C   UNL     1       4.216   3.393  17.797  0.00  0.00    +0.000 A 
ATOM      3  C   UNL     1       4.810   4.141  16.781  0.00  0.00    +0.000 A 
ATOM      4  C   UNL     1       4.563   5.512  16.716  0.00  0.00    +0.000 A 
ATOM      5  C   UNL     1       3.758   6.134  17.673  0.00  0.00    +0.000 A 
ATOM      6  O   UNL     1       3.563   7.486  17.491  0.00  0.00    +0.000 OA
ATOM      7  C   UNL     1       2.621   8.106  18.271  0.00  0.00    +0.000 A 
ATOM      8  C   UNL     1       2.232   9.396  17.910  0.00  0.00    +0.000 A 
ATOM      9  C   UNL     1       1.280  10.078  18.674  0.00  0.00    +0.000 A 
ATOM     10  C   UNL     1       0.713   9.471  19.796  0.00  0.00    +0.000 A 
ATOM     11  C   UNL     1       1.111   8.189  20.167  0.00  0.00    +0.000 A 
ATOM     12  C   UNL     1       2.071   7.520  19.404  0.00  0.00    +0.000 A 
ATOM     13  C   UNL     1       2.543   6.187  19.784  0.00  0.00    +0.000 A 
ATOM     14  O   UNL     1       2.398   5.802  20.935  0.00  0.00    +0.000 OA
ATOM     15  C   UNL     1       3.213   5.394  18.731  0.00  0.00    +0.000 A 
ENDROOT
BRANCH   1  16
ATOM     16  O   UNL     1       2.862   3.101  19.650  0.00  0.00    +0.000 OA
BRANCH  16  18
ATOM     17  C   UNL     1       0.672   2.593  18.787  0.00  0.00    +0.000 C 
ATOM     18  C   UNL     1       2.046   2.046  19.132  0.00  0.00    +0.000 C 
ENDBRANCH  16  18
ENDBRANCH   1  16
BRANCH   3  19
ATOM     19  O   UNL     1       5.661   3.675  15.819  0.00  0.00    +0.000 OA
BRANCH  19  20
ATOM     20  C   UNL     1       5.683   4.364  14.569  0.00  0.00    +0.000 C 
BRANCH  20  21
ATOM     21  C   UNL     1       7.087   4.329  14.051  0.00  0.00    +0.000 C 
ATOM     22  C   UNL     1       7.503   5.194  12.889  0.00  0.00    +0.000 C 
ATOM     23  O   UNL     1       7.833   5.537  14.242  0.00  0.00    +0.000 OA
ENDBRANCH  20  21
ENDBRANCH  19  20
ENDBRANCH   3  19
TORSDOF 5
ENDMDL
MODEL 9
REMARK VINA RESULT:      -7.1      2.825      5.255
REMARK  Name = 
REMARK  6 active torsions:
REMARK  status: ('A' for Active; 'I' for Inactive)
REMARK    1  A    between atoms: C_1  and  C_2
REMARK    2  A    between atoms: C_2  and  O_3
REMARK    3  A    between atoms: O_3  and  C_4
REMARK    4  A    between atoms: C_6  and  O_7
REMARK    5  A    between atoms: O_7  and  C_8
REMARK    6  A    between atoms: C_8  and  C_9
REMARK                            x       y       z     vdW  Elec       q    Type
REMARK                         _______ _______ _______ _____ _____    ______ ____
ROOT
ATOM      1  C   UNL     1       4.266   4.078  17.717  0.00  0.00    +0.000 A 
ATOM      2  C   UNL     1       5.023   3.917  16.539  0.00  0.00    +0.000 A 
ATOM      3  C   UNL     1       5.301   5.002  15.707  0.00  0.00    +0.000 A 
ATOM      4  C   UNL     1       4.806   6.260  16.047  0.00  0.00    +0.000 A 
ATOM      5  C   UNL     1       4.069   6.440  17.219  0.00  0.00    +0.000 A 
ATOM      6  O   UNL     1       3.608   7.721  17.436  0.00  0.00    +0.000 OA
ATOM      7  C   UNL     1       2.710   7.913  18.453  0.00  0.00    +0.000 A 
ATOM      8  C   UNL     1       2.043   9.137  18.502  0.00  0.00    +0.000 A 
ATOM      9  C   UNL     1       1.121   9.389  19.523  0.00  0.00    +0.000 A 
ATOM     10  C   UNL     1       0.860   8.418  20.492  0.00  0.00    +0.000 A 
ATOM     11  C   UNL     1       1.536   7.201  20.452  0.00  0.00    +0.000 A 
ATOM     12  C   UNL     1       2.463   6.962  19.436  0.00  0.00    +0.000 A 
ATOM     13  C   UNL     1       3.221   5.711  19.383  0.00  0.00    +0.000 A 
ATOM     14  O   UNL     1       3.335   5.033  20.395  0.00  0.00    +0.000 OA
ATOM     15  C   UNL     1       3.843   5.364  18.088  0.00  0.00    +0.000 A 
ENDROOT
BRANCH   1  16
ATOM     16  O   UNL     1       4.061   2.895  18.378  0.00  0.00    +0.000 OA
BRANCH  16  18
ATOM     17  C   UNL     1       1.873   2.116  19.017  0.00  0.00    +0.000 C 
ATOM     18  C   UNL     1       2.964   2.076  17.961  0.00  0.00    +0.000 C 
ENDBRANCH  16  18
ENDBRANCH   1  16
BRANCH   3  19
ATOM     19  O   UNL     1       6.055   4.980  14.568  0.00  0.00    +0.000 OA
BRANCH  19  20
ATOM     20  C   UNL     1       6.380   3.705  14.017  0.00  0.00    +0.000 C 
BRANCH  20  21
ATOM     21  C   UNL     1       6.129   3.764  12.542  0.00  0.00    +0.000 C 
ATOM     22  C   UNL     1       5.802   2.516  11.763  0.00  0.00    +0.000 C 
ATOM     23  O   UNL     1       4.788   3.457  12.144  0.00  0.00    +0.000 OA
ENDBRANCH  20  21
ENDBRANCH  19  20
ENDBRANCH   3  19
TORSDOF 5
ENDMDL
