MODEL 1
REMARK VINA RESULT:      -6.9      0.000      0.000
REMARK  Name = 
REMARK  8 active torsions:
REMARK  status: ('A' for Active; 'I' for Inactive)
REMARK    1  A    between atoms: C_1  and  C_2
REMARK    2  A    between atoms: C_2  and  C_3
REMARK    3  A    between atoms: C_3  and  C_4
REMARK    4  A    between atoms: C_3  and  C_5
REMARK    5  A    between atoms: C_3  and  C_6
REMARK    6  A    between atoms: N_8  and  C_9
REMARK    7  A    between atoms: C_9  and  C_10
REMARK    8  A    between atoms: C_9  and  C_11
REMARK                            x       y       z     vdW  Elec       q    Type
REMARK                         _______ _______ _______ _____ _____    ______ ____
ROOT
ATOM      1  C   UNL     1       5.577   5.752  18.479  0.00  0.00    +0.000 C 
ATOM      2  O   UNL     1       5.866   5.428  19.628  0.00  0.00    +0.000 OA
ATOM      3  N   UNL     1       4.327   6.213  18.134  0.00  0.00    +0.000 N 
ATOM      4  H   UNL     1       4.114   6.382  17.163  0.00  0.00    +0.000 HD
ENDROOT
BRANCH   1   5
ATOM      5  C   UNL     1       6.596   5.693  17.319  0.00  0.00    +0.000 C 
ATOM      6  C   UNL     1       7.609   4.563  17.589  0.00  0.00    +0.000 C 
ATOM      7  C   UNL     1       7.376   7.022  17.276  0.00  0.00    +0.000 C 
BRANCH   5   9
ATOM      8  C   UNL     1       5.740   4.016  15.538  0.00  0.00    +0.000 C 
ATOM      9  C   UNL     1       5.892   5.474  15.957  0.00  0.00    +0.000 C 
ENDBRANCH   5   9
ENDBRANCH   1   5
BRANCH   3  10
ATOM     10  C   UNL     1       3.220   6.260  19.079  0.00  0.00    +0.000 C 
ATOM     11  C   UNL     1       2.344   7.481  18.803  0.00  0.00    +0.000 C 
BRANCH  10  12
ATOM     12  C   UNL     1       2.432   4.963  19.025  0.00  0.00    +0.000 A 
ATOM     13  C   UNL     1       1.609   4.603  20.106  0.00  0.00    +0.000 A 
ATOM     14  C   UNL     1       0.898   3.401  20.093  0.00  0.00    +0.000 A 
ATOM     15  C   UNL     1       1.001   2.540  19.003  0.00  0.00    +0.000 A 
ATOM     16  C   UNL     1       1.805   2.885  17.919  0.00  0.00    +0.000 A 
ATOM     17  C   UNL     1       2.513   4.090  17.927  0.00  0.00    +0.000 A 
ENDBRANCH  10  12
ENDBRANCH   3  10
TORSDOF 4
ENDMDL
MODEL 2
REMARK VINA RESULT:      -6.8      0.561      1.935
REMARK  Name = 
REMARK  8 active torsions:
REMARK  status: ('A' for Active; 'I' for Inactive)
REMARK    1  A    between atoms: C_1  and  C_2
REMARK    2  A    between atoms: C_2  and  C_3
REMARK    3  A    between atoms: C_3  and  C_4
REMARK    4  A    between atoms: C_3  and  C_5
REMARK    5  A    between atoms: C_3  and  C_6
REMARK    6  A    between atoms: N_8  and  C_9
REMARK    7  A    between atoms: C_9  and  C_10
REMARK    8  A    between atoms: C_9  and  C_11
REMARK                            x       y       z     vdW  Elec       q    Type
REMARK                         _______ _______ _______ _____ _____    ______ ____
ROOT
ATOM      1  C   UNL     1       5.494   5.637  18.449  0.00  0.00    +0.000 C 
ATOM      2  O   UNL     1       5.737   5.441  19.636  0.00  0.00    +0.000 OA
ATOM      3  N   UNL     1       4.300   6.169  18.018  0.00  0.00    +0.000 N 
ATOM      4  H   UNL     1       4.115   6.229  17.028  0.00  0.00    +0.000 HD
ENDROOT
BRANCH   1   5
ATOM      5  C   UNL     1       6.513   5.324  17.330  0.00  0.00    +0.000 C 
ATOM      6  C   UNL     1       5.857   4.398  16.288  0.00  0.00    +0.000 C 
ATOM      7  C   UNL     1       7.708   4.567  17.945  0.00  0.00    +0.000 C 
BRANCH   5   9
ATOM      8  C   UNL     1       7.664   7.631  17.602  0.00  0.00    +0.000 C 
ATOM      9  C   UNL     1       7.027   6.620  16.654  0.00  0.00    +0.000 C 
ENDBRANCH   5   9
ENDBRANCH   1   5
BRANCH   3  10
ATOM     10  C   UNL     1       3.195   6.451  18.923  0.00  0.00    +0.000 C 
ATOM     11  C   UNL     1       2.352   7.604  18.382  0.00  0.00    +0.000 C 
BRANCH  10  12
ATOM     12  C   UNL     1       2.372   5.193  19.148  0.00  0.00    +0.000 A 
ATOM     13  C   UNL     1       2.052   4.367  18.057  0.00  0.00    +0.000 A 
ATOM     14  C   UNL     1       1.272   3.222  18.233  0.00  0.00    +0.000 A 
ATOM     15  C   UNL     1       0.797   2.888  19.499  0.00  0.00    +0.000 A 
ATOM     16  C   UNL     1       1.113   3.691  20.592  0.00  0.00    +0.000 A 
ATOM     17  C   UNL     1       1.898   4.834  20.420  0.00  0.00    +0.000 A 
ENDBRANCH  10  12
ENDBRANCH   3  10
TORSDOF 4
ENDMDL
MODEL 3
REMARK VINA RESULT:      -6.8      0.451      1.278
REMARK  Name = 
REMARK  8 active torsions:
REMARK  status: ('A' for Active; 'I' for Inactive)
REMARK    1  A    between atoms: C_1  and  C_2
REMARK    2  A    between atoms: C_2  and  C_3
REMARK    3  A    between atoms: C_3  and  C_4
REMARK    4  A    between atoms: C_3  and  C_5
REMARK    5  A    between atoms: C_3  and  C_6
REMARK    6  A    between atoms: N_8  and  C_9
REMARK    7  A    between atoms: C_9  and  C_10
REMARK    8  A    between atoms: C_9  and  C_11
REMARK                            x       y       z     vdW  Elec       q    Type
REMARK                         _______ _______ _______ _____ _____    ______ ____
ROOT
ATOM      1  C   UNL     1       5.673   5.696  18.577  0.00  0.00    +0.000 C 
ATOM      2  O   UNL     1       6.142   5.443  19.684  0.00  0.00    +0.000 OA
ATOM      3  N   UNL     1       4.332   5.934  18.381  0.00  0.00    +0.000 N 
ATOM      4  H   UNL     1       3.984   6.050  17.441  0.00  0.00    +0.000 HD
ENDROOT
BRANCH   1   5
ATOM      5  C   UNL     1       6.549   5.794  17.308  0.00  0.00    +0.000 C 
ATOM      6  C   UNL     1       7.490   4.575  17.244  0.00  0.00    +0.000 C 
ATOM      7  C   UNL     1       7.424   7.059  17.405  0.00  0.00    +0.000 C 
BRANCH   5   9
ATOM      8  C   UNL     1       5.529   4.561  15.268  0.00  0.00    +0.000 C 
ATOM      9  C   UNL     1       5.682   5.875  16.026  0.00  0.00    +0.000 C 
ENDBRANCH   5   9
ENDBRANCH   1   5
BRANCH   3  10
ATOM     10  C   UNL     1       3.348   5.806  19.447  0.00  0.00    +0.000 C 
ATOM     11  C   UNL     1       2.478   7.060  19.512  0.00  0.00    +0.000 C 
BRANCH  10  12
ATOM     12  C   UNL     1       2.526   4.545  19.250  0.00  0.00    +0.000 A 
ATOM     13  C   UNL     1       2.786   3.709  18.150  0.00  0.00    +0.000 A 
ATOM     14  C   UNL     1       2.024   2.560  17.930  0.00  0.00    +0.000 A 
ATOM     15  C   UNL     1       0.990   2.230  18.803  0.00  0.00    +0.000 A 
ATOM     16  C   UNL     1       0.725   3.041  19.903  0.00  0.00    +0.000 A 
ATOM     17  C   UNL     1       1.490   4.189  20.129  0.00  0.00    +0.000 A 
ENDBRANCH  10  12
ENDBRANCH   3  10
TORSDOF 4
ENDMDL
MODEL 4
REMARK VINA RESULT:      -6.7      0.786      1.811
REMARK  Name = 
REMARK  8 active torsions:
REMARK  status: ('A' for Active; 'I' for Inactive)
REMARK    1  A    between atoms: C_1  and  C_2
REMARK    2  A    between atoms: C_2  and  C_3
REMARK    3  A    between atoms: C_3  and  C_4
REMARK    4  A    between atoms: C_3  and  C_5
REMARK    5  A    between atoms: C_3  and  C_6
REMARK    6  A    between atoms: N_8  and  C_9
REMARK    7  A    between atoms: C_9  and  C_10
REMARK    8  A    between atoms: C_9  and  C_11
REMARK                            x       y       z     vdW  Elec       q    Type
REMARK                         _______ _______ _______ _____ _____    ______ ____
ROOT
ATOM      1  C   UNL     1       5.143   5.723  18.232  0.00  0.00    +0.000 C 
ATOM      2  O   UNL     1       5.600   5.237  19.263  0.00  0.00    +0.000 OA
ATOM      3  N   UNL     1       3.917   6.345  18.189  0.00  0.00    +0.000 N 
ATOM      4  H   UNL     1       3.548   6.650  17.301  0.00  0.00    +0.000 HD
ENDROOT
BRANCH   1   5
ATOM      5  C   UNL     1       5.913   5.700  16.892  0.00  0.00    +0.000 C 
ATOM      6  C   UNL     1       5.170   6.576  15.864  0.00  0.00    +0.000 C 
ATOM      7  C   UNL     1       5.930   4.255  16.354  0.00  0.00    +0.000 C 
BRANCH   5   9
ATOM      8  C   UNL     1       7.512   7.645  17.510  0.00  0.00    +0.000 C 
ATOM      9  C   UNL     1       7.371   6.193  17.069  0.00  0.00    +0.000 C 
ENDBRANCH   5   9
ENDBRANCH   1   5
BRANCH   3  10
ATOM     10  C   UNL     1       3.020   6.391  19.336  0.00  0.00    +0.000 C 
ATOM     11  C   UNL     1       2.127   7.629  19.257  0.00  0.00    +0.000 C 
BRANCH  10  12
ATOM     12  C   UNL     1       2.215   5.105  19.420  0.00  0.00    +0.000 A 
ATOM     13  C   UNL     1       1.845   4.598  20.677  0.00  0.00    +0.000 A 
ATOM     14  C   UNL     1       1.131   3.402  20.782  0.00  0.00    +0.000 A 
ATOM     15  C   UNL     1       0.780   2.695  19.634  0.00  0.00    +0.000 A 
ATOM     16  C   UNL     1       1.131   3.188  18.380  0.00  0.00    +0.000 A 
ATOM     17  C   UNL     1       1.840   4.388  18.272  0.00  0.00    +0.000 A 
ENDBRANCH  10  12
ENDBRANCH   3  10
TORSDOF 4
ENDMDL
MODEL 5
REMARK VINA RESULT:      -6.7      1.948      5.629
REMARK  Name = 
REMARK  8 active torsions:
REMARK  status: ('A' for Active; 'I' for Inactive)
REMARK    1  A    between atoms: C_1  and  C_2
REMARK    2  A    between atoms: C_2  and  C_3
REMARK    3  A    between atoms: C_3  and  C_4
REMARK    4  A    between atoms: C_3  and  C_5
REMARK    5  A    between atoms: C_3  and  C_6
REMARK    6  A    between atoms: N_8  and  C_9
REMARK    7  A    between atoms: C_9  and  C_10
REMARK    8  A    between atoms: C_9  and  C_11
REMARK                            x       y       z     vdW  Elec       q    Type
REMARK                         _______ _______ _______ _____ _____    ______ ____
ROOT
ATOM      1  C   UNL     1       2.019   4.121  18.291  0.00  0.00    +0.000 C 
ATOM      2  O   UNL     1       1.420   4.270  17.229  0.00  0.00    +0.000 OA
ATOM      3  N   UNL     1       3.050   4.945  18.679  0.00  0.00    +0.000 N 
ATOM      4  H   UNL     1       3.567   4.728  19.518  0.00  0.00    +0.000 HD
ENDROOT
BRANCH   1   5
ATOM      5  C   UNL     1       1.654   3.009  19.300  0.00  0.00    +0.000 C 
ATOM      6  C   UNL     1       2.868   2.077  19.490  0.00  0.00    +0.000 C 
ATOM      7  C   UNL     1       0.503   2.166  18.715  0.00  0.00    +0.000 C 
BRANCH   5   9
ATOM      8  C   UNL     1       2.003   3.112  21.866  0.00  0.00    +0.000 C 
ATOM      9  C   UNL     1       1.209   3.601  20.660  0.00  0.00    +0.000 C 
ENDBRANCH   5   9
ENDBRANCH   1   5
BRANCH   3  10
ATOM     10  C   UNL     1       3.580   5.995  17.821  0.00  0.00    +0.000 C 
ATOM     11  C   UNL     1       2.825   7.302  18.060  0.00  0.00    +0.000 C 
BRANCH  10  12
ATOM     12  C   UNL     1       5.075   6.146  18.043  0.00  0.00    +0.000 A 
ATOM     13  C   UNL     1       5.824   6.981  17.197  0.00  0.00    +0.000 A 
ATOM     14  C   UNL     1       7.205   7.113  17.362  0.00  0.00    +0.000 A 
ATOM     15  C   UNL     1       7.858   6.410  18.372  0.00  0.00    +0.000 A 
ATOM     16  C   UNL     1       7.130   5.584  19.225  0.00  0.00    +0.000 A 
ATOM     17  C   UNL     1       5.747   5.455  19.066  0.00  0.00    +0.000 A 
ENDBRANCH  10  12
ENDBRANCH   3  10
TORSDOF 4
ENDMDL
MODEL 6
REMARK VINA RESULT:      -6.6      0.590      1.016
REMARK  Name = 
REMARK  8 active torsions:
REMARK  status: ('A' for Active; 'I' for Inactive)
REMARK    1  A    between atoms: C_1  and  C_2
REMARK    2  A    between atoms: C_2  and  C_3
REMARK    3  A    between atoms: C_3  and  C_4
REMARK    4  A    between atoms: C_3  and  C_5
REMARK    5  A    between atoms: C_3  and  C_6
REMARK    6  A    between atoms: N_8  and  C_9
REMARK    7  A    between atoms: C_9  and  C_10
REMARK    8  A    between atoms: C_9  and  C_11
REMARK                            x       y       z     vdW  Elec       q    Type
REMARK                         _______ _______ _______ _____ _____    ______ ____
ROOT
ATOM      1  C   UNL     1       5.339   5.842  18.486  0.00  0.00    +0.000 C 
ATOM      2  O   UNL     1       5.810   5.427  19.541  0.00  0.00    +0.000 OA
ATOM      3  N   UNL     1       4.042   6.290  18.382  0.00  0.00    +0.000 N 
ATOM      4  H   UNL     1       3.676   6.539  17.475  0.00  0.00    +0.000 HD
ENDROOT
BRANCH   1   5
ATOM      5  C   UNL     1       6.165   5.921  17.183  0.00  0.00    +0.000 C 
ATOM      6  C   UNL     1       7.340   6.898  17.384  0.00  0.00    +0.000 C 
ATOM      7  C   UNL     1       5.271   6.488  16.062  0.00  0.00    +0.000 C 
BRANCH   5   9
ATOM      8  C   UNL     1       5.824   3.799  15.734  0.00  0.00    +0.000 C 
ATOM      9  C   UNL     1       6.689   4.527  16.757  0.00  0.00    +0.000 C 
ENDBRANCH   5   9
ENDBRANCH   1   5
BRANCH   3  10
ATOM     10  C   UNL     1       3.095   6.216  19.486  0.00  0.00    +0.000 C 
ATOM     11  C   UNL     1       2.217   7.466  19.512  0.00  0.00    +0.000 C 
BRANCH  10  12
ATOM     12  C   UNL     1       2.277   4.940  19.387  0.00  0.00    +0.000 A 
ATOM     13  C   UNL     1       1.717   4.381  20.547  0.00  0.00    +0.000 A 
ATOM     14  C   UNL     1       0.986   3.192  20.487  0.00  0.00    +0.000 A 
ATOM     15  C   UNL     1       0.808   2.543  19.267  0.00  0.00    +0.000 A 
ATOM     16  C   UNL     1       1.348   3.088  18.105  0.00  0.00    +0.000 A 
ATOM     17  C   UNL     1       2.075   4.281  18.162  0.00  0.00    +0.000 A 
ENDBRANCH  10  12
ENDBRANCH   3  10
TORSDOF 4
ENDMDL
MODEL 7
REMARK VINA RESULT:      -6.6      0.570      1.576
REMARK  Name = 
REMARK  8 active torsions:
REMARK  status: ('A' for Active; 'I' for Inactive)
REMARK    1  A    between atoms: C_1  and  C_2
REMARK    2  A    between atoms: C_2  and  C_3
REMARK    3  A    between atoms: C_3  and  C_4
REMARK    4  A    between atoms: C_3  and  C_5
REMARK    5  A    between atoms: C_3  and  C_6
REMARK    6  A    between atoms: N_8  and  C_9
REMARK    7  A    between atoms: C_9  and  C_10
REMARK    8  A    between atoms: C_9  and  C_11
REMARK                            x       y       z     vdW  Elec       q    Type
REMARK                         _______ _______ _______ _____ _____    ______ ____
ROOT
ATOM      1  C   UNL     1       5.515   5.787  18.498  0.00  0.00    +0.000 C 
ATOM      2  O   UNL     1       6.031   5.414  19.548  0.00  0.00    +0.000 OA
ATOM      3  N   UNL     1       4.176   6.087  18.399  0.00  0.00    +0.000 N 
ATOM      4  H   UNL     1       3.784   6.305  17.495  0.00  0.00    +0.000 HD
ENDROOT
BRANCH   1   5
ATOM      5  C   UNL     1       6.327   5.979  17.197  0.00  0.00    +0.000 C 
ATOM      6  C   UNL     1       7.424   7.035  17.433  0.00  0.00    +0.000 C 
ATOM      7  C   UNL     1       5.386   6.517  16.100  0.00  0.00    +0.000 C 
BRANCH   5   9
ATOM      8  C   UNL     1       6.129   3.880  15.689  0.00  0.00    +0.000 C 
ATOM      9  C   UNL     1       6.953   4.645  16.719  0.00  0.00    +0.000 C 
ENDBRANCH   5   9
ENDBRANCH   1   5
BRANCH   3  10
ATOM     10  C   UNL     1       3.244   5.889  19.501  0.00  0.00    +0.000 C 
ATOM     11  C   UNL     1       2.337   7.109  19.648  0.00  0.00    +0.000 C 
BRANCH  10  12
ATOM     12  C   UNL     1       2.456   4.607  19.294  0.00  0.00    +0.000 A 
ATOM     13  C   UNL     1       2.701   3.816  18.159  0.00  0.00    +0.000 A 
ATOM     14  C   UNL     1       1.968   2.648  17.931  0.00  0.00    +0.000 A 
ATOM     15  C   UNL     1       0.979   2.257  18.830  0.00  0.00    +0.000 A 
ATOM     16  C   UNL     1       0.730   3.025  19.965  0.00  0.00    +0.000 A 
ATOM     17  C   UNL     1       1.465   4.191  20.199  0.00  0.00    +0.000 A 
ENDBRANCH  10  12
ENDBRANCH   3  10
TORSDOF 4
ENDMDL
MODEL 8
REMARK VINA RESULT:      -6.5      1.863      5.445
REMARK  Name = 
REMARK  8 active torsions:
REMARK  status: ('A' for Active; 'I' for Inactive)
REMARK    1  A    between atoms: C_1  and  C_2
REMARK    2  A    between atoms: C_2  and  C_3
REMARK    3  A    between atoms: C_3  and  C_4
REMARK    4  A    between atoms: C_3  and  C_5
REMARK    5  A    between atoms: C_3  and  C_6
REMARK    6  A    between atoms: N_8  and  C_9
REMARK    7  A    between atoms: C_9  and  C_10
REMARK    8  A    between atoms: C_9  and  C_11
REMARK                            x       y       z     vdW  Elec       q    Type
REMARK                         _______ _______ _______ _____ _____    ______ ____
ROOT
ATOM      1  C   UNL     1       2.369   3.944  18.121  0.00  0.00    +0.000 C 
ATOM      2  O   UNL     1       2.291   3.696  16.920  0.00  0.00    +0.000 OA
ATOM      3  N   UNL     1       2.913   5.114  18.599  0.00  0.00    +0.000 N 
ATOM      4  H   UNL     1       3.034   5.231  19.594  0.00  0.00    +0.000 HD
ENDROOT
BRANCH   1   5
ATOM      5  C   UNL     1       1.841   2.976  19.204  0.00  0.00    +0.000 C 
ATOM      6  C   UNL     1       2.918   1.916  19.506  0.00  0.00    +0.000 C 
ATOM      7  C   UNL     1       0.602   2.243  18.653  0.00  0.00    +0.000 C 
BRANCH   5   9
ATOM      8  C   UNL     1       1.806   3.017  21.795  0.00  0.00    +0.000 C 
ATOM      9  C   UNL     1       1.449   3.733  20.497  0.00  0.00    +0.000 C 
ENDBRANCH   5   9
ENDBRANCH   1   5
BRANCH   3  10
ATOM     10  C   UNL     1       3.530   6.105  17.729  0.00  0.00    +0.000 C 
ATOM     11  C   UNL     1       2.869   7.468  17.932  0.00  0.00    +0.000 C 
BRANCH  10  12
ATOM     12  C   UNL     1       5.029   6.152  17.972  0.00  0.00    +0.000 A 
ATOM     13  C   UNL     1       5.583   5.429  19.042  0.00  0.00    +0.000 A 
ATOM     14  C   UNL     1       6.954   5.479  19.304  0.00  0.00    +0.000 A 
ATOM     15  C   UNL     1       7.790   6.254  18.505  0.00  0.00    +0.000 A 
ATOM     16  C   UNL     1       7.259   6.969  17.434  0.00  0.00    +0.000 A 
ATOM     17  C   UNL     1       5.889   6.916  17.165  0.00  0.00    +0.000 A 
ENDBRANCH  10  12
ENDBRANCH   3  10
TORSDOF 4
ENDMDL
MODEL 9
REMARK VINA RESULT:      -6.5      1.494      5.684
REMARK  Name = 
REMARK  8 active torsions:
REMARK  status: ('A' for Active; 'I' for Inactive)
REMARK    1  A    between atoms: C_1  and  C_2
REMARK    2  A    between atoms: C_2  and  C_3
REMARK    3  A    between atoms: C_3  and  C_4
REMARK    4  A    between atoms: C_3  and  C_5
REMARK    5  A    between atoms: C_3  and  C_6
REMARK    6  A    between atoms: N_8  and  C_9
REMARK    7  A    between atoms: C_9  and  C_10
REMARK    8  A    between atoms: C_9  and  C_11
REMARK                            x       y       z     vdW  Elec       q    Type
REMARK                         _______ _______ _______ _____ _____    ______ ____
ROOT
ATOM      1  C   UNL     1       3.967   3.695  18.694  0.00  0.00    +0.000 C 
ATOM      2  O   UNL     1       4.741   3.051  19.396  0.00  0.00    +0.000 OA
ATOM      3  N   UNL     1       4.331   4.200  17.467  0.00  0.00    +0.000 N 
ATOM      4  H   UNL     1       3.687   4.797  16.968  0.00  0.00    +0.000 HD
ENDROOT
BRANCH   1   5
ATOM      5  C   UNL     1       2.507   3.980  19.113  0.00  0.00    +0.000 C 
ATOM      6  C   UNL     1       1.699   4.418  17.875  0.00  0.00    +0.000 C 
ATOM      7  C   UNL     1       2.498   5.149  20.118  0.00  0.00    +0.000 C 
BRANCH   5   9
ATOM      8  C   UNL     1       1.473   2.915  21.238  0.00  0.00    +0.000 C 
ATOM      9  C   UNL     1       1.855   2.739  19.772  0.00  0.00    +0.000 C 
ENDBRANCH   5   9
ENDBRANCH   1   5
BRANCH   3  10
ATOM     10  C   UNL     1       5.687   4.098  16.946  0.00  0.00    +0.000 C 
ATOM     11  C   UNL     1       5.659   3.990  15.423  0.00  0.00    +0.000 C 
BRANCH  10  12
ATOM     12  C   UNL     1       6.519   5.275  17.426  0.00  0.00    +0.000 A 
ATOM     13  C   UNL     1       7.384   5.114  18.521  0.00  0.00    +0.000 A 
ATOM     14  C   UNL     1       8.138   6.189  19.000  0.00  0.00    +0.000 A 
ATOM     15  C   UNL     1       8.036   7.438  18.394  0.00  0.00    +0.000 A 
ATOM     16  C   UNL     1       7.191   7.612  17.301  0.00  0.00    +0.000 A 
ATOM     17  C   UNL     1       6.440   6.538  16.815  0.00  0.00    +0.000 A 
ENDBRANCH  10  12
ENDBRANCH   3  10
TORSDOF 4
ENDMDL
