MODEL 1
REMARK VINA RESULT:      -8.3      0.000      0.000
REMARK  Name = 
REMARK  6 active torsions:
REMARK  status: ('A' for Active; 'I' for Inactive)
REMARK    1  A    between atoms: C_2  and  C_17
REMARK    2  A    between atoms: N_3  and  C_4
REMARK    3  A    between atoms: C_4  and  C_5
REMARK    4  A    between atoms: C_4  and  C_12
REMARK    5  A    between atoms: C_5  and  C_6
REMARK    6  A    between atoms: C_21  and  C_22
REMARK                            x       y       z     vdW  Elec       q    Type
REMARK                         _______ _______ _______ _____ _____    ______ ____
ROOT
ATOM      1  C   UNL     1       4.595   4.413  17.835  0.00  0.00    +0.000 C 
ENDROOT
BRANCH   1   2
ATOM      2  C   UNL     1       5.646   4.530  16.754  0.00  0.00    +0.000 A 
ATOM      3  N   UNL     1       5.344   4.720  15.421  0.00  0.00    +0.000 NA
ATOM      4  C   UNL     1       6.527   4.905  14.896  0.00  0.00    +0.000 A 
ATOM      5  O   UNL     1       7.548   4.764  15.776  0.00  0.00    +0.000 OA
ATOM      6  N   UNL     1       6.966   4.501  17.018  0.00  0.00    +0.000 NA
ENDBRANCH   1   2
BRANCH   1   9
ATOM      7  O   UNL     1       3.642   5.858  20.034  0.00  0.00    +0.000 OA
ATOM      8  C   UNL     1       3.329   6.257  18.918  0.00  0.00    +0.000 C 
ATOM      9  N   UNL     1       3.720   5.601  17.784  0.00  0.00    +0.000 N 
ATOM     10  H   UNL     1       3.647   6.068  16.889  0.00  0.00    +0.000 HD
BRANCH   8  11
ATOM     11  C   UNL     1       2.597   7.504  18.747  0.00  0.00    +0.000 A 
ATOM     12  C   UNL     1       2.739   8.341  17.592  0.00  0.00    +0.000 A 
ATOM     13  C   UNL     1       1.892   9.404  17.751  0.00  0.00    +0.000 A 
ATOM     14  O   UNL     1       1.251   9.310  18.937  0.00  0.00    +0.000 OA
ATOM     15  C   UNL     1       1.695   8.178  19.569  0.00  0.00    +0.000 A 
BRANCH  15  16
ATOM     16  C   UNL     1       1.235   7.840  20.983  0.00  0.00    +0.000 C 
ATOM     17  C   UNL     1       1.347   8.933  22.037  0.00  0.00    +0.000 C 
ATOM     18  C   UNL     1       0.007   8.569  21.501  0.00  0.00    +0.000 C 
ENDBRANCH  15  16
ENDBRANCH   8  11
ENDBRANCH   1   9
BRANCH   1  19
ATOM     19  C   UNL     1       3.818   3.066  17.762  0.00  0.00    +0.000 C 
BRANCH  19  20
ATOM     20  C   UNL     1       2.918   2.840  18.958  0.00  0.00    +0.000 A 
ATOM     21  C   UNL     1       1.534   3.038  18.854  0.00  0.00    +0.000 A 
ATOM     22  C   UNL     1       0.738   3.054  19.996  0.00  0.00    +0.000 A 
ATOM     23  C   UNL     1       1.309   2.837  21.247  0.00  0.00    +0.000 A 
ATOM     24  C   UNL     1       2.671   2.560  21.351  0.00  0.00    +0.000 A 
ATOM     25  C   UNL     1       3.471   2.550  20.211  0.00  0.00    +0.000 A 
ENDBRANCH  19  20
ENDBRANCH   1  19
TORSDOF 6
ENDMDL
MODEL 2
REMARK VINA RESULT:      -8.0      1.986      5.747
REMARK  Name = 
REMARK  6 active torsions:
REMARK  status: ('A' for Active; 'I' for Inactive)
REMARK    1  A    between atoms: C_2  and  C_17
REMARK    2  A    between atoms: N_3  and  C_4
REMARK    3  A    between atoms: C_4  and  C_5
REMARK    4  A    between atoms: C_4  and  C_12
REMARK    5  A    between atoms: C_5  and  C_6
REMARK    6  A    between atoms: C_21  and  C_22
REMARK                            x       y       z     vdW  Elec       q    Type
REMARK                         _______ _______ _______ _____ _____    ______ ____
ROOT
ATOM      1  C   UNL     1       2.369   6.630  18.927  0.00  0.00    +0.000 C 
ENDROOT
BRANCH   1   2
ATOM      2  C   UNL     1       2.143   8.070  18.522  0.00  0.00    +0.000 A 
ATOM      3  N   UNL     1       1.444   8.973  19.296  0.00  0.00    +0.000 NA
ATOM      4  C   UNL     1       1.625  10.091  18.643  0.00  0.00    +0.000 A 
ATOM      5  O   UNL     1       2.310   9.946  17.481  0.00  0.00    +0.000 OA
ATOM      6  N   UNL     1       2.648   8.594  17.390  0.00  0.00    +0.000 NA
ENDBRANCH   1   2
BRANCH   1   9
ATOM      7  O   UNL     1       3.479   4.391  17.668  0.00  0.00    +0.000 OA
ATOM      8  C   UNL     1       4.254   5.209  18.149  0.00  0.00    +0.000 C 
ATOM      9  N   UNL     1       3.808   6.320  18.811  0.00  0.00    +0.000 N 
ATOM     10  H   UNL     1       4.449   7.081  18.992  0.00  0.00    +0.000 HD
BRANCH   8  11
ATOM     11  C   UNL     1       5.692   5.080  17.959  0.00  0.00    +0.000 A 
ATOM     12  C   UNL     1       6.652   5.590  18.893  0.00  0.00    +0.000 A 
ATOM     13  C   UNL     1       7.894   5.271  18.417  0.00  0.00    +0.000 A 
ATOM     14  O   UNL     1       7.784   4.625  17.237  0.00  0.00    +0.000 OA
ATOM     15  C   UNL     1       6.452   4.531  16.928  0.00  0.00    +0.000 A 
BRANCH  15  16
ATOM     16  C   UNL     1       5.997   3.939  15.598  0.00  0.00    +0.000 C 
ATOM     17  C   UNL     1       5.418   4.895  14.566  0.00  0.00    +0.000 C 
ATOM     18  C   UNL     1       6.782   4.338  14.361  0.00  0.00    +0.000 C 
ENDBRANCH  15  16
ENDBRANCH   8  11
ENDBRANCH   1   9
BRANCH   1  19
ATOM     19  C   UNL     1       1.776   6.311  20.331  0.00  0.00    +0.000 C 
BRANCH  19  20
ATOM     20  C   UNL     1       1.638   4.826  20.587  0.00  0.00    +0.000 A 
ATOM     21  C   UNL     1       2.412   4.199  21.575  0.00  0.00    +0.000 A 
ATOM     22  C   UNL     1       2.456   2.810  21.658  0.00  0.00    +0.000 A 
ATOM     23  C   UNL     1       1.701   2.035  20.781  0.00  0.00    +0.000 A 
ATOM     24  C   UNL     1       0.868   2.651  19.849  0.00  0.00    +0.000 A 
ATOM     25  C   UNL     1       0.828   4.040  19.758  0.00  0.00    +0.000 A 
ENDBRANCH  19  20
ENDBRANCH   1  19
TORSDOF 6
ENDMDL
MODEL 3
REMARK VINA RESULT:      -8.0      2.041      5.420
REMARK  Name = 
REMARK  6 active torsions:
REMARK  status: ('A' for Active; 'I' for Inactive)
REMARK    1  A    between atoms: C_2  and  C_17
REMARK    2  A    between atoms: N_3  and  C_4
REMARK    3  A    between atoms: C_4  and  C_5
REMARK    4  A    between atoms: C_4  and  C_12
REMARK    5  A    between atoms: C_5  and  C_6
REMARK    6  A    between atoms: C_21  and  C_22
REMARK                            x       y       z     vdW  Elec       q    Type
REMARK                         _______ _______ _______ _____ _____    ______ ____
ROOT
ATOM      1  C   UNL     1       2.503   6.789  18.674  0.00  0.00    +0.000 C 
ENDROOT
BRANCH   1   2
ATOM      2  C   UNL     1       2.071   8.216  18.422  0.00  0.00    +0.000 A 
ATOM      3  N   UNL     1       1.312   8.947  19.313  0.00  0.00    +0.000 NA
ATOM      4  C   UNL     1       1.309  10.132  18.762  0.00  0.00    +0.000 A 
ATOM      5  O   UNL     1       1.934  10.183  17.560  0.00  0.00    +0.000 OA
ATOM      6  N   UNL     1       2.436   8.901  17.322  0.00  0.00    +0.000 NA
ENDBRANCH   1   2
BRANCH   1   9
ATOM      7  O   UNL     1       3.231   4.544  17.171  0.00  0.00    +0.000 OA
ATOM      8  C   UNL     1       4.061   5.439  17.287  0.00  0.00    +0.000 C 
ATOM      9  N   UNL     1       3.809   6.561  18.027  0.00  0.00    +0.000 N 
ATOM     10  H   UNL     1       4.406   7.371  17.920  0.00  0.00    +0.000 HD
BRANCH   8  11
ATOM     11  C   UNL     1       5.324   5.386  16.564  0.00  0.00    +0.000 A 
ATOM     12  C   UNL     1       5.451   4.823  15.253  0.00  0.00    +0.000 A 
ATOM     13  C   UNL     1       6.758   4.965  14.872  0.00  0.00    +0.000 A 
ATOM     14  O   UNL     1       7.466   5.549  15.863  0.00  0.00    +0.000 OA
ATOM     15  C   UNL     1       6.615   5.780  16.911  0.00  0.00    +0.000 A 
BRANCH  15  16
ATOM     16  C   UNL     1       7.135   6.343  18.231  0.00  0.00    +0.000 C 
ATOM     17  C   UNL     1       6.874   5.530  19.491  0.00  0.00    +0.000 C 
ATOM     18  C   UNL     1       8.248   5.571  18.919  0.00  0.00    +0.000 C 
ENDBRANCH  15  16
ENDBRANCH   8  11
ENDBRANCH   1   9
BRANCH   1  19
ATOM     19  C   UNL     1       2.489   6.427  20.189  0.00  0.00    +0.000 C 
BRANCH  19  20
ATOM     20  C   UNL     1       2.014   5.013  20.451  0.00  0.00    +0.000 A 
ATOM     21  C   UNL     1       2.598   4.244  21.468  0.00  0.00    +0.000 A 
ATOM     22  C   UNL     1       2.328   2.882  21.563  0.00  0.00    +0.000 A 
ATOM     23  C   UNL     1       1.446   2.282  20.667  0.00  0.00    +0.000 A 
ATOM     24  C   UNL     1       0.800   3.055  19.704  0.00  0.00    +0.000 A 
ATOM     25  C   UNL     1       1.074   4.417  19.602  0.00  0.00    +0.000 A 
ENDBRANCH  19  20
ENDBRANCH   1  19
TORSDOF 6
ENDMDL
MODEL 4
REMARK VINA RESULT:      -7.9      2.213      5.375
REMARK  Name = 
REMARK  6 active torsions:
REMARK  status: ('A' for Active; 'I' for Inactive)
REMARK    1  A    between atoms: C_2  and  C_17
REMARK    2  A    between atoms: N_3  and  C_4
REMARK    3  A    between atoms: C_4  and  C_5
REMARK    4  A    between atoms: C_4  and  C_12
REMARK    5  A    between atoms: C_5  and  C_6
REMARK    6  A    between atoms: C_21  and  C_22
REMARK                            x       y       z     vdW  Elec       q    Type
REMARK                         _______ _______ _______ _____ _____    ______ ____
ROOT
ATOM      1  C   UNL     1       2.496   6.783  18.576  0.00  0.00    +0.000 C 
ENDROOT
BRANCH   1   2
ATOM      2  C   UNL     1       2.061   8.213  18.346  0.00  0.00    +0.000 A 
ATOM      3  N   UNL     1       1.263   8.913  19.228  0.00  0.00    +0.000 NA
ATOM      4  C   UNL     1       1.270  10.114  18.710  0.00  0.00    +0.000 A 
ATOM      5  O   UNL     1       1.939  10.202  17.534  0.00  0.00    +0.000 OA
ATOM      6  N   UNL     1       2.460   8.932  17.280  0.00  0.00    +0.000 NA
ENDBRANCH   1   2
BRANCH   1   9
ATOM      7  O   UNL     1       3.297   4.563  17.072  0.00  0.00    +0.000 OA
ATOM      8  C   UNL     1       4.110   5.469  17.218  0.00  0.00    +0.000 C 
ATOM      9  N   UNL     1       3.822   6.580  17.962  0.00  0.00    +0.000 N 
ATOM     10  H   UNL     1       4.410   7.400  17.878  0.00  0.00    +0.000 HD
BRANCH   8  11
ATOM     11  C   UNL     1       5.393   5.442  16.529  0.00  0.00    +0.000 A 
ATOM     12  C   UNL     1       5.706   4.497  15.499  0.00  0.00    +0.000 A 
ATOM     13  C   UNL     1       6.972   4.776  15.060  0.00  0.00    +0.000 A 
ATOM     14  O   UNL     1       7.487   5.809  15.762  0.00  0.00    +0.000 OA
ATOM     15  C   UNL     1       6.551   6.202  16.683  0.00  0.00    +0.000 A 
BRANCH  15  16
ATOM     16  C   UNL     1       6.869   7.289  17.705  0.00  0.00    +0.000 C 
ATOM     17  C   UNL     1       8.100   7.093  18.577  0.00  0.00    +0.000 C 
ATOM     18  C   UNL     1       8.134   8.098  17.480  0.00  0.00    +0.000 C 
ENDBRANCH  15  16
ENDBRANCH   8  11
ENDBRANCH   1   9
BRANCH   1  19
ATOM     19  C   UNL     1       2.440   6.383  20.079  0.00  0.00    +0.000 C 
BRANCH  19  20
ATOM     20  C   UNL     1       2.116   4.919  20.287  0.00  0.00    +0.000 A 
ATOM     21  C   UNL     1       1.269   4.244  19.397  0.00  0.00    +0.000 A 
ATOM     22  C   UNL     1       0.790   2.974  19.707  0.00  0.00    +0.000 A 
ATOM     23  C   UNL     1       1.180   2.352  20.891  0.00  0.00    +0.000 A 
ATOM     24  C   UNL     1       2.085   2.982  21.742  0.00  0.00    +0.000 A 
ATOM     25  C   UNL     1       2.560   4.256  21.438  0.00  0.00    +0.000 A 
ENDBRANCH  19  20
ENDBRANCH   1  19
TORSDOF 6
ENDMDL
MODEL 5
REMARK VINA RESULT:      -7.9      2.201      5.567
REMARK  Name = 
REMARK  6 active torsions:
REMARK  status: ('A' for Active; 'I' for Inactive)
REMARK    1  A    between atoms: C_2  and  C_17
REMARK    2  A    between atoms: N_3  and  C_4
REMARK    3  A    between atoms: C_4  and  C_5
REMARK    4  A    between atoms: C_4  and  C_12
REMARK    5  A    between atoms: C_5  and  C_6
REMARK    6  A    between atoms: C_21  and  C_22
REMARK                            x       y       z     vdW  Elec       q    Type
REMARK                         _______ _______ _______ _____ _____    ______ ____
ROOT
ATOM      1  C   UNL     1       5.458   4.501  16.775  0.00  0.00    +0.000 C 
ENDROOT
BRANCH   1   2
ATOM      2  C   UNL     1       6.503   4.873  17.802  0.00  0.00    +0.000 A 
ATOM      3  N   UNL     1       6.231   5.640  18.916  0.00  0.00    +0.000 NA
ATOM      4  C   UNL     1       7.360   5.581  19.573  0.00  0.00    +0.000 A 
ATOM      5  O   UNL     1       8.341   4.908  18.921  0.00  0.00    +0.000 OA
ATOM      6  N   UNL     1       7.777   4.443  17.731  0.00  0.00    +0.000 NA
ENDBRANCH   1   2
BRANCH   1   9
ATOM      7  O   UNL     1       4.296   2.232  17.929  0.00  0.00    +0.000 OA
ATOM      8  C   UNL     1       3.668   3.283  17.994  0.00  0.00    +0.000 C 
ATOM      9  N   UNL     1       4.139   4.438  17.433  0.00  0.00    +0.000 N 
ATOM     10  H   UNL     1       3.723   5.323  17.695  0.00  0.00    +0.000 HD
BRANCH   8  11
ATOM     11  C   UNL     1       2.428   3.368  18.753  0.00  0.00    +0.000 A 
ATOM     12  C   UNL     1       1.346   2.443  18.587  0.00  0.00    +0.000 A 
ATOM     13  C   UNL     1       0.363   2.802  19.469  0.00  0.00    +0.000 A 
ATOM     14  O   UNL     1       0.738   3.904  20.154  0.00  0.00    +0.000 OA
ATOM     15  C   UNL     1       1.976   4.280  19.705  0.00  0.00    +0.000 A 
BRANCH  15  16
ATOM     16  C   UNL     1       2.638   5.558  20.213  0.00  0.00    +0.000 C 
ATOM     17  C   UNL     1       2.446   6.822  19.388  0.00  0.00    +0.000 C 
ATOM     18  C   UNL     1       1.717   6.673  20.676  0.00  0.00    +0.000 C 
ENDBRANCH  15  16
ENDBRANCH   8  11
ENDBRANCH   1   9
BRANCH   1  19
ATOM     19  C   UNL     1       5.488   5.442  15.534  0.00  0.00    +0.000 C 
BRANCH  19  20
ATOM     20  C   UNL     1       6.122   4.796  14.321  0.00  0.00    +0.000 A 
ATOM     21  C   UNL     1       7.337   5.276  13.812  0.00  0.00    +0.000 A 
ATOM     22  C   UNL     1       7.803   4.840  12.575  0.00  0.00    +0.000 A 
ATOM     23  C   UNL     1       7.080   3.894  11.851  0.00  0.00    +0.000 A 
ATOM     24  C   UNL     1       5.914   3.352  12.387  0.00  0.00    +0.000 A 
ATOM     25  C   UNL     1       5.440   3.793  13.621  0.00  0.00    +0.000 A 
ENDBRANCH  19  20
ENDBRANCH   1  19
TORSDOF 6
ENDMDL
MODEL 6
REMARK VINA RESULT:      -7.8      3.174      6.265
REMARK  Name = 
REMARK  6 active torsions:
REMARK  status: ('A' for Active; 'I' for Inactive)
REMARK    1  A    between atoms: C_2  and  C_17
REMARK    2  A    between atoms: N_3  and  C_4
REMARK    3  A    between atoms: C_4  and  C_5
REMARK    4  A    between atoms: C_4  and  C_12
REMARK    5  A    between atoms: C_5  and  C_6
REMARK    6  A    between atoms: C_21  and  C_22
REMARK                            x       y       z     vdW  Elec       q    Type
REMARK                         _______ _______ _______ _____ _____    ______ ____
ROOT
ATOM      1  C   UNL     1       5.142   4.172  17.463  0.00  0.00    +0.000 C 
ENDROOT
BRANCH   1   2
ATOM      2  C   UNL     1       6.226   4.630  18.413  0.00  0.00    +0.000 A 
ATOM      3  N   UNL     1       7.570   4.584  18.107  0.00  0.00    +0.000 NA
ATOM      4  C   UNL     1       8.105   5.199  19.130  0.00  0.00    +0.000 A 
ATOM      5  O   UNL     1       7.213   5.552  20.089  0.00  0.00    +0.000 OA
ATOM      6  N   UNL     1       5.956   5.163  19.620  0.00  0.00    +0.000 NA
ENDBRANCH   1   2
BRANCH   1   9
ATOM      7  O   UNL     1       5.312   6.176  15.517  0.00  0.00    +0.000 OA
ATOM      8  C   UNL     1       5.781   5.078  15.239  0.00  0.00    +0.000 C 
ATOM      9  N   UNL     1       5.718   4.027  16.112  0.00  0.00    +0.000 N 
ATOM     10  H   UNL     1       6.303   3.216  15.957  0.00  0.00    +0.000 HD
BRANCH   8  11
ATOM     11  C   UNL     1       6.507   4.867  13.994  0.00  0.00    +0.000 A 
ATOM     12  C   UNL     1       7.692   5.595  13.649  0.00  0.00    +0.000 A 
ATOM     13  C   UNL     1       8.121   5.126  12.437  0.00  0.00    +0.000 A 
ATOM     14  O   UNL     1       7.273   4.178  11.983  0.00  0.00    +0.000 OA
ATOM     15  C   UNL     1       6.268   4.034  12.903  0.00  0.00    +0.000 A 
BRANCH  15  16
ATOM     16  C   UNL     1       5.089   3.104  12.634  0.00  0.00    +0.000 C 
ATOM     17  C   UNL     1       4.247   3.379  11.396  0.00  0.00    +0.000 C 
ATOM     18  C   UNL     1       5.177   2.217  11.404  0.00  0.00    +0.000 C 
ENDBRANCH  15  16
ENDBRANCH   8  11
ENDBRANCH   1   9
BRANCH   1  19
ATOM     19  C   UNL     1       4.415   2.891  17.969  0.00  0.00    +0.000 C 
BRANCH  19  20
ATOM     20  C   UNL     1       3.362   3.187  19.015  0.00  0.00    +0.000 A 
ATOM     21  C   UNL     1       3.493   2.687  20.319  0.00  0.00    +0.000 A 
ATOM     22  C   UNL     1       2.428   2.761  21.212  0.00  0.00    +0.000 A 
ATOM     23  C   UNL     1       1.234   3.366  20.825  0.00  0.00    +0.000 A 
ATOM     24  C   UNL     1       1.123   3.937  19.558  0.00  0.00    +0.000 A 
ATOM     25  C   UNL     1       2.185   3.857  18.660  0.00  0.00    +0.000 A 
ENDBRANCH  19  20
ENDBRANCH   1  19
TORSDOF 6
ENDMDL
MODEL 7
REMARK VINA RESULT:      -7.8      2.576      4.835
REMARK  Name = 
REMARK  6 active torsions:
REMARK  status: ('A' for Active; 'I' for Inactive)
REMARK    1  A    between atoms: C_2  and  C_17
REMARK    2  A    between atoms: N_3  and  C_4
REMARK    3  A    between atoms: C_4  and  C_5
REMARK    4  A    between atoms: C_4  and  C_12
REMARK    5  A    between atoms: C_5  and  C_6
REMARK    6  A    between atoms: C_21  and  C_22
REMARK                            x       y       z     vdW  Elec       q    Type
REMARK                         _______ _______ _______ _____ _____    ______ ____
ROOT
ATOM      1  C   UNL     1       2.883   5.649  18.744  0.00  0.00    +0.000 C 
ENDROOT
BRANCH   1   2
ATOM      2  C   UNL     1       2.109   4.349  18.756  0.00  0.00    +0.000 A 
ATOM      3  N   UNL     1       2.055   3.509  19.849  0.00  0.00    +0.000 NA
ATOM      4  C   UNL     1       1.181   2.616  19.465  0.00  0.00    +0.000 A 
ATOM      5  O   UNL     1       0.747   2.782  18.192  0.00  0.00    +0.000 OA
ATOM      6  N   UNL     1       1.373   3.933  17.708  0.00  0.00    +0.000 NA
ENDBRANCH   1   2
BRANCH   1   9
ATOM      7  O   UNL     1       2.543   8.380  18.240  0.00  0.00    +0.000 OA
ATOM      8  C   UNL     1       2.063   7.934  19.276  0.00  0.00    +0.000 C 
ATOM      9  N   UNL     1       2.204   6.619  19.625  0.00  0.00    +0.000 N 
ATOM     10  H   UNL     1       1.615   6.233  20.352  0.00  0.00    +0.000 HD
BRANCH   8  11
ATOM     11  C   UNL     1       1.243   8.769  20.142  0.00  0.00    +0.000 A 
ATOM     12  C   UNL     1       1.122   8.549  21.553  0.00  0.00    +0.000 A 
ATOM     13  C   UNL     1       0.304   9.527  22.050  0.00  0.00    +0.000 A 
ATOM     14  O   UNL     1      -0.122  10.326  21.047  0.00  0.00    +0.000 OA
ATOM     15  C   UNL     1       0.413   9.857  19.877  0.00  0.00    +0.000 A 
BRANCH  15  16
ATOM     16  C   UNL     1       0.038  10.486  18.538  0.00  0.00    +0.000 C 
ATOM     17  C   UNL     1      -1.276  10.054  17.904  0.00  0.00    +0.000 C 
ATOM     18  C   UNL     1      -1.172  11.404  18.522  0.00  0.00    +0.000 C 
ENDBRANCH  15  16
ENDBRANCH   8  11
ENDBRANCH   1   9
BRANCH   1  19
ATOM     19  C   UNL     1       4.387   5.444  19.090  0.00  0.00    +0.000 C 
BRANCH  19  20
ATOM     20  C   UNL     1       5.274   5.414  17.863  0.00  0.00    +0.000 A 
ATOM     21  C   UNL     1       4.816   5.929  16.642  0.00  0.00    +0.000 A 
ATOM     22  C   UNL     1       5.531   5.699  15.470  0.00  0.00    +0.000 A 
ATOM     23  C   UNL     1       6.727   4.985  15.510  0.00  0.00    +0.000 A 
ATOM     24  C   UNL     1       7.229   4.540  16.731  0.00  0.00    +0.000 A 
ATOM     25  C   UNL     1       6.512   4.762  17.905  0.00  0.00    +0.000 A 
ENDBRANCH  19  20
ENDBRANCH   1  19
TORSDOF 6
ENDMDL
MODEL 8
REMARK VINA RESULT:      -7.7      2.728      5.012
REMARK  Name = 
REMARK  6 active torsions:
REMARK  status: ('A' for Active; 'I' for Inactive)
REMARK    1  A    between atoms: C_2  and  C_17
REMARK    2  A    between atoms: N_3  and  C_4
REMARK    3  A    between atoms: C_4  and  C_5
REMARK    4  A    between atoms: C_4  and  C_12
REMARK    5  A    between atoms: C_5  and  C_6
REMARK    6  A    between atoms: C_21  and  C_22
REMARK                            x       y       z     vdW  Elec       q    Type
REMARK                         _______ _______ _______ _____ _____    ______ ____
ROOT
ATOM      1  C   UNL     1       2.946   5.402  19.182  0.00  0.00    +0.000 C 
ENDROOT
BRANCH   1   2
ATOM      2  C   UNL     1       1.944   4.268  19.180  0.00  0.00    +0.000 A 
ATOM      3  N   UNL     1       1.791   3.395  18.123  0.00  0.00    +0.000 NA
ATOM      4  C   UNL     1       0.948   2.522  18.609  0.00  0.00    +0.000 A 
ATOM      5  O   UNL     1       0.499   2.823  19.853  0.00  0.00    +0.000 OA
ATOM      6  N   UNL     1       1.154   3.996  20.235  0.00  0.00    +0.000 NA
ENDBRANCH   1   2
BRANCH   1   9
ATOM      7  O   UNL     1       2.244   7.937  18.228  0.00  0.00    +0.000 OA
ATOM      8  C   UNL     1       2.068   7.714  19.421  0.00  0.00    +0.000 C 
ATOM      9  N   UNL     1       2.409   6.516  19.986  0.00  0.00    +0.000 N 
ATOM     10  H   UNL     1       2.048   6.278  20.901  0.00  0.00    +0.000 HD
BRANCH   8  11
ATOM     11  C   UNL     1       1.403   8.688  20.275  0.00  0.00    +0.000 A 
ATOM     12  C   UNL     1       1.295   8.537  21.696  0.00  0.00    +0.000 A 
ATOM     13  C   UNL     1       0.641   9.639  22.175  0.00  0.00    +0.000 A 
ATOM     14  O   UNL     1       0.304  10.456  21.154  0.00  0.00    +0.000 OA
ATOM     15  C   UNL     1       0.730   9.875  19.989  0.00  0.00    +0.000 A 
BRANCH  15  16
ATOM     16  C   UNL     1       0.409  10.506  18.638  0.00  0.00    +0.000 C 
ATOM     17  C   UNL     1      -0.769   9.936  17.860  0.00  0.00    +0.000 C 
ATOM     18  C   UNL     1      -0.904  11.261  18.524  0.00  0.00    +0.000 C 
ENDBRANCH  15  16
ENDBRANCH   8  11
ENDBRANCH   1   9
BRANCH   1  19
ATOM     19  C   UNL     1       4.362   4.937  19.632  0.00  0.00    +0.000 C 
BRANCH  19  20
ATOM     20  C   UNL     1       5.473   5.543  18.800  0.00  0.00    +0.000 A 
ATOM     21  C   UNL     1       6.795   5.533  19.265  0.00  0.00    +0.000 A 
ATOM     22  C   UNL     1       7.773   6.284  18.617  0.00  0.00    +0.000 A 
ATOM     23  C   UNL     1       7.449   7.021  17.481  0.00  0.00    +0.000 A 
ATOM     24  C   UNL     1       6.154   6.972  16.967  0.00  0.00    +0.000 A 
ATOM     25  C   UNL     1       5.172   6.228  17.617  0.00  0.00    +0.000 A 
ENDBRANCH  19  20
ENDBRANCH   1  19
TORSDOF 6
ENDMDL
MODEL 9
REMARK VINA RESULT:      -7.7      2.599      4.941
REMARK  Name = 
REMARK  6 active torsions:
REMARK  status: ('A' for Active; 'I' for Inactive)
REMARK    1  A    between atoms: C_2  and  C_17
REMARK    2  A    between atoms: N_3  and  C_4
REMARK    3  A    between atoms: C_4  and  C_5
REMARK    4  A    between atoms: C_4  and  C_12
REMARK    5  A    between atoms: C_5  and  C_6
REMARK    6  A    between atoms: C_21  and  C_22
REMARK                            x       y       z     vdW  Elec       q    Type
REMARK                         _______ _______ _______ _____ _____    ______ ____
ROOT
ATOM      1  C   UNL     1       2.846   5.739  18.796  0.00  0.00    +0.000 C 
ENDROOT
BRANCH   1   2
ATOM      2  C   UNL     1       2.039   4.460  18.799  0.00  0.00    +0.000 A 
ATOM      3  N   UNL     1       1.762   3.743  19.945  0.00  0.00    +0.000 NA
ATOM      4  C   UNL     1       0.940   2.827  19.502  0.00  0.00    +0.000 A 
ATOM      5  O   UNL     1       0.746   2.864  18.161  0.00  0.00    +0.000 OA
ATOM      6  N   UNL     1       1.488   3.947  17.684  0.00  0.00    +0.000 NA
ENDBRANCH   1   2
BRANCH   1   9
ATOM      7  O   UNL     1       2.399   8.444  18.234  0.00  0.00    +0.000 OA
ATOM      8  C   UNL     1       1.999   8.018  19.311  0.00  0.00    +0.000 C 
ATOM      9  N   UNL     1       2.199   6.719  19.689  0.00  0.00    +0.000 N 
ATOM     10  H   UNL     1       1.669   6.340  20.464  0.00  0.00    +0.000 HD
BRANCH   8  11
ATOM     11  C   UNL     1       1.213   8.859  20.204  0.00  0.00    +0.000 A 
ATOM     12  C   UNL     1       1.114   8.622  21.614  0.00  0.00    +0.000 A 
ATOM     13  C   UNL     1       0.326   9.609  22.139  0.00  0.00    +0.000 A 
ATOM     14  O   UNL     1      -0.101  10.431  21.156  0.00  0.00    +0.000 OA
ATOM     15  C   UNL     1       0.402   9.967  19.969  0.00  0.00    +0.000 A 
BRANCH  15  16
ATOM     16  C   UNL     1       0.017  10.623  18.646  0.00  0.00    +0.000 C 
ATOM     17  C   UNL     1      -1.199  10.070  17.918  0.00  0.00    +0.000 C 
ATOM     18  C   UNL     1      -1.298  11.383  18.611  0.00  0.00    +0.000 C 
ENDBRANCH  15  16
ENDBRANCH   8  11
ENDBRANCH   1   9
BRANCH   1  19
ATOM     19  C   UNL     1       4.347   5.492  19.130  0.00  0.00    +0.000 C 
BRANCH  19  20
ATOM     20  C   UNL     1       5.185   5.211  17.901  0.00  0.00    +0.000 A 
ATOM     21  C   UNL     1       6.458   4.635  18.024  0.00  0.00    +0.000 A 
ATOM     22  C   UNL     1       7.317   4.586  16.930  0.00  0.00    +0.000 A 
ATOM     23  C   UNL     1       6.901   5.079  15.694  0.00  0.00    +0.000 A 
ATOM     24  C   UNL     1       5.610   5.580  15.545  0.00  0.00    +0.000 A 
ATOM     25  C   UNL     1       4.750   5.637  16.640  0.00  0.00    +0.000 A 
ENDBRANCH  19  20
ENDBRANCH   1  19
TORSDOF 6
ENDMDL
