MODEL 1
REMARK VINA RESULT:      -6.9      0.000      0.000
REMARK  Name = 
REMARK  3 active torsions:
REMARK  status: ('A' for Active; 'I' for Inactive)
REMARK    1  A    between atoms: C_1  and  C_2
REMARK    2  A    between atoms: C_13  and  C_14
REMARK    3  A    between atoms: C_17  and  C_18
REMARK                            x       y       z     vdW  Elec       q    Type
REMARK                         _______ _______ _______ _____ _____    ______ ____
ROOT
ATOM      1  C   UNL     1       1.023   6.847  21.044  0.00  0.00    +0.000 C 
ATOM      2  C   UNL     1       1.655   5.660  20.380  0.00  0.00    +0.000 A 
ATOM      3  S   UNL     1       1.227   4.084  20.761  0.00  0.00    +0.000 S 
ATOM      4  C   UNL     1       2.251   3.399  19.642  0.00  0.00    +0.000 A 
ATOM      5  N   UNL     1       2.346   2.070  19.420  0.00  0.00    +0.000 NA
ATOM      6  C   UNL     1       3.184   1.619  18.461  0.00  0.00    +0.000 A 
ATOM      7  N   UNL     1       3.931   2.499  17.748  0.00  0.00    +0.000 NA
ATOM      8  C   UNL     1       3.898   3.855  17.943  0.00  0.00    +0.000 A 
ATOM      9  N   UNL     1       4.755   4.654  17.110  0.00  0.00    +0.000 N 
ATOM     10  C   UNL     1       5.139   4.027  15.842  0.00  0.00    +0.000 C 
ATOM     11  C   UNL     1       5.719   5.049  14.866  0.00  0.00    +0.000 C 
ATOM     12  C   UNL     1       6.923   5.732  15.499  0.00  0.00    +0.000 C 
ATOM     13  C   UNL     1       6.500   6.407  16.815  0.00  0.00    +0.000 C 
ATOM     14  C   UNL     1       7.718   7.072  17.463  0.00  0.00    +0.000 C 
ATOM     15  C   UNL     1       5.849   5.370  17.772  0.00  0.00    +0.000 C 
ATOM     16  C   UNL     1       2.988   4.356  18.934  0.00  0.00    +0.000 A 
ATOM     17  C   UNL     1       2.624   5.677  19.355  0.00  0.00    +0.000 A 
ATOM     18  C   UNL     1       3.101   7.000  18.821  0.00  0.00    +0.000 C 
ENDROOT
TORSDOF 0
ENDMDL
MODEL 2
REMARK VINA RESULT:      -6.7      2.337      5.285
REMARK  Name = 
REMARK  3 active torsions:
REMARK  status: ('A' for Active; 'I' for Inactive)
REMARK    1  A    between atoms: C_1  and  C_2
REMARK    2  A    between atoms: C_13  and  C_14
REMARK    3  A    between atoms: C_17  and  C_18
REMARK                            x       y       z     vdW  Elec       q    Type
REMARK                         _______ _______ _______ _____ _____    ______ ____
ROOT
ATOM      1  C   UNL     1       1.967   1.909  19.420  0.00  0.00    +0.000 C 
ATOM      2  C   UNL     1       2.621   3.120  18.825  0.00  0.00    +0.000 A 
ATOM      3  S   UNL     1       3.971   3.018  17.835  0.00  0.00    +0.000 S 
ATOM      4  C   UNL     1       4.050   4.656  17.557  0.00  0.00    +0.000 A 
ATOM      5  N   UNL     1       4.961   5.242  16.749  0.00  0.00    +0.000 NA
ATOM      6  C   UNL     1       4.916   6.579  16.562  0.00  0.00    +0.000 A 
ATOM      7  N   UNL     1       3.972   7.318  17.197  0.00  0.00    +0.000 NA
ATOM      8  C   UNL     1       3.038   6.787  18.047  0.00  0.00    +0.000 A 
ATOM      9  N   UNL     1       2.108   7.705  18.648  0.00  0.00    +0.000 N 
ATOM     10  C   UNL     1       1.914   8.956  17.910  0.00  0.00    +0.000 C 
ATOM     11  C   UNL     1       0.668   9.699  18.386  0.00  0.00    +0.000 C 
ATOM     12  C   UNL     1       0.781   9.983  19.878  0.00  0.00    +0.000 C 
ATOM     13  C   UNL     1       0.959   8.659  20.641  0.00  0.00    +0.000 C 
ATOM     14  C   UNL     1       1.099   8.948  22.139  0.00  0.00    +0.000 C 
ATOM     15  C   UNL     1       2.190   7.881  20.101  0.00  0.00    +0.000 C 
ATOM     16  C   UNL     1       3.048   5.364  18.232  0.00  0.00    +0.000 A 
ATOM     17  C   UNL     1       2.203   4.461  18.957  0.00  0.00    +0.000 A 
ATOM     18  C   UNL     1       0.968   4.767  19.759  0.00  0.00    +0.000 C 
ENDROOT
TORSDOF 0
ENDMDL
MODEL 3
REMARK VINA RESULT:      -6.3      1.560      2.015
REMARK  Name = 
REMARK  3 active torsions:
REMARK  status: ('A' for Active; 'I' for Inactive)
REMARK    1  A    between atoms: C_1  and  C_2
REMARK    2  A    between atoms: C_13  and  C_14
REMARK    3  A    between atoms: C_17  and  C_18
REMARK                            x       y       z     vdW  Elec       q    Type
REMARK                         _______ _______ _______ _____ _____    ______ ____
ROOT
ATOM      1  C   UNL     1       0.993   9.501  19.731  0.00  0.00    +0.000 C 
ATOM      2  C   UNL     1       1.492   8.094  19.882  0.00  0.00    +0.000 A 
ATOM      3  S   UNL     1       0.924   7.064  21.078  0.00  0.00    +0.000 S 
ATOM      4  C   UNL     1       1.850   5.772  20.584  0.00  0.00    +0.000 A 
ATOM      5  N   UNL     1       1.811   4.551  21.160  0.00  0.00    +0.000 NA
ATOM      6  C   UNL     1       2.578   3.559  20.658  0.00  0.00    +0.000 A 
ATOM      7  N   UNL     1       3.387   3.802  19.596  0.00  0.00    +0.000 NA
ATOM      8  C   UNL     1       3.489   5.023  18.984  0.00  0.00    +0.000 A 
ATOM      9  N   UNL     1       4.397   5.122  17.874  0.00  0.00    +0.000 N 
ATOM     10  C   UNL     1       4.687   3.852  17.202  0.00  0.00    +0.000 C 
ATOM     11  C   UNL     1       5.338   4.076  15.839  0.00  0.00    +0.000 C 
ATOM     12  C   UNL     1       6.618   4.882  16.010  0.00  0.00    +0.000 C 
ATOM     13  C   UNL     1       6.294   6.223  16.693  0.00  0.00    +0.000 C 
ATOM     14  C   UNL     1       7.587   7.021  16.889  0.00  0.00    +0.000 C 
ATOM     15  C   UNL     1       5.572   5.982  18.047  0.00  0.00    +0.000 C 
ATOM     16  C   UNL     1       2.657   6.081  19.482  0.00  0.00    +0.000 A 
ATOM     17  C   UNL     1       2.432   7.434  19.063  0.00  0.00    +0.000 A 
ATOM     18  C   UNL     1       3.020   8.166  17.888  0.00  0.00    +0.000 C 
ENDROOT
TORSDOF 0
ENDMDL
MODEL 4
REMARK VINA RESULT:      -6.2      2.515      5.930
REMARK  Name = 
REMARK  3 active torsions:
REMARK  status: ('A' for Active; 'I' for Inactive)
REMARK    1  A    between atoms: C_1  and  C_2
REMARK    2  A    between atoms: C_13  and  C_14
REMARK    3  A    between atoms: C_17  and  C_18
REMARK                            x       y       z     vdW  Elec       q    Type
REMARK                         _______ _______ _______ _____ _____    ______ ____
ROOT
ATOM      1  C   UNL     1       5.701   3.844  13.724  0.00  0.00    +0.000 C 
ATOM      2  C   UNL     1       5.945   4.213  15.157  0.00  0.00    +0.000 A 
ATOM      3  S   UNL     1       7.454   4.683  15.719  0.00  0.00    +0.000 S 
ATOM      4  C   UNL     1       6.931   4.960  17.274  0.00  0.00    +0.000 A 
ATOM      5  N   UNL     1       7.723   5.426  18.265  0.00  0.00    +0.000 NA
ATOM      6  C   UNL     1       7.189   5.651  19.486  0.00  0.00    +0.000 A 
ATOM      7  N   UNL     1       5.876   5.392  19.707  0.00  0.00    +0.000 NA
ATOM      8  C   UNL     1       5.029   4.896  18.751  0.00  0.00    +0.000 A 
ATOM      9  N   UNL     1       3.664   4.669  19.145  0.00  0.00    +0.000 N 
ATOM     10  C   UNL     1       3.215   5.461  20.294  0.00  0.00    +0.000 C 
ATOM     11  C   UNL     1       1.694   5.454  20.417  0.00  0.00    +0.000 C 
ATOM     12  C   UNL     1       1.198   4.020  20.543  0.00  0.00    +0.000 C 
ATOM     13  C   UNL     1       1.655   3.208  19.319  0.00  0.00    +0.000 C 
ATOM     14  C   UNL     1       1.178   1.759  19.460  0.00  0.00    +0.000 C 
ATOM     15  C   UNL     1       3.199   3.279  19.165  0.00  0.00    +0.000 C 
ATOM     16  C   UNL     1       5.569   4.683  17.439  0.00  0.00    +0.000 A 
ATOM     17  C   UNL     1       4.991   4.264  16.195  0.00  0.00    +0.000 A 
ATOM     18  C   UNL     1       3.556   3.937  15.887  0.00  0.00    +0.000 C 
ENDROOT
TORSDOF 0
ENDMDL
MODEL 5
REMARK VINA RESULT:      -5.8      1.852      3.567
REMARK  Name = 
REMARK  3 active torsions:
REMARK  status: ('A' for Active; 'I' for Inactive)
REMARK    1  A    between atoms: C_1  and  C_2
REMARK    2  A    between atoms: C_13  and  C_14
REMARK    3  A    between atoms: C_17  and  C_18
REMARK                            x       y       z     vdW  Elec       q    Type
REMARK                         _______ _______ _______ _____ _____    ______ ____
ROOT
ATOM      1  C   UNL     1       1.469   1.753  19.368  0.00  0.00    +0.000 C 
ATOM      2  C   UNL     1       1.940   3.133  19.021  0.00  0.00    +0.000 A 
ATOM      3  S   UNL     1       1.228   4.512  19.658  0.00  0.00    +0.000 S 
ATOM      4  C   UNL     1       2.272   5.559  18.895  0.00  0.00    +0.000 A 
ATOM      5  N   UNL     1       2.240   6.901  19.048  0.00  0.00    +0.000 NA
ATOM      6  C   UNL     1       3.158   7.661  18.410  0.00  0.00    +0.000 A 
ATOM      7  N   UNL     1       4.086   7.072  17.614  0.00  0.00    +0.000 NA
ATOM      8  C   UNL     1       4.154   5.721  17.400  0.00  0.00    +0.000 A 
ATOM      9  N   UNL     1       5.193   5.252  16.523  0.00  0.00    +0.000 N 
ATOM     10  C   UNL     1       6.342   6.152  16.395  0.00  0.00    +0.000 C 
ATOM     11  C   UNL     1       7.541   5.443  15.769  0.00  0.00    +0.000 C 
ATOM     12  C   UNL     1       7.152   4.892  14.404  0.00  0.00    +0.000 C 
ATOM     13  C   UNL     1       5.961   3.930  14.557  0.00  0.00    +0.000 C 
ATOM     14  C   UNL     1       5.555   3.397  13.179  0.00  0.00    +0.000 C 
ATOM     15  C   UNL     1       4.773   4.644  15.257  0.00  0.00    +0.000 C 
ATOM     16  C   UNL     1       3.209   4.895  18.095  0.00  0.00    +0.000 A 
ATOM     17  C   UNL     1       3.024   3.475  18.186  0.00  0.00    +0.000 A 
ATOM     18  C   UNL     1       3.840   2.378  17.560  0.00  0.00    +0.000 C 
ENDROOT
TORSDOF 0
ENDMDL
MODEL 6
REMARK VINA RESULT:      -5.8      2.253      5.056
REMARK  Name = 
REMARK  3 active torsions:
REMARK  status: ('A' for Active; 'I' for Inactive)
REMARK    1  A    between atoms: C_1  and  C_2
REMARK    2  A    between atoms: C_13  and  C_14
REMARK    3  A    between atoms: C_17  and  C_18
REMARK                            x       y       z     vdW  Elec       q    Type
REMARK                         _______ _______ _______ _____ _____    ______ ____
ROOT
ATOM      1  C   UNL     1       6.856   5.218  15.640  0.00  0.00    +0.000 C 
ATOM      2  C   UNL     1       5.603   4.786  16.342  0.00  0.00    +0.000 A 
ATOM      3  S   UNL     1       5.029   3.212  16.266  0.00  0.00    +0.000 S 
ATOM      4  C   UNL     1       3.735   3.499  17.271  0.00  0.00    +0.000 A 
ATOM      5  N   UNL     1       2.853   2.551  17.658  0.00  0.00    +0.000 NA
ATOM      6  C   UNL     1       1.856   2.882  18.508  0.00  0.00    +0.000 A 
ATOM      7  N   UNL     1       1.741   4.161  18.948  0.00  0.00    +0.000 NA
ATOM      8  C   UNL     1       2.587   5.171  18.574  0.00  0.00    +0.000 A 
ATOM      9  N   UNL     1       2.329   6.475  19.123  0.00  0.00    +0.000 N 
ATOM     10  C   UNL     1       1.573   6.474  20.379  0.00  0.00    +0.000 C 
ATOM     11  C   UNL     1       1.659   7.825  21.085  0.00  0.00    +0.000 C 
ATOM     12  C   UNL     1       1.140   8.918  20.161  0.00  0.00    +0.000 C 
ATOM     13  C   UNL     1       1.959   8.923  18.859  0.00  0.00    +0.000 C 
ATOM     14  C   UNL     1       1.418  10.006  17.920  0.00  0.00    +0.000 C 
ATOM     15  C   UNL     1       1.918   7.524  18.186  0.00  0.00    +0.000 C 
ATOM     16  C   UNL     1       3.673   4.831  17.698  0.00  0.00    +0.000 A 
ATOM     17  C   UNL     1       4.778   5.577  17.168  0.00  0.00    +0.000 A 
ATOM     18  C   UNL     1       5.152   7.011  17.419  0.00  0.00    +0.000 C 
ENDROOT
TORSDOF 0
ENDMDL
MODEL 7
REMARK VINA RESULT:      -5.7      1.913      3.426
REMARK  Name = 
REMARK  3 active torsions:
REMARK  status: ('A' for Active; 'I' for Inactive)
REMARK    1  A    between atoms: C_1  and  C_2
REMARK    2  A    between atoms: C_13  and  C_14
REMARK    3  A    between atoms: C_17  and  C_18
REMARK                            x       y       z     vdW  Elec       q    Type
REMARK                         _______ _______ _______ _____ _____    ______ ____
ROOT
ATOM      1  C   UNL     1       2.337   2.514  21.310  0.00  0.00    +0.000 C 
ATOM      2  C   UNL     1       2.441   3.815  20.571  0.00  0.00    +0.000 A 
ATOM      3  S   UNL     1       1.377   5.084  20.833  0.00  0.00    +0.000 S 
ATOM      4  C   UNL     1       2.132   6.108  19.760  0.00  0.00    +0.000 A 
ATOM      5  N   UNL     1       1.747   7.384  19.536  0.00  0.00    +0.000 NA
ATOM      6  C   UNL     1       2.453   8.143  18.669  0.00  0.00    +0.000 A 
ATOM      7  N   UNL     1       3.523   7.615  18.024  0.00  0.00    +0.000 NA
ATOM      8  C   UNL     1       3.947   6.323  18.190  0.00  0.00    +0.000 A 
ATOM      9  N   UNL     1       5.096   5.911  17.429  0.00  0.00    +0.000 N 
ATOM     10  C   UNL     1       5.974   7.004  17.001  0.00  0.00    +0.000 C 
ATOM     11  C   UNL     1       7.333   6.482  16.540  0.00  0.00    +0.000 C 
ATOM     12  C   UNL     1       7.139   5.489  15.402  0.00  0.00    +0.000 C 
ATOM     13  C   UNL     1       6.236   4.336  15.873  0.00  0.00    +0.000 C 
ATOM     14  C   UNL     1       6.020   3.352  14.719  0.00  0.00    +0.000 C 
ATOM     15  C   UNL     1       4.884   4.886  16.404  0.00  0.00    +0.000 C 
ATOM     16  C   UNL     1       3.232   5.511  19.132  0.00  0.00    +0.000 A 
ATOM     17  C   UNL     1       3.421   4.176  19.622  0.00  0.00    +0.000 A 
ATOM     18  C   UNL     1       4.512   3.197  19.287  0.00  0.00    +0.000 C 
ENDROOT
TORSDOF 0
ENDMDL
MODEL 8
REMARK VINA RESULT:      -5.6      2.257      5.107
REMARK  Name = 
REMARK  3 active torsions:
REMARK  status: ('A' for Active; 'I' for Inactive)
REMARK    1  A    between atoms: C_1  and  C_2
REMARK    2  A    between atoms: C_13  and  C_14
REMARK    3  A    between atoms: C_17  and  C_18
REMARK                            x       y       z     vdW  Elec       q    Type
REMARK                         _______ _______ _______ _____ _____    ______ ____
ROOT
ATOM      1  C   UNL     1       5.771   4.112  16.368  0.00  0.00    +0.000 C 
ATOM      2  C   UNL     1       4.613   4.014  17.315  0.00  0.00    +0.000 A 
ATOM      3  S   UNL     1       3.943   2.544  17.766  0.00  0.00    +0.000 S 
ATOM      4  C   UNL     1       2.830   3.222  18.801  0.00  0.00    +0.000 A 
ATOM      5  N   UNL     1       1.962   2.508  19.550  0.00  0.00    +0.000 NA
ATOM      6  C   UNL     1       1.122   3.156  20.387  0.00  0.00    +0.000 A 
ATOM      7  N   UNL     1       1.148   4.511  20.453  0.00  0.00    +0.000 NA
ATOM      8  C   UNL     1       1.987   5.292  19.702  0.00  0.00    +0.000 A 
ATOM      9  N   UNL     1       1.888   6.715  19.883  0.00  0.00    +0.000 N 
ATOM     10  C   UNL     1       1.327   7.134  21.171  0.00  0.00    +0.000 C 
ATOM     11  C   UNL     1       1.595   8.612  21.444  0.00  0.00    +0.000 C 
ATOM     12  C   UNL     1       1.009   9.453  20.318  0.00  0.00    +0.000 C 
ATOM     13  C   UNL     1       1.626   9.020  18.977  0.00  0.00    +0.000 C 
ATOM     14  C   UNL     1       1.016   9.850  17.842  0.00  0.00    +0.000 C 
ATOM     15  C   UNL     1       1.406   7.500  18.743  0.00  0.00    +0.000 C 
ATOM     16  C   UNL     1       2.909   4.620  18.832  0.00  0.00    +0.000 A 
ATOM     17  C   UNL     1       3.965   5.079  17.977  0.00  0.00    +0.000 A 
ATOM     18  C   UNL     1       4.455   6.483  17.757  0.00  0.00    +0.000 C 
ENDROOT
TORSDOF 0
ENDMDL
MODEL 9
REMARK VINA RESULT:      -5.5      4.660      6.549
REMARK  Name = 
REMARK  3 active torsions:
REMARK  status: ('A' for Active; 'I' for Inactive)
REMARK    1  A    between atoms: C_1  and  C_2
REMARK    2  A    between atoms: C_13  and  C_14
REMARK    3  A    between atoms: C_17  and  C_18
REMARK                            x       y       z     vdW  Elec       q    Type
REMARK                         _______ _______ _______ _____ _____    ______ ____
ROOT
ATOM      1  C   UNL     1      -1.595  12.103  17.964  0.00  0.00    +0.000 C 
ATOM      2  C   UNL     1      -0.960  11.404  19.130  0.00  0.00    +0.000 A 
ATOM      3  S   UNL     1      -1.063  11.995  20.696  0.00  0.00    +0.000 S 
ATOM      4  C   UNL     1      -0.222  10.726  21.367  0.00  0.00    +0.000 A 
ATOM      5  N   UNL     1       0.011  10.591  22.691  0.00  0.00    +0.000 NA
ATOM      6  C   UNL     1       0.675   9.501  23.137  0.00  0.00    +0.000 A 
ATOM      7  N   UNL     1       1.112   8.568  22.254  0.00  0.00    +0.000 NA
ATOM      8  C   UNL     1       0.929   8.661  20.899  0.00  0.00    +0.000 A 
ATOM      9  N   UNL     1       1.458   7.592  20.095  0.00  0.00    +0.000 N 
ATOM     10  C   UNL     1       1.640   6.322  20.804  0.00  0.00    +0.000 C 
ATOM     11  C   UNL     1       1.838   5.162  19.831  0.00  0.00    +0.000 C 
ATOM     12  C   UNL     1       3.041   5.443  18.941  0.00  0.00    +0.000 C 
ATOM     13  C   UNL     1       2.825   6.765  18.185  0.00  0.00    +0.000 C 
ATOM     14  C   UNL     1       4.048   7.059  17.310  0.00  0.00    +0.000 C 
ATOM     15  C   UNL     1       2.556   7.924  19.184  0.00  0.00    +0.000 C 
ATOM     16  C   UNL     1       0.196   9.794  20.409  0.00  0.00    +0.000 A 
ATOM     17  C   UNL     1      -0.253  10.184  19.104  0.00  0.00    +0.000 A 
ATOM     18  C   UNL     1      -0.099   9.453  17.799  0.00  0.00    +0.000 C 
ENDROOT
TORSDOF 0
ENDMDL
