MODEL 1
REMARK VINA RESULT:      -9.4      0.000      0.000
REMARK  Name = 
REMARK  5 active torsions:
REMARK  status: ('A' for Active; 'I' for Inactive)
REMARK    1  A    between atoms: C_1  and  C_2
REMARK    2  A    between atoms: C_5  and  N_6
REMARK    3  A    between atoms: C_7  and  C_9
REMARK    4  A    between atoms: C_17  and  C_18
REMARK    5  A    between atoms: C_18  and  C_20
REMARK                            x       y       z     vdW  Elec       q    Type
REMARK                         _______ _______ _______ _____ _____    ______ ____
ROOT
ATOM      1  C   UNL     1       6.492   4.322  15.399  0.00  0.00    +0.000 C 
ATOM      2  C   UNL     1       5.435   5.054  16.177  0.00  0.00    +0.000 A 
ATOM      3  C   UNL     1       5.591   6.381  16.539  0.00  0.00    +0.000 A 
ATOM      4  C   UNL     1       4.628   7.018  17.326  0.00  0.00    +0.000 A 
ATOM      5  C   UNL     1       3.496   6.343  17.803  0.00  0.00    +0.000 A 
ATOM      6  C   UNL     1       3.347   4.980  17.445  0.00  0.00    +0.000 A 
ATOM      7  C   UNL     1       4.289   4.370  16.594  0.00  0.00    +0.000 A 
ENDROOT
BRANCH   5   8
ATOM      8  N   UNL     1       2.578   7.006  18.677  0.00  0.00    +0.000 N 
ATOM      9  C   UNL     1       2.052   8.278  18.490  0.00  0.00    +0.000 C 
ATOM     10  O   UNL     1       2.179   8.923  17.452  0.00  0.00    +0.000 OA
ATOM     11  H   UNL     1       2.208   6.436  19.439  0.00  0.00    +0.000 HD
BRANCH   9  12
ATOM     12  C   UNL     1       1.261   8.937  19.589  0.00  0.00    +0.000 A 
ATOM     13  C   UNL     1       1.631   8.571  20.906  0.00  0.00    +0.000 A 
ATOM     14  C   UNL     1       0.948   9.055  22.028  0.00  0.00    +0.000 A 
ATOM     15  C   UNL     1      -0.118   9.922  21.853  0.00  0.00    +0.000 A 
ATOM     16 CL   UNL     1      -0.978  10.509  23.221  0.00  0.00    +0.000 Cl
ATOM     17  C   UNL     1      -0.503  10.305  20.570  0.00  0.00    +0.000 A 
ATOM     18  C   UNL     1       0.175   9.812  19.441  0.00  0.00    +0.000 A 
ATOM     19 CL   UNL     1      -0.459  10.321  17.914  0.00  0.00    +0.000 Cl
ENDBRANCH   9  12
ENDBRANCH   5   8
BRANCH   6  20
ATOM     20  C   UNL     1       2.199   4.148  17.907  0.00  0.00    +0.000 C 
ATOM     21  O   UNL     1       1.232   3.976  17.171  0.00  0.00    +0.000 OA
BRANCH  20  22
ATOM     22  C   UNL     1       2.200   3.503  19.267  0.00  0.00    +0.000 A 
ATOM     23  C   UNL     1       1.016   3.487  20.017  0.00  0.00    +0.000 A 
ATOM     24  C   UNL     1       1.009   2.953  21.311  0.00  0.00    +0.000 A 
ATOM     25  C   UNL     1       2.177   2.433  21.863  0.00  0.00    +0.000 A 
ATOM     26  C   UNL     1       3.352   2.413  21.110  0.00  0.00    +0.000 A 
ATOM     27  C   UNL     1       3.367   2.959  19.822  0.00  0.00    +0.000 A 
ENDBRANCH  20  22
ENDBRANCH   6  20
TORSDOF 4
ENDMDL
MODEL 2
REMARK VINA RESULT:      -9.2      1.077      1.407
REMARK  Name = 
REMARK  5 active torsions:
REMARK  status: ('A' for Active; 'I' for Inactive)
REMARK    1  A    between atoms: C_1  and  C_2
REMARK    2  A    between atoms: C_5  and  N_6
REMARK    3  A    between atoms: C_7  and  C_9
REMARK    4  A    between atoms: C_17  and  C_18
REMARK    5  A    between atoms: C_18  and  C_20
REMARK                            x       y       z     vdW  Elec       q    Type
REMARK                         _______ _______ _______ _____ _____    ______ ____
ROOT
ATOM      1  C   UNL     1       6.477   4.229  15.356  0.00  0.00    +0.000 C 
ATOM      2  C   UNL     1       5.459   5.024  16.124  0.00  0.00    +0.000 A 
ATOM      3  C   UNL     1       5.674   6.352  16.451  0.00  0.00    +0.000 A 
ATOM      4  C   UNL     1       4.746   7.048  17.230  0.00  0.00    +0.000 A 
ATOM      5  C   UNL     1       3.591   6.433  17.734  0.00  0.00    +0.000 A 
ATOM      6  C   UNL     1       3.383   5.069  17.412  0.00  0.00    +0.000 A 
ATOM      7  C   UNL     1       4.290   4.399  16.569  0.00  0.00    +0.000 A 
ENDROOT
BRANCH   5   8
ATOM      8  N   UNL     1       2.710   7.156  18.598  0.00  0.00    +0.000 N 
ATOM      9  C   UNL     1       2.113   8.377  18.313  0.00  0.00    +0.000 C 
ATOM     10  O   UNL     1       2.131   8.903  17.204  0.00  0.00    +0.000 OA
ATOM     11  H   UNL     1       2.425   6.663  19.446  0.00  0.00    +0.000 HD
BRANCH   9  12
ATOM     12  C   UNL     1       1.374   9.126  19.392  0.00  0.00    +0.000 A 
ATOM     13  C   UNL     1       1.094  10.483  19.105  0.00  0.00    +0.000 A 
ATOM     14  C   UNL     1       0.467  11.322  20.034  0.00  0.00    +0.000 A 
ATOM     15  C   UNL     1       0.101  10.814  21.270  0.00  0.00    +0.000 A 
ATOM     16 CL   UNL     1      -0.652  11.836  22.428  0.00  0.00    +0.000 Cl
ATOM     17  C   UNL     1       0.358   9.480  21.579  0.00  0.00    +0.000 A 
ATOM     18  C   UNL     1       0.997   8.639  20.652  0.00  0.00    +0.000 A 
ATOM     19 CL   UNL     1       1.311   7.029  21.203  0.00  0.00    +0.000 Cl
ENDBRANCH   9  12
ENDBRANCH   5   8
BRANCH   6  20
ATOM     20  C   UNL     1       2.206   4.298  17.905  0.00  0.00    +0.000 C 
ATOM     21  O   UNL     1       1.199   4.206  17.210  0.00  0.00    +0.000 OA
BRANCH  20  22
ATOM     22  C   UNL     1       2.225   3.617  19.247  0.00  0.00    +0.000 A 
ATOM     23  C   UNL     1       1.072   3.642  20.044  0.00  0.00    +0.000 A 
ATOM     24  C   UNL     1       1.087   3.074  21.323  0.00  0.00    +0.000 A 
ATOM     25  C   UNL     1       2.247   2.479  21.814  0.00  0.00    +0.000 A 
ATOM     26  C   UNL     1       3.388   2.418  21.014  0.00  0.00    +0.000 A 
ATOM     27  C   UNL     1       3.382   2.997  19.740  0.00  0.00    +0.000 A 
ENDBRANCH  20  22
ENDBRANCH   6  20
TORSDOF 4
ENDMDL
MODEL 3
REMARK VINA RESULT:      -9.0      1.559      1.869
REMARK  Name = 
REMARK  5 active torsions:
REMARK  status: ('A' for Active; 'I' for Inactive)
REMARK    1  A    between atoms: C_1  and  C_2
REMARK    2  A    between atoms: C_5  and  N_6
REMARK    3  A    between atoms: C_7  and  C_9
REMARK    4  A    between atoms: C_17  and  C_18
REMARK    5  A    between atoms: C_18  and  C_20
REMARK                            x       y       z     vdW  Elec       q    Type
REMARK                         _______ _______ _______ _____ _____    ______ ____
ROOT
ATOM      1  C   UNL     1       6.887   4.220  14.332  0.00  0.00    +0.000 C 
ATOM      2  C   UNL     1       5.996   4.885  15.343  0.00  0.00    +0.000 A 
ATOM      3  C   UNL     1       5.567   6.191  15.183  0.00  0.00    +0.000 A 
ATOM      4  C   UNL     1       4.801   6.812  16.173  0.00  0.00    +0.000 A 
ATOM      5  C   UNL     1       4.464   6.159  17.367  0.00  0.00    +0.000 A 
ATOM      6  C   UNL     1       4.918   4.828  17.536  0.00  0.00    +0.000 A 
ATOM      7  C   UNL     1       5.631   4.191  16.501  0.00  0.00    +0.000 A 
ENDROOT
BRANCH   5   8
ATOM      8  N   UNL     1       3.751   6.856  18.392  0.00  0.00    +0.000 N 
ATOM      9  C   UNL     1       2.374   7.028  18.452  0.00  0.00    +0.000 C 
ATOM     10  O   UNL     1       1.582   6.445  17.717  0.00  0.00    +0.000 OA
ATOM     11  H   UNL     1       4.312   7.153  19.192  0.00  0.00    +0.000 HD
BRANCH   9  12
ATOM     12  C   UNL     1       1.773   7.960  19.472  0.00  0.00    +0.000 A 
ATOM     13  C   UNL     1       1.523   7.388  20.742  0.00  0.00    +0.000 A 
ATOM     14  C   UNL     1       0.914   8.112  21.773  0.00  0.00    +0.000 A 
ATOM     15  C   UNL     1       0.548   9.430  21.553  0.00  0.00    +0.000 A 
ATOM     16 CL   UNL     1      -0.219  10.327  22.803  0.00  0.00    +0.000 Cl
ATOM     17  C   UNL     1       0.786  10.023  20.315  0.00  0.00    +0.000 A 
ATOM     18  C   UNL     1       1.389   9.293  19.275  0.00  0.00    +0.000 A 
ATOM     19 CL   UNL     1       1.557  10.140  17.776  0.00  0.00    +0.000 Cl
ENDBRANCH   9  12
ENDBRANCH   5   8
BRANCH   6  20
ATOM     20  C   UNL     1       4.646   4.035  18.769  0.00  0.00    +0.000 C 
ATOM     21  O   UNL     1       5.578   3.639  19.462  0.00  0.00    +0.000 OA
BRANCH  20  22
ATOM     22  C   UNL     1       3.238   3.709  19.192  0.00  0.00    +0.000 A 
ATOM     23  C   UNL     1       2.847   3.956  20.515  0.00  0.00    +0.000 A 
ATOM     24  C   UNL     1       1.565   3.599  20.949  0.00  0.00    +0.000 A 
ATOM     25  C   UNL     1       0.668   2.996  20.070  0.00  0.00    +0.000 A 
ATOM     26  C   UNL     1       1.037   2.779  18.742  0.00  0.00    +0.000 A 
ATOM     27  C   UNL     1       2.323   3.121  18.308  0.00  0.00    +0.000 A 
ENDBRANCH  20  22
ENDBRANCH   6  20
TORSDOF 4
ENDMDL
MODEL 4
REMARK VINA RESULT:      -8.4      1.916      2.379
REMARK  Name = 
REMARK  5 active torsions:
REMARK  status: ('A' for Active; 'I' for Inactive)
REMARK    1  A    between atoms: C_1  and  C_2
REMARK    2  A    between atoms: C_5  and  N_6
REMARK    3  A    between atoms: C_7  and  C_9
REMARK    4  A    between atoms: C_17  and  C_18
REMARK    5  A    between atoms: C_18  and  C_20
REMARK                            x       y       z     vdW  Elec       q    Type
REMARK                         _______ _______ _______ _____ _____    ______ ____
ROOT
ATOM      1  C   UNL     1       6.565   3.944  14.591  0.00  0.00    +0.000 C 
ATOM      2  C   UNL     1       5.732   4.878  15.423  0.00  0.00    +0.000 A 
ATOM      3  C   UNL     1       5.383   6.138  14.967  0.00  0.00    +0.000 A 
ATOM      4  C   UNL     1       4.671   7.016  15.788  0.00  0.00    +0.000 A 
ATOM      5  C   UNL     1       4.312   6.677  17.101  0.00  0.00    +0.000 A 
ATOM      6  C   UNL     1       4.685   5.394  17.570  0.00  0.00    +0.000 A 
ATOM      7  C   UNL     1       5.342   4.493  16.709  0.00  0.00    +0.000 A 
ENDROOT
BRANCH   5   8
ATOM      8  N   UNL     1       3.659   7.635  17.938  0.00  0.00    +0.000 N 
ATOM      9  C   UNL     1       2.286   7.816  18.048  0.00  0.00    +0.000 C 
ATOM     10  O   UNL     1       1.456   7.050  17.567  0.00  0.00    +0.000 OA
ATOM     11  H   UNL     1       4.268   8.145  18.579  0.00  0.00    +0.000 HD
BRANCH   9  12
ATOM     12  C   UNL     1       1.739   8.997  18.807  0.00  0.00    +0.000 A 
ATOM     13  C   UNL     1       1.844  10.244  18.146  0.00  0.00    +0.000 A 
ATOM     14  C   UNL     1       1.434  11.439  18.750  0.00  0.00    +0.000 A 
ATOM     15  C   UNL     1       0.904  11.407  20.029  0.00  0.00    +0.000 A 
ATOM     16 CL   UNL     1       0.413  12.868  20.790  0.00  0.00    +0.000 Cl
ATOM     17  C   UNL     1       0.782  10.193  20.703  0.00  0.00    +0.000 A 
ATOM     18  C   UNL     1       1.203   8.994  20.102  0.00  0.00    +0.000 A 
ATOM     19 CL   UNL     1       1.054   7.579  21.087  0.00  0.00    +0.000 Cl
ENDBRANCH   9  12
ENDBRANCH   5   8
BRANCH   6  20
ATOM     20  C   UNL     1       4.381   4.924  18.952  0.00  0.00    +0.000 C 
ATOM     21  O   UNL     1       5.201   5.089  19.850  0.00  0.00    +0.000 OA
BRANCH  20  22
ATOM     22  C   UNL     1       3.076   4.248  19.278  0.00  0.00    +0.000 A 
ATOM     23  C   UNL     1       2.685   4.126  20.618  0.00  0.00    +0.000 A 
ATOM     24  C   UNL     1       1.509   3.442  20.949  0.00  0.00    +0.000 A 
ATOM     25  C   UNL     1       0.719   2.878  19.950  0.00  0.00    +0.000 A 
ATOM     26  C   UNL     1       1.083   3.026  18.612  0.00  0.00    +0.000 A 
ATOM     27  C   UNL     1       2.265   3.696  18.277  0.00  0.00    +0.000 A 
ENDBRANCH  20  22
ENDBRANCH   6  20
TORSDOF 4
ENDMDL
MODEL 5
REMARK VINA RESULT:      -8.4      1.346      1.675
REMARK  Name = 
REMARK  5 active torsions:
REMARK  status: ('A' for Active; 'I' for Inactive)
REMARK    1  A    between atoms: C_1  and  C_2
REMARK    2  A    between atoms: C_5  and  N_6
REMARK    3  A    between atoms: C_7  and  C_9
REMARK    4  A    between atoms: C_17  and  C_18
REMARK    5  A    between atoms: C_18  and  C_20
REMARK                            x       y       z     vdW  Elec       q    Type
REMARK                         _______ _______ _______ _____ _____    ______ ____
ROOT
ATOM      1  C   UNL     1       7.218   4.767  14.917  0.00  0.00    +0.000 C 
ATOM      2  C   UNL     1       6.101   5.255  15.796  0.00  0.00    +0.000 A 
ATOM      3  C   UNL     1       5.467   6.462  15.558  0.00  0.00    +0.000 A 
ATOM      4  C   UNL     1       4.482   6.929  16.432  0.00  0.00    +0.000 A 
ATOM      5  C   UNL     1       4.121   6.221  17.588  0.00  0.00    +0.000 A 
ATOM      6  C   UNL     1       4.783   4.994  17.838  0.00  0.00    +0.000 A 
ATOM      7  C   UNL     1       5.725   4.502  16.912  0.00  0.00    +0.000 A 
ENDROOT
BRANCH   5   8
ATOM      8  N   UNL     1       3.170   6.774  18.502  0.00  0.00    +0.000 N 
ATOM      9  C   UNL     1       2.430   7.933  18.304  0.00  0.00    +0.000 C 
ATOM     10  O   UNL     1       2.376   8.533  17.234  0.00  0.00    +0.000 OA
ATOM     11  H   UNL     1       2.954   6.194  19.314  0.00  0.00    +0.000 HD
BRANCH   9  12
ATOM     12  C   UNL     1       1.620   8.513  19.434  0.00  0.00    +0.000 A 
ATOM     13  C   UNL     1       1.852   7.936  20.705  0.00  0.00    +0.000 A 
ATOM     14  C   UNL     1       1.132   8.330  21.839  0.00  0.00    +0.000 A 
ATOM     15  C   UNL     1       0.167   9.317  21.722  0.00  0.00    +0.000 A 
ATOM     16 CL   UNL     1      -0.739   9.798  23.102  0.00  0.00    +0.000 Cl
ATOM     17  C   UNL     1      -0.080   9.909  20.485  0.00  0.00    +0.000 A 
ATOM     18  C   UNL     1       0.635   9.507  19.343  0.00  0.00    +0.000 A 
ATOM     19 CL   UNL     1       0.171  10.281  17.867  0.00  0.00    +0.000 Cl
ENDBRANCH   9  12
ENDBRANCH   5   8
BRANCH   6  20
ATOM     20  C   UNL     1       4.505   4.161  19.042  0.00  0.00    +0.000 C 
ATOM     21  O   UNL     1       5.421   3.849  19.797  0.00  0.00    +0.000 OA
BRANCH  20  22
ATOM     22  C   UNL     1       3.111   3.691  19.361  0.00  0.00    +0.000 A 
ATOM     23  C   UNL     1       2.421   2.912  18.422  0.00  0.00    +0.000 A 
ATOM     24  C   UNL     1       1.099   2.520  18.668  0.00  0.00    +0.000 A 
ATOM     25  C   UNL     1       0.461   2.900  19.846  0.00  0.00    +0.000 A 
ATOM     26  C   UNL     1       1.153   3.646  20.801  0.00  0.00    +0.000 A 
ATOM     27  C   UNL     1       2.469   4.052  20.554  0.00  0.00    +0.000 A 
ENDBRANCH  20  22
ENDBRANCH   6  20
TORSDOF 4
ENDMDL
MODEL 6
REMARK VINA RESULT:      -8.1      3.229      8.018
REMARK  Name = 
REMARK  5 active torsions:
REMARK  status: ('A' for Active; 'I' for Inactive)
REMARK    1  A    between atoms: C_1  and  C_2
REMARK    2  A    between atoms: C_5  and  N_6
REMARK    3  A    between atoms: C_7  and  C_9
REMARK    4  A    between atoms: C_17  and  C_18
REMARK    5  A    between atoms: C_18  and  C_20
REMARK                            x       y       z     vdW  Elec       q    Type
REMARK                         _______ _______ _______ _____ _____    ______ ____
ROOT
ATOM      1  C   UNL     1      -1.186  11.171  23.202  0.00  0.00    +0.000 C 
ATOM      2  C   UNL     1      -0.415  10.301  22.249  0.00  0.00    +0.000 A 
ATOM      3  C   UNL     1       0.502   9.368  22.701  0.00  0.00    +0.000 A 
ATOM      4  C   UNL     1       1.261   8.624  21.793  0.00  0.00    +0.000 A 
ATOM      5  C   UNL     1       1.150   8.809  20.408  0.00  0.00    +0.000 A 
ATOM      6  C   UNL     1       0.222   9.776  19.949  0.00  0.00    +0.000 A 
ATOM      7  C   UNL     1      -0.586  10.470  20.872  0.00  0.00    +0.000 A 
ENDROOT
BRANCH   5   8
ATOM      8  N   UNL     1       2.004   8.089  19.516  0.00  0.00    +0.000 N 
ATOM      9  C   UNL     1       2.295   6.732  19.586  0.00  0.00    +0.000 C 
ATOM     10  O   UNL     1       1.709   5.947  20.325  0.00  0.00    +0.000 OA
ATOM     11  H   UNL     1       2.332   8.614  18.703  0.00  0.00    +0.000 HD
BRANCH   9  12
ATOM     12  C   UNL     1       3.372   6.145  18.711  0.00  0.00    +0.000 A 
ATOM     13  C   UNL     1       3.827   6.983  17.665  0.00  0.00    +0.000 A 
ATOM     14  C   UNL     1       4.781   6.554  16.735  0.00  0.00    +0.000 A 
ATOM     15  C   UNL     1       5.304   5.275  16.838  0.00  0.00    +0.000 A 
ATOM     16 CL   UNL     1       6.462   4.727  15.692  0.00  0.00    +0.000 Cl
ATOM     17  C   UNL     1       4.880   4.429  17.861  0.00  0.00    +0.000 A 
ATOM     18  C   UNL     1       3.914   4.855  18.790  0.00  0.00    +0.000 A 
ATOM     19 CL   UNL     1       3.437   3.672  19.958  0.00  0.00    +0.000 Cl
ENDBRANCH   9  12
ENDBRANCH   5   8
BRANCH   6  20
ATOM     20  C   UNL     1       0.027  10.081  18.502  0.00  0.00    +0.000 C 
ATOM     21  O   UNL     1       0.993  10.099  17.745  0.00  0.00    +0.000 OA
BRANCH  20  22
ATOM     22  C   UNL     1      -1.340  10.365  17.942  0.00  0.00    +0.000 A 
ATOM     23  C   UNL     1      -1.792   9.631  16.836  0.00  0.00    +0.000 A 
ATOM     24  C   UNL     1      -3.032   9.924  16.256  0.00  0.00    +0.000 A 
ATOM     25  C   UNL     1      -3.826  10.945  16.772  0.00  0.00    +0.000 A 
ATOM     26  C   UNL     1      -3.400  11.656  17.894  0.00  0.00    +0.000 A 
ATOM     27  C   UNL     1      -2.155  11.377  18.469  0.00  0.00    +0.000 A 
ENDBRANCH  20  22
ENDBRANCH   6  20
TORSDOF 4
ENDMDL
MODEL 7
REMARK VINA RESULT:      -8.0      3.175      7.918
REMARK  Name = 
REMARK  5 active torsions:
REMARK  status: ('A' for Active; 'I' for Inactive)
REMARK    1  A    between atoms: C_1  and  C_2
REMARK    2  A    between atoms: C_5  and  N_6
REMARK    3  A    between atoms: C_7  and  C_9
REMARK    4  A    between atoms: C_17  and  C_18
REMARK    5  A    between atoms: C_18  and  C_20
REMARK                            x       y       z     vdW  Elec       q    Type
REMARK                         _______ _______ _______ _____ _____    ______ ____
ROOT
ATOM      1  C   UNL     1      -0.785  10.655  23.099  0.00  0.00    +0.000 C 
ATOM      2  C   UNL     1      -0.064   9.864  22.043  0.00  0.00    +0.000 A 
ATOM      3  C   UNL     1       0.870   8.898  22.374  0.00  0.00    +0.000 A 
ATOM      4  C   UNL     1       1.581   8.230  21.374  0.00  0.00    +0.000 A 
ATOM      5  C   UNL     1       1.405   8.526  20.015  0.00  0.00    +0.000 A 
ATOM      6  C   UNL     1       0.460   9.527  19.680  0.00  0.00    +0.000 A 
ATOM      7  C   UNL     1      -0.299  10.144  20.694  0.00  0.00    +0.000 A 
ENDROOT
BRANCH   5   8
ATOM      8  N   UNL     1       2.213   7.880  19.028  0.00  0.00    +0.000 N 
ATOM      9  C   UNL     1       2.481   6.519  18.960  0.00  0.00    +0.000 C 
ATOM     10  O   UNL     1       1.908   5.676  19.645  0.00  0.00    +0.000 OA
ATOM     11  H   UNL     1       2.521   8.474  18.256  0.00  0.00    +0.000 HD
BRANCH   9  12
ATOM     12  C   UNL     1       3.514   6.000  17.994  0.00  0.00    +0.000 A 
ATOM     13  C   UNL     1       4.433   6.964  17.513  0.00  0.00    +0.000 A 
ATOM     14  C   UNL     1       5.412   6.644  16.565  0.00  0.00    +0.000 A 
ATOM     15  C   UNL     1       5.494   5.348  16.083  0.00  0.00    +0.000 A 
ATOM     16 CL   UNL     1       6.679   4.946  14.905  0.00  0.00    +0.000 Cl
ATOM     17  C   UNL     1       4.608   4.376  16.541  0.00  0.00    +0.000 A 
ATOM     18  C   UNL     1       3.617   4.697  17.486  0.00  0.00    +0.000 A 
ATOM     19 CL   UNL     1       2.547   3.405  17.907  0.00  0.00    +0.000 Cl
ENDBRANCH   9  12
ENDBRANCH   5   8
BRANCH   6  20
ATOM     20  C   UNL     1       0.198   9.947  18.274  0.00  0.00    +0.000 C 
ATOM     21  O   UNL     1       1.117   9.976  17.462  0.00  0.00    +0.000 OA
BRANCH  20  22
ATOM     22  C   UNL     1      -1.183  10.337  17.821  0.00  0.00    +0.000 A 
ATOM     23  C   UNL     1      -1.838  11.400  18.459  0.00  0.00    +0.000 A 
ATOM     24  C   UNL     1      -3.148  11.738  18.101  0.00  0.00    +0.000 A 
ATOM     25  C   UNL     1      -3.812  11.021  17.107  0.00  0.00    +0.000 A 
ATOM     26  C   UNL     1      -3.155   9.985  16.442  0.00  0.00    +0.000 A 
ATOM     27  C   UNL     1      -1.850   9.635  16.807  0.00  0.00    +0.000 A 
ENDBRANCH  20  22
ENDBRANCH   6  20
TORSDOF 4
ENDMDL
MODEL 8
REMARK VINA RESULT:      -7.9      1.957      2.471
REMARK  Name = 
REMARK  5 active torsions:
REMARK  status: ('A' for Active; 'I' for Inactive)
REMARK    1  A    between atoms: C_1  and  C_2
REMARK    2  A    between atoms: C_5  and  N_6
REMARK    3  A    between atoms: C_7  and  C_9
REMARK    4  A    between atoms: C_17  and  C_18
REMARK    5  A    between atoms: C_18  and  C_20
REMARK                            x       y       z     vdW  Elec       q    Type
REMARK                         _______ _______ _______ _____ _____    ______ ____
ROOT
ATOM      1  C   UNL     1       7.069   4.401  14.077  0.00  0.00    +0.000 C 
ATOM      2  C   UNL     1       6.152   5.040  15.081  0.00  0.00    +0.000 A 
ATOM      3  C   UNL     1       5.606   6.295  14.868  0.00  0.00    +0.000 A 
ATOM      4  C   UNL     1       4.816   6.899  15.849  0.00  0.00    +0.000 A 
ATOM      5  C   UNL     1       4.572   6.285  17.086  0.00  0.00    +0.000 A 
ATOM      6  C   UNL     1       5.145   5.009  17.308  0.00  0.00    +0.000 A 
ATOM      7  C   UNL     1       5.882   4.381  16.284  0.00  0.00    +0.000 A 
ENDROOT
BRANCH   5   8
ATOM      8  N   UNL     1       3.830   6.973  18.096  0.00  0.00    +0.000 N 
ATOM      9  C   UNL     1       2.446   6.990  18.220  0.00  0.00    +0.000 C 
ATOM     10  O   UNL     1       1.695   6.265  17.573  0.00  0.00    +0.000 OA
ATOM     11  H   UNL     1       4.388   7.393  18.841  0.00  0.00    +0.000 HD
BRANCH   9  12
ATOM     12  C   UNL     1       1.787   7.922  19.203  0.00  0.00    +0.000 A 
ATOM     13  C   UNL     1       1.557   9.237  18.731  0.00  0.00    +0.000 A 
ATOM     14  C   UNL     1       1.008  10.230  19.549  0.00  0.00    +0.000 A 
ATOM     15  C   UNL     1       0.670   9.924  20.858  0.00  0.00    +0.000 A 
ATOM     16 CL   UNL     1       0.011  11.139  21.879  0.00  0.00    +0.000 Cl
ATOM     17  C   UNL     1       0.878   8.637  21.349  0.00  0.00    +0.000 A 
ATOM     18  C   UNL     1       1.440   7.640  20.532  0.00  0.00    +0.000 A 
ATOM     19 CL   UNL     1       1.703   6.113  21.300  0.00  0.00    +0.000 Cl
ENDBRANCH   9  12
ENDBRANCH   5   8
BRANCH   6  20
ATOM     20  C   UNL     1       4.978   4.264  18.588  0.00  0.00    +0.000 C 
ATOM     21  O   UNL     1       5.891   4.239  19.407  0.00  0.00    +0.000 OA
BRANCH  20  22
ATOM     22  C   UNL     1       3.699   3.536  18.906  0.00  0.00    +0.000 A 
ATOM     23  C   UNL     1       3.322   3.369  20.246  0.00  0.00    +0.000 A 
ATOM     24  C   UNL     1       2.173   2.638  20.568  0.00  0.00    +0.000 A 
ATOM     25  C   UNL     1       1.394   2.071  19.562  0.00  0.00    +0.000 A 
ATOM     26  C   UNL     1       1.743   2.264  18.224  0.00  0.00    +0.000 A 
ATOM     27  C   UNL     1       2.899   2.981  17.898  0.00  0.00    +0.000 A 
ENDBRANCH  20  22
ENDBRANCH   6  20
TORSDOF 4
ENDMDL
MODEL 9
REMARK VINA RESULT:      -7.9      2.200      2.885
REMARK  Name = 
REMARK  5 active torsions:
REMARK  status: ('A' for Active; 'I' for Inactive)
REMARK    1  A    between atoms: C_1  and  C_2
REMARK    2  A    between atoms: C_5  and  N_6
REMARK    3  A    between atoms: C_7  and  C_9
REMARK    4  A    between atoms: C_17  and  C_18
REMARK    5  A    between atoms: C_18  and  C_20
REMARK                            x       y       z     vdW  Elec       q    Type
REMARK                         _______ _______ _______ _____ _____    ______ ____
ROOT
ATOM      1  C   UNL     1       6.793   5.498  17.945  0.00  0.00    +0.000 C 
ATOM      2  C   UNL     1       5.431   6.127  17.860  0.00  0.00    +0.000 A 
ATOM      3  C   UNL     1       5.122   7.057  16.882  0.00  0.00    +0.000 A 
ATOM      4  C   UNL     1       3.873   7.683  16.869  0.00  0.00    +0.000 A 
ATOM      5  C   UNL     1       2.904   7.424  17.849  0.00  0.00    +0.000 A 
ATOM      6  C   UNL     1       3.229   6.485  18.858  0.00  0.00    +0.000 A 
ATOM      7  C   UNL     1       4.465   5.810  18.820  0.00  0.00    +0.000 A 
ENDROOT
BRANCH   5   8
ATOM      8  N   UNL     1       1.671   8.148  17.850  0.00  0.00    +0.000 N 
ATOM      9  C   UNL     1       1.525   9.505  18.108  0.00  0.00    +0.000 C 
ATOM     10  O   UNL     1       2.467  10.288  18.196  0.00  0.00    +0.000 OA
ATOM     11  H   UNL     1       0.856   7.625  17.526  0.00  0.00    +0.000 HD
BRANCH   9  12
ATOM     12  C   UNL     1       0.150  10.096  18.281  0.00  0.00    +0.000 A 
ATOM     13  C   UNL     1      -0.825   9.645  17.359  0.00  0.00    +0.000 A 
ATOM     14  C   UNL     1      -2.130  10.149  17.357  0.00  0.00    +0.000 A 
ATOM     15  C   UNL     1      -2.489  11.112  18.285  0.00  0.00    +0.000 A 
ATOM     16 CL   UNL     1      -4.084  11.753  18.283  0.00  0.00    +0.000 Cl
ATOM     17  C   UNL     1      -1.554  11.572  19.210  0.00  0.00    +0.000 A 
ATOM     18  C   UNL     1      -0.239  11.075  19.207  0.00  0.00    +0.000 A 
ATOM     19 CL   UNL     1       0.827  11.790  20.367  0.00  0.00    +0.000 Cl
ENDBRANCH   9  12
ENDBRANCH   5   8
BRANCH   6  20
ATOM     20  C   UNL     1       2.294   6.140  19.967  0.00  0.00    +0.000 C 
ATOM     21  O   UNL     1       1.842   7.027  20.686  0.00  0.00    +0.000 OA
BRANCH  20  22
ATOM     22  C   UNL     1       1.882   4.716  20.227  0.00  0.00    +0.000 A 
ATOM     23  C   UNL     1       2.184   4.131  21.464  0.00  0.00    +0.000 A 
ATOM     24  C   UNL     1       1.871   2.788  21.704  0.00  0.00    +0.000 A 
ATOM     25  C   UNL     1       1.257   2.022  20.716  0.00  0.00    +0.000 A 
ATOM     26  C   UNL     1       0.920   2.606  19.494  0.00  0.00    +0.000 A 
ATOM     27  C   UNL     1       1.244   3.944  19.245  0.00  0.00    +0.000 A 
ENDBRANCH  20  22
ENDBRANCH   6  20
TORSDOF 4
ENDMDL
