MODEL 1
REMARK VINA RESULT:      -8.4      0.000      0.000
REMARK  Name = 
REMARK  5 active torsions:
REMARK  status: ('A' for Active; 'I' for Inactive)
REMARK    1  A    between atoms: C_1  and  N_2
REMARK    2  A    between atoms: N_2  and  C_3
REMARK    3  A    between atoms: C_3  and  C_4
REMARK    4  A    between atoms: N_12  and  C_13
REMARK    5  A    between atoms: C_17  and  C_18
REMARK                            x       y       z     vdW  Elec       q    Type
REMARK                         _______ _______ _______ _____ _____    ______ ____
ROOT
ATOM      1  C   UNL     1       7.707   4.528  17.784  0.00  0.00    +0.000 C 
ATOM      2  N   UNL     1       6.430   5.039  17.324  0.00  0.00    +0.000 N 
ATOM      3  C   UNL     1       5.338   4.752  18.126  0.00  0.00    +0.000 C 
ATOM      4  O   UNL     1       5.454   4.051  19.126  0.00  0.00    +0.000 OA
ATOM      5  N   UNL     1       4.132   5.259  17.716  0.00  0.00    +0.000 N 
ATOM      6  H   UNL     1       4.186   6.165  17.265  0.00  0.00    +0.000 HD
ENDROOT
BRANCH   5   7
ATOM      7  C   UNL     1       2.894   5.014  18.457  0.00  0.00    +0.000 C 
ATOM      8  C   UNL     1       2.721   3.569  18.933  0.00  0.00    +0.000 C 
ATOM      9  C   UNL     1       1.684   3.651  20.040  0.00  0.00    +0.000 C 
ATOM     10  C   UNL     1       1.844   5.027  20.680  0.00  0.00    +0.000 C 
ATOM     11  C   UNL     1       2.729   5.866  19.738  0.00  0.00    +0.000 C 
BRANCH  11  12
ATOM     12  C   UNL     1       2.179   7.257  19.480  0.00  0.00    +0.000 A 
ATOM     13  C   UNL     1       1.530   7.949  20.514  0.00  0.00    +0.000 A 
ATOM     14  C   UNL     1       0.996   9.223  20.295  0.00  0.00    +0.000 A 
ATOM     15  C   UNL     1       1.116   9.816  19.042  0.00  0.00    +0.000 A 
ATOM     16 CL   UNL     1       0.461  11.384  18.772  0.00  0.00    +0.000 Cl
ATOM     17  C   UNL     1       1.762   9.148  18.006  0.00  0.00    +0.000 A 
ATOM     18  C   UNL     1       2.290   7.874  18.223  0.00  0.00    +0.000 A 
ENDBRANCH  11  12
ENDBRANCH   5   7
BRANCH   2  19
ATOM     19  C   UNL     1       6.424   5.935  16.169  0.00  0.00    +0.000 C 
BRANCH  19  20
ATOM     20  C   UNL     1       6.544   5.209  14.852  0.00  0.00    +0.000 A 
ATOM     21  C   UNL     1       5.590   4.275  14.462  0.00  0.00    +0.000 A 
ATOM     22  N   UNL     1       5.654   3.598  13.289  0.00  0.00    +0.000 NA
ATOM     23  C   UNL     1       6.725   3.887  12.518  0.00  0.00    +0.000 A 
ATOM     24  C   UNL     1       7.686   4.808  12.899  0.00  0.00    +0.000 A 
ATOM     25  N   UNL     1       7.621   5.488  14.068  0.00  0.00    +0.000 NA
ENDBRANCH  19  20
ENDBRANCH   2  19
TORSDOF 4
ENDMDL
MODEL 2
REMARK VINA RESULT:      -7.9      1.697      3.056
REMARK  Name = 
REMARK  5 active torsions:
REMARK  status: ('A' for Active; 'I' for Inactive)
REMARK    1  A    between atoms: C_1  and  N_2
REMARK    2  A    between atoms: N_2  and  C_3
REMARK    3  A    between atoms: C_3  and  C_4
REMARK    4  A    between atoms: N_12  and  C_13
REMARK    5  A    between atoms: C_17  and  C_18
REMARK                            x       y       z     vdW  Elec       q    Type
REMARK                         _______ _______ _______ _____ _____    ______ ____
ROOT
ATOM      1  C   UNL     1       6.073   3.921  15.227  0.00  0.00    +0.000 C 
ATOM      2  N   UNL     1       5.837   4.145  16.640  0.00  0.00    +0.000 N 
ATOM      3  C   UNL     1       4.524   4.018  17.062  0.00  0.00    +0.000 C 
ATOM      4  O   UNL     1       3.621   3.794  16.263  0.00  0.00    +0.000 OA
ATOM      5  N   UNL     1       4.296   4.195  18.403  0.00  0.00    +0.000 N 
ATOM      6  H   UNL     1       5.041   3.864  19.006  0.00  0.00    +0.000 HD
ENDROOT
BRANCH   5   7
ATOM      7  C   UNL     1       2.954   4.111  18.980  0.00  0.00    +0.000 C 
ATOM      8  C   UNL     1       2.593   2.730  19.534  0.00  0.00    +0.000 C 
ATOM      9  C   UNL     1       1.430   2.987  20.478  0.00  0.00    +0.000 C 
ATOM     10  C   UNL     1       1.625   4.397  21.029  0.00  0.00    +0.000 C 
ATOM     11  C   UNL     1       2.697   5.080  20.159  0.00  0.00    +0.000 C 
BRANCH  11  12
ATOM     12  C   UNL     1       2.311   6.483  19.724  0.00  0.00    +0.000 A 
ATOM     13  C   UNL     1       1.702   7.351  20.643  0.00  0.00    +0.000 A 
ATOM     14  C   UNL     1       1.318   8.640  20.260  0.00  0.00    +0.000 A 
ATOM     15  C   UNL     1       1.549   9.071  18.957  0.00  0.00    +0.000 A 
ATOM     16 CL   UNL     1       1.078  10.657  18.486  0.00  0.00    +0.000 Cl
ATOM     17  C   UNL     1       2.158   8.227  18.033  0.00  0.00    +0.000 A 
ATOM     18  C   UNL     1       2.536   6.937  18.414  0.00  0.00    +0.000 A 
ENDBRANCH  11  12
ENDBRANCH   5   7
BRANCH   2  19
ATOM     19  C   UNL     1       6.997   4.317  17.513  0.00  0.00    +0.000 C 
BRANCH  19  20
ATOM     20  C   UNL     1       7.381   5.762  17.714  0.00  0.00    +0.000 A 
ATOM     21  C   UNL     1       8.117   6.156  18.827  0.00  0.00    +0.000 A 
ATOM     22  N   UNL     1       8.486   7.442  19.051  0.00  0.00    +0.000 NA
ATOM     23  C   UNL     1       8.080   8.327  18.115  0.00  0.00    +0.000 A 
ATOM     24  C   UNL     1       7.340   7.948  17.008  0.00  0.00    +0.000 A 
ATOM     25  N   UNL     1       6.974   6.664  16.780  0.00  0.00    +0.000 NA
ENDBRANCH  19  20
ENDBRANCH   2  19
TORSDOF 4
ENDMDL
MODEL 3
REMARK VINA RESULT:      -7.8      0.568      1.013
REMARK  Name = 
REMARK  5 active torsions:
REMARK  status: ('A' for Active; 'I' for Inactive)
REMARK    1  A    between atoms: C_1  and  N_2
REMARK    2  A    between atoms: N_2  and  C_3
REMARK    3  A    between atoms: C_3  and  C_4
REMARK    4  A    between atoms: N_12  and  C_13
REMARK    5  A    between atoms: C_17  and  C_18
REMARK                            x       y       z     vdW  Elec       q    Type
REMARK                         _______ _______ _______ _____ _____    ______ ____
ROOT
ATOM      1  C   UNL     1       7.518   4.460  17.392  0.00  0.00    +0.000 C 
ATOM      2  N   UNL     1       6.203   4.946  17.024  0.00  0.00    +0.000 N 
ATOM      3  C   UNL     1       5.186   4.690  17.929  0.00  0.00    +0.000 C 
ATOM      4  O   UNL     1       5.394   4.033  18.944  0.00  0.00    +0.000 OA
ATOM      5  N   UNL     1       3.946   5.174  17.605  0.00  0.00    +0.000 N 
ATOM      6  H   UNL     1       3.953   6.060  17.112  0.00  0.00    +0.000 HD
ENDROOT
BRANCH   5   7
ATOM      7  C   UNL     1       2.778   4.957  18.460  0.00  0.00    +0.000 C 
ATOM      8  C   UNL     1       2.636   3.523  18.978  0.00  0.00    +0.000 C 
ATOM      9  C   UNL     1       1.706   3.637  20.173  0.00  0.00    +0.000 C 
ATOM     10  C   UNL     1       1.937   5.024  20.769  0.00  0.00    +0.000 C 
ATOM     11  C   UNL     1       2.739   5.835  19.733  0.00  0.00    +0.000 C 
BRANCH  11  12
ATOM     12  C   UNL     1       2.181   7.227  19.500  0.00  0.00    +0.000 A 
ATOM     13  C   UNL     1       1.539   7.902  20.549  0.00  0.00    +0.000 A 
ATOM     14  C   UNL     1       0.998   9.177  20.352  0.00  0.00    +0.000 A 
ATOM     15  C   UNL     1       1.103   9.786  19.106  0.00  0.00    +0.000 A 
ATOM     16 CL   UNL     1       0.438  11.355  18.863  0.00  0.00    +0.000 Cl
ATOM     17  C   UNL     1       1.741   9.135  18.054  0.00  0.00    +0.000 A 
ATOM     18  C   UNL     1       2.277   7.860  18.250  0.00  0.00    +0.000 A 
ENDBRANCH  11  12
ENDBRANCH   5   7
BRANCH   2  19
ATOM     19  C   UNL     1       6.090   5.792  15.836  0.00  0.00    +0.000 C 
BRANCH  19  20
ATOM     20  C   UNL     1       6.319   5.041  14.547  0.00  0.00    +0.000 A 
ATOM     21  C   UNL     1       7.441   5.294  13.765  0.00  0.00    +0.000 A 
ATOM     22  N   UNL     1       7.690   4.646  12.600  0.00  0.00    +0.000 NA
ATOM     23  C   UNL     1       6.761   3.733  12.240  0.00  0.00    +0.000 A 
ATOM     24  C   UNL     1       5.636   3.480  13.007  0.00  0.00    +0.000 A 
ATOM     25  N   UNL     1       5.387   4.123  14.172  0.00  0.00    +0.000 NA
ENDBRANCH  19  20
ENDBRANCH   2  19
TORSDOF 4
ENDMDL
MODEL 4
REMARK VINA RESULT:      -7.7      1.889      3.148
REMARK  Name = 
REMARK  5 active torsions:
REMARK  status: ('A' for Active; 'I' for Inactive)
REMARK    1  A    between atoms: C_1  and  N_2
REMARK    2  A    between atoms: N_2  and  C_3
REMARK    3  A    between atoms: C_3  and  C_4
REMARK    4  A    between atoms: N_12  and  C_13
REMARK    5  A    between atoms: C_17  and  C_18
REMARK                            x       y       z     vdW  Elec       q    Type
REMARK                         _______ _______ _______ _____ _____    ______ ____
ROOT
ATOM      1  C   UNL     1       6.935   4.261  15.860  0.00  0.00    +0.000 C 
ATOM      2  N   UNL     1       6.400   4.631  17.156  0.00  0.00    +0.000 N 
ATOM      3  C   UNL     1       5.060   4.347  17.361  0.00  0.00    +0.000 C 
ATOM      4  O   UNL     1       4.369   3.873  16.465  0.00  0.00    +0.000 OA
ATOM      5  N   UNL     1       4.553   4.662  18.596  0.00  0.00    +0.000 N 
ATOM      6  H   UNL     1       5.205   4.541  19.363  0.00  0.00    +0.000 HD
ENDROOT
BRANCH   5   7
ATOM      7  C   UNL     1       3.149   4.436  18.940  0.00  0.00    +0.000 C 
ATOM      8  C   UNL     1       2.823   2.995  19.340  0.00  0.00    +0.000 C 
ATOM      9  C   UNL     1       1.509   3.094  20.095  0.00  0.00    +0.000 C 
ATOM     10  C   UNL     1       1.494   4.469  20.758  0.00  0.00    +0.000 C 
ATOM     11  C   UNL     1       2.628   5.293  20.118  0.00  0.00    +0.000 C 
BRANCH  11  12
ATOM     12  C   UNL     1       2.198   6.692  19.714  0.00  0.00    +0.000 A 
ATOM     13  C   UNL     1       1.608   7.538  20.665  0.00  0.00    +0.000 A 
ATOM     14  C   UNL     1       1.184   8.823  20.311  0.00  0.00    +0.000 A 
ATOM     15  C   UNL     1       1.356   9.272  19.005  0.00  0.00    +0.000 A 
ATOM     16 CL   UNL     1       0.837  10.853  18.569  0.00  0.00    +0.000 Cl
ATOM     17  C   UNL     1       1.946   8.450  18.049  0.00  0.00    +0.000 A 
ATOM     18  C   UNL     1       2.364   7.164  18.402  0.00  0.00    +0.000 A 
ENDBRANCH  11  12
ENDBRANCH   5   7
BRANCH   2  19
ATOM     19  C   UNL     1       7.334   5.106  18.175  0.00  0.00    +0.000 C 
BRANCH  19  20
ATOM     20  C   UNL     1       7.581   6.593  18.108  0.00  0.00    +0.000 A 
ATOM     21  C   UNL     1       6.869   7.395  17.222  0.00  0.00    +0.000 A 
ATOM     22  N   UNL     1       7.055   8.735  17.125  0.00  0.00    +0.000 NA
ATOM     23  C   UNL     1       7.995   9.245  17.950  0.00  0.00    +0.000 A 
ATOM     24  C   UNL     1       8.716   8.456  18.830  0.00  0.00    +0.000 A 
ATOM     25  N   UNL     1       8.529   7.118  18.932  0.00  0.00    +0.000 NA
ENDBRANCH  19  20
ENDBRANCH   2  19
TORSDOF 4
ENDMDL
MODEL 5
REMARK VINA RESULT:      -7.7      1.726      3.189
REMARK  Name = 
REMARK  5 active torsions:
REMARK  status: ('A' for Active; 'I' for Inactive)
REMARK    1  A    between atoms: C_1  and  N_2
REMARK    2  A    between atoms: N_2  and  C_3
REMARK    3  A    between atoms: C_3  and  C_4
REMARK    4  A    between atoms: N_12  and  C_13
REMARK    5  A    between atoms: C_17  and  C_18
REMARK                            x       y       z     vdW  Elec       q    Type
REMARK                         _______ _______ _______ _____ _____    ______ ____
ROOT
ATOM      1  C   UNL     1       5.356   4.108  14.769  0.00  0.00    +0.000 C 
ATOM      2  N   UNL     1       5.424   4.107  16.217  0.00  0.00    +0.000 N 
ATOM      3  C   UNL     1       4.211   4.016  16.880  0.00  0.00    +0.000 C 
ATOM      4  O   UNL     1       3.151   4.004  16.263  0.00  0.00    +0.000 OA
ATOM      5  N   UNL     1       4.268   3.981  18.250  0.00  0.00    +0.000 N 
ATOM      6  H   UNL     1       5.073   3.494  18.627  0.00  0.00    +0.000 HD
ENDROOT
BRANCH   5   7
ATOM      7  C   UNL     1       3.062   3.908  19.076  0.00  0.00    +0.000 C 
ATOM      8  C   UNL     1       2.853   2.558  19.765  0.00  0.00    +0.000 C 
ATOM      9  C   UNL     1       1.882   2.850  20.896  0.00  0.00    +0.000 C 
ATOM     10  C   UNL     1       2.136   4.295  21.320  0.00  0.00    +0.000 C 
ATOM     11  C   UNL     1       3.004   4.943  20.224  0.00  0.00    +0.000 C 
BRANCH  11  12
ATOM     12  C   UNL     1       2.501   6.309  19.792  0.00  0.00    +0.000 A 
ATOM     13  C   UNL     1       2.741   6.754  18.483  0.00  0.00    +0.000 A 
ATOM     14  C   UNL     1       2.307   8.017  18.068  0.00  0.00    +0.000 A 
ATOM     15  C   UNL     1       1.622   8.838  18.959  0.00  0.00    +0.000 A 
ATOM     16 CL   UNL     1       1.085  10.392  18.449  0.00  0.00    +0.000 Cl
ATOM     17  C   UNL     1       1.368   8.412  20.259  0.00  0.00    +0.000 A 
ATOM     18  C   UNL     1       1.807   7.153  20.675  0.00  0.00    +0.000 A 
ENDBRANCH  11  12
ENDBRANCH   5   7
BRANCH   2  19
ATOM     19  C   UNL     1       6.743   4.035  16.844  0.00  0.00    +0.000 C 
BRANCH  19  20
ATOM     20  C   UNL     1       7.222   5.363  17.375  0.00  0.00    +0.000 A 
ATOM     21  C   UNL     1       7.786   5.463  18.643  0.00  0.00    +0.000 A 
ATOM     22  N   UNL     1       8.232   6.633  19.163  0.00  0.00    +0.000 NA
ATOM     23  C   UNL     1       8.083   7.711  18.363  0.00  0.00    +0.000 A 
ATOM     24  C   UNL     1       7.515   7.626  17.103  0.00  0.00    +0.000 A 
ATOM     25  N   UNL     1       7.073   6.457  16.579  0.00  0.00    +0.000 NA
ENDBRANCH  19  20
ENDBRANCH   2  19
TORSDOF 4
ENDMDL
MODEL 6
REMARK VINA RESULT:      -7.6      0.739      1.233
REMARK  Name = 
REMARK  5 active torsions:
REMARK  status: ('A' for Active; 'I' for Inactive)
REMARK    1  A    between atoms: C_1  and  N_2
REMARK    2  A    between atoms: N_2  and  C_3
REMARK    3  A    between atoms: C_3  and  C_4
REMARK    4  A    between atoms: N_12  and  C_13
REMARK    5  A    between atoms: C_17  and  C_18
REMARK                            x       y       z     vdW  Elec       q    Type
REMARK                         _______ _______ _______ _____ _____    ______ ____
ROOT
ATOM      1  C   UNL     1       7.604   5.277  18.699  0.00  0.00    +0.000 C 
ATOM      2  N   UNL     1       6.377   5.650  18.021  0.00  0.00    +0.000 N 
ATOM      3  C   UNL     1       5.202   5.375  18.699  0.00  0.00    +0.000 C 
ATOM      4  O   UNL     1       5.216   4.791  19.778  0.00  0.00    +0.000 OA
ATOM      5  N   UNL     1       4.039   5.755  18.081  0.00  0.00    +0.000 N 
ATOM      6  H   UNL     1       4.106   6.611  17.542  0.00  0.00    +0.000 HD
ENDROOT
BRANCH   5   7
ATOM      7  C   UNL     1       2.725   5.505  18.675  0.00  0.00    +0.000 C 
ATOM      8  C   UNL     1       2.492   4.053  19.098  0.00  0.00    +0.000 C 
ATOM      9  C   UNL     1       1.339   4.121  20.086  0.00  0.00    +0.000 C 
ATOM     10  C   UNL     1       1.436   5.483  20.769  0.00  0.00    +0.000 C 
ATOM     11  C   UNL     1       2.425   6.333  19.947  0.00  0.00    +0.000 C 
BRANCH  11  12
ATOM     12  C   UNL     1       1.915   7.734  19.660  0.00  0.00    +0.000 A 
ATOM     13  C   UNL     1       2.089   8.287  18.383  0.00  0.00    +0.000 A 
ATOM     14  C   UNL     1       1.647   9.583  18.100  0.00  0.00    +0.000 A 
ATOM     15  C   UNL     1       1.020  10.331  19.092  0.00  0.00    +0.000 A 
ATOM     16 CL   UNL     1       0.474  11.925  18.745  0.00  0.00    +0.000 Cl
ATOM     17  C   UNL     1       0.832   9.797  20.364  0.00  0.00    +0.000 A 
ATOM     18  C   UNL     1       1.279   8.504  20.647  0.00  0.00    +0.000 A 
ENDBRANCH  11  12
ENDBRANCH   5   7
BRANCH   2  19
ATOM     19  C   UNL     1       6.483   6.420  16.782  0.00  0.00    +0.000 C 
BRANCH  19  20
ATOM     20  C   UNL     1       6.485   5.557  15.544  0.00  0.00    +0.000 A 
ATOM     21  C   UNL     1       5.374   4.790  15.208  0.00  0.00    +0.000 A 
ATOM     22  N   UNL     1       5.327   4.000  14.107  0.00  0.00    +0.000 NA
ATOM     23  C   UNL     1       6.448   4.000  13.353  0.00  0.00    +0.000 A 
ATOM     24  C   UNL     1       7.563   4.752  13.682  0.00  0.00    +0.000 A 
ATOM     25  N   UNL     1       7.610   5.545  14.779  0.00  0.00    +0.000 NA
ENDBRANCH  19  20
ENDBRANCH   2  19
TORSDOF 4
ENDMDL
MODEL 7
REMARK VINA RESULT:      -7.2      3.899      7.438
REMARK  Name = 
REMARK  5 active torsions:
REMARK  status: ('A' for Active; 'I' for Inactive)
REMARK    1  A    between atoms: C_1  and  N_2
REMARK    2  A    between atoms: N_2  and  C_3
REMARK    3  A    between atoms: C_3  and  C_4
REMARK    4  A    between atoms: N_12  and  C_13
REMARK    5  A    between atoms: C_17  and  C_18
REMARK                            x       y       z     vdW  Elec       q    Type
REMARK                         _______ _______ _______ _____ _____    ______ ____
ROOT
ATOM      1  C   UNL     1       0.708  10.214  21.151  0.00  0.00    +0.000 C 
ATOM      2  N   UNL     1       1.245   9.379  20.094  0.00  0.00    +0.000 N 
ATOM      3  C   UNL     1       1.533   8.070  20.442  0.00  0.00    +0.000 C 
ATOM      4  O   UNL     1       1.398   7.678  21.597  0.00  0.00    +0.000 OA
ATOM      5  N   UNL     1       2.009   7.264  19.441  0.00  0.00    +0.000 N 
ATOM      6  H   UNL     1       1.621   7.455  18.524  0.00  0.00    +0.000 HD
ENDROOT
BRANCH   5   7
ATOM      7  C   UNL     1       2.375   5.867  19.675  0.00  0.00    +0.000 C 
ATOM      8  C   UNL     1       1.522   5.163  20.733  0.00  0.00    +0.000 C 
ATOM      9  C   UNL     1       1.728   3.681  20.468  0.00  0.00    +0.000 C 
ATOM     10  C   UNL     1       1.991   3.543  18.971  0.00  0.00    +0.000 C 
ATOM     11  C   UNL     1       2.275   4.957  18.428  0.00  0.00    +0.000 C 
BRANCH  11  12
ATOM     12  C   UNL     1       3.496   5.018  17.527  0.00  0.00    +0.000 A 
ATOM     13  C   UNL     1       4.026   3.832  16.996  0.00  0.00    +0.000 A 
ATOM     14  C   UNL     1       5.162   3.861  16.181  0.00  0.00    +0.000 A 
ATOM     15  C   UNL     1       5.769   5.078  15.885  0.00  0.00    +0.000 A 
ATOM     16 CL   UNL     1       7.166   5.114  14.881  0.00  0.00    +0.000 Cl
ATOM     17  C   UNL     1       5.254   6.265  16.396  0.00  0.00    +0.000 A 
ATOM     18  C   UNL     1       4.122   6.235  17.215  0.00  0.00    +0.000 A 
ENDBRANCH  11  12
ENDBRANCH   5   7
BRANCH   2  19
ATOM     19  C   UNL     1       1.280   9.925  18.738  0.00  0.00    +0.000 C 
BRANCH  19  20
ATOM     20  C   UNL     1      -0.036  10.521  18.302  0.00  0.00    +0.000 A 
ATOM     21  C   UNL     1      -1.005   9.737  17.686  0.00  0.00    +0.000 A 
ATOM     22  N   UNL     1      -2.202  10.226  17.278  0.00  0.00    +0.000 NA
ATOM     23  C   UNL     1      -2.391  11.544  17.504  0.00  0.00    +0.000 A 
ATOM     24  C   UNL     1      -1.430  12.337  18.109  0.00  0.00    +0.000 A 
ATOM     25  N   UNL     1      -0.236  11.849  18.521  0.00  0.00    +0.000 NA
ENDBRANCH  19  20
ENDBRANCH   2  19
TORSDOF 4
ENDMDL
MODEL 8
REMARK VINA RESULT:      -7.1      1.123      1.299
REMARK  Name = 
REMARK  5 active torsions:
REMARK  status: ('A' for Active; 'I' for Inactive)
REMARK    1  A    between atoms: C_1  and  N_2
REMARK    2  A    between atoms: N_2  and  C_3
REMARK    3  A    between atoms: C_3  and  C_4
REMARK    4  A    between atoms: N_12  and  C_13
REMARK    5  A    between atoms: C_17  and  C_18
REMARK                            x       y       z     vdW  Elec       q    Type
REMARK                         _______ _______ _______ _____ _____    ______ ____
ROOT
ATOM      1  C   UNL     1       7.879   5.633  19.516  0.00  0.00    +0.000 C 
ATOM      2  N   UNL     1       6.787   5.798  18.576  0.00  0.00    +0.000 N 
ATOM      3  C   UNL     1       5.528   5.464  19.046  0.00  0.00    +0.000 C 
ATOM      4  O   UNL     1       5.375   4.996  20.169  0.00  0.00    +0.000 OA
ATOM      5  N   UNL     1       4.485   5.649  18.176  0.00  0.00    +0.000 N 
ATOM      6  H   UNL     1       4.584   6.449  17.561  0.00  0.00    +0.000 HD
ENDROOT
BRANCH   5   7
ATOM      7  C   UNL     1       3.106   5.316  18.534  0.00  0.00    +0.000 C 
ATOM      8  C   UNL     1       2.870   3.830  18.817  0.00  0.00    +0.000 C 
ATOM      9  C   UNL     1       1.575   3.791  19.610  0.00  0.00    +0.000 C 
ATOM     10  C   UNL     1       1.505   5.102  20.387  0.00  0.00    +0.000 C 
ATOM     11  C   UNL     1       2.573   6.040  19.793  0.00  0.00    +0.000 C 
BRANCH  11  12
ATOM     12  C   UNL     1       2.056   7.441  19.521  0.00  0.00    +0.000 A 
ATOM     13  C   UNL     1       1.446   8.169  20.554  0.00  0.00    +0.000 A 
ATOM     14  C   UNL     1       0.942   9.452  20.322  0.00  0.00    +0.000 A 
ATOM     15  C   UNL     1       1.054  10.020  19.056  0.00  0.00    +0.000 A 
ATOM     16 CL   UNL     1       0.437  11.600  18.770  0.00  0.00    +0.000 Cl
ATOM     17  C   UNL     1       1.663   9.317  18.020  0.00  0.00    +0.000 A 
ATOM     18  C   UNL     1       2.160   8.032  18.251  0.00  0.00    +0.000 A 
ENDBRANCH  11  12
ENDBRANCH   5   7
BRANCH   2  19
ATOM     19  C   UNL     1       7.072   6.447  17.298  0.00  0.00    +0.000 C 
BRANCH  19  20
ATOM     20  C   UNL     1       6.571   5.665  16.109  0.00  0.00    +0.000 A 
ATOM     21  C   UNL     1       7.083   4.404  15.817  0.00  0.00    +0.000 A 
ATOM     22  N   UNL     1       6.666   3.663  14.762  0.00  0.00    +0.000 NA
ATOM     23  C   UNL     1       5.713   4.239  13.996  0.00  0.00    +0.000 A 
ATOM     24  C   UNL     1       5.203   5.497  14.271  0.00  0.00    +0.000 A 
ATOM     25  N   UNL     1       5.615   6.237  15.327  0.00  0.00    +0.000 NA
ENDBRANCH  19  20
ENDBRANCH   2  19
TORSDOF 4
ENDMDL
MODEL 9
REMARK VINA RESULT:      -7.1      3.942      7.455
REMARK  Name = 
REMARK  5 active torsions:
REMARK  status: ('A' for Active; 'I' for Inactive)
REMARK    1  A    between atoms: C_1  and  N_2
REMARK    2  A    between atoms: N_2  and  C_3
REMARK    3  A    between atoms: C_3  and  C_4
REMARK    4  A    between atoms: N_12  and  C_13
REMARK    5  A    between atoms: C_17  and  C_18
REMARK                            x       y       z     vdW  Elec       q    Type
REMARK                         _______ _______ _______ _____ _____    ______ ____
ROOT
ATOM      1  C   UNL     1       0.837  10.490  20.938  0.00  0.00    +0.000 C 
ATOM      2  N   UNL     1       1.248   9.560  19.903  0.00  0.00    +0.000 N 
ATOM      3  C   UNL     1       1.569   8.282  20.330  0.00  0.00    +0.000 C 
ATOM      4  O   UNL     1       1.565   7.993  21.522  0.00  0.00    +0.000 OA
ATOM      5  N   UNL     1       1.926   7.387  19.355  0.00  0.00    +0.000 N 
ATOM      6  H   UNL     1       1.436   7.502  18.475  0.00  0.00    +0.000 HD
ENDROOT
BRANCH   5   7
ATOM      7  C   UNL     1       2.311   6.010  19.667  0.00  0.00    +0.000 C 
ATOM      8  C   UNL     1       1.461   5.350  20.755  0.00  0.00    +0.000 C 
ATOM      9  C   UNL     1       1.692   3.860  20.573  0.00  0.00    +0.000 C 
ATOM     10  C   UNL     1       1.971   3.645  19.087  0.00  0.00    +0.000 C 
ATOM     11  C   UNL     1       2.237   5.032  18.471  0.00  0.00    +0.000 C 
BRANCH  11  12
ATOM     12  C   UNL     1       3.464   5.064  17.577  0.00  0.00    +0.000 A 
ATOM     13  C   UNL     1       4.078   6.292  17.286  0.00  0.00    +0.000 A 
ATOM     14  C   UNL     1       5.197   6.349  16.448  0.00  0.00    +0.000 A 
ATOM     15  C   UNL     1       5.713   5.177  15.904  0.00  0.00    +0.000 A 
ATOM     16 CL   UNL     1       7.090   5.246  14.875  0.00  0.00    +0.000 Cl
ATOM     17  C   UNL     1       5.122   3.949  16.187  0.00  0.00    +0.000 A 
ATOM     18  C   UNL     1       4.001   3.893  17.019  0.00  0.00    +0.000 A 
ENDBRANCH  11  12
ENDBRANCH   5   7
BRANCH   2  19
ATOM     19  C   UNL     1       1.130   9.986  18.510  0.00  0.00    +0.000 C 
BRANCH  19  20
ATOM     20  C   UNL     1      -0.249  10.487  18.156  0.00  0.00    +0.000 A 
ATOM     21  C   UNL     1      -1.190   9.639  17.581  0.00  0.00    +0.000 A 
ATOM     22  N   UNL     1      -2.441  10.042  17.246  0.00  0.00    +0.000 NA
ATOM     23  C   UNL     1      -2.713  11.340  17.502  0.00  0.00    +0.000 A 
ATOM     24  C   UNL     1      -1.782  12.196  18.066  0.00  0.00    +0.000 A 
ATOM     25  N   UNL     1      -0.534  11.794  18.405  0.00  0.00    +0.000 NA
ENDBRANCH  19  20
ENDBRANCH   2  19
TORSDOF 4
ENDMDL
