MODEL 1
REMARK VINA RESULT:      -8.6      0.000      0.000
REMARK  Name = 
REMARK  6 active torsions:
REMARK  status: ('A' for Active; 'I' for Inactive)
REMARK    1  A    between atoms: C_1  and  C_2
REMARK    2  A    between atoms: C_8  and  C_9
REMARK    3  A    between atoms: N_11  and  C_12
REMARK    4  A    between atoms: C_12  and  C_13
REMARK    5  A    between atoms: C_13  and  C_14
REMARK    6  A    between atoms: C_21  and  O_22
REMARK                            x       y       z     vdW  Elec       q    Type
REMARK                         _______ _______ _______ _____ _____    ______ ____
ROOT
ATOM      1  C   UNL     1      -0.611   9.962  23.005  0.00  0.00    +0.000 C 
ATOM      2  C   UNL     1      -0.058   9.773  21.626  0.00  0.00    +0.000 A 
ATOM      3  C   UNL     1      -0.267  10.724  20.640  0.00  0.00    +0.000 A 
ATOM      4  C   UNL     1       0.344  10.543  19.408  0.00  0.00    +0.000 A 
ATOM      5  C   UNL     1       1.155   9.426  19.186  0.00  0.00    +0.000 A 
ATOM      6  C   UNL     1       1.830   9.278  17.973  0.00  0.00    +0.000 A 
ATOM      7  C   UNL     1       2.667   8.187  17.755  0.00  0.00    +0.000 A 
ATOM      8  C   UNL     1       2.806   7.199  18.736  0.00  0.00    +0.000 A 
ATOM      9  C   UNL     1       2.102   7.351  19.951  0.00  0.00    +0.000 A 
ATOM     10  C   UNL     1       1.295   8.473  20.218  0.00  0.00    +0.000 A 
ATOM     11  N   UNL     1       0.689   8.660  21.415  0.00  0.00    +0.000 NA
ENDROOT
BRANCH   8  12
ATOM     12  C   UNL     1       3.696   6.010  18.533  0.00  0.00    +0.000 C 
ATOM     13  O   UNL     1       4.560   5.759  19.370  0.00  0.00    +0.000 OA
ATOM     14  N   UNL     1       3.520   5.229  17.408  0.00  0.00    +0.000 N 
ATOM     15  H   UNL     1       2.757   5.388  16.769  0.00  0.00    +0.000 HD
BRANCH  14  16
ATOM     16  C   UNL     1       4.366   4.069  17.180  0.00  0.00    +0.000 C 
BRANCH  16  17
ATOM     17  C   UNL     1       3.606   2.758  17.382  0.00  0.00    +0.000 C 
BRANCH  17  18
ATOM     18  C   UNL     1       2.870   2.714  18.696  0.00  0.00    +0.000 A 
ATOM     19  C   UNL     1       3.574   2.555  19.900  0.00  0.00    +0.000 A 
ATOM     20  C   UNL     1       2.892   2.550  21.118  0.00  0.00    +0.000 A 
ATOM     21  C   UNL     1       1.510   2.686  21.131  0.00  0.00    +0.000 A 
ATOM     22  F   UNL     1       0.859   2.695  22.303  0.00  0.00    +0.000 F 
ATOM     23  C   UNL     1       0.793   2.813  19.949  0.00  0.00    +0.000 A 
ATOM     24  C   UNL     1       1.472   2.826  18.730  0.00  0.00    +0.000 A 
ENDBRANCH  17  18
ENDBRANCH  16  17
ENDBRANCH  14  16
ENDBRANCH   8  12
BRANCH   9  25
ATOM     25  O   UNL     1       2.184   6.394  20.950  0.00  0.00    +0.000 OA
ATOM     26  H   UNL     1       1.291   6.009  21.097  0.00  0.00    +0.000 HD
ENDBRANCH   9  25
TORSDOF 5
ENDMDL
MODEL 2
REMARK VINA RESULT:      -8.6      0.231      1.011
REMARK  Name = 
REMARK  6 active torsions:
REMARK  status: ('A' for Active; 'I' for Inactive)
REMARK    1  A    between atoms: C_1  and  C_2
REMARK    2  A    between atoms: C_8  and  C_9
REMARK    3  A    between atoms: N_11  and  C_12
REMARK    4  A    between atoms: C_12  and  C_13
REMARK    5  A    between atoms: C_13  and  C_14
REMARK    6  A    between atoms: C_21  and  O_22
REMARK                            x       y       z     vdW  Elec       q    Type
REMARK                         _______ _______ _______ _____ _____    ______ ____
ROOT
ATOM      1  C   UNL     1      -0.428   9.669  23.043  0.00  0.00    +0.000 C 
ATOM      2  C   UNL     1       0.099   9.544  21.647  0.00  0.00    +0.000 A 
ATOM      3  C   UNL     1      -0.140  10.533  20.706  0.00  0.00    +0.000 A 
ATOM      4  C   UNL     1       0.448  10.410  19.456  0.00  0.00    +0.000 A 
ATOM      5  C   UNL     1       1.266   9.313  19.171  0.00  0.00    +0.000 A 
ATOM      6  C   UNL     1       1.917   9.223  17.940  0.00  0.00    +0.000 A 
ATOM      7  C   UNL     1       2.761   8.151  17.660  0.00  0.00    +0.000 A 
ATOM      8  C   UNL     1       2.929   7.124  18.596  0.00  0.00    +0.000 A 
ATOM      9  C   UNL     1       2.249   7.218  19.830  0.00  0.00    +0.000 A 
ATOM     10  C   UNL     1       1.436   8.318  20.159  0.00  0.00    +0.000 A 
ATOM     11  N   UNL     1       0.853   8.449  21.374  0.00  0.00    +0.000 NA
ENDROOT
BRANCH   8  12
ATOM     12  C   UNL     1       3.827   5.954  18.325  0.00  0.00    +0.000 C 
ATOM     13  O   UNL     1       4.884   5.856  18.943  0.00  0.00    +0.000 OA
ATOM     14  N   UNL     1       3.439   5.018  17.386  0.00  0.00    +0.000 N 
ATOM     15  H   UNL     1       2.535   5.057  16.945  0.00  0.00    +0.000 HD
BRANCH  14  16
ATOM     16  C   UNL     1       4.286   3.872  17.100  0.00  0.00    +0.000 C 
BRANCH  16  17
ATOM     17  C   UNL     1       3.600   2.552  17.450  0.00  0.00    +0.000 C 
BRANCH  17  18
ATOM     18  C   UNL     1       2.867   2.614  18.766  0.00  0.00    +0.000 A 
ATOM     19  C   UNL     1       1.463   2.643  18.796  0.00  0.00    +0.000 A 
ATOM     20  C   UNL     1       0.787   2.665  20.017  0.00  0.00    +0.000 A 
ATOM     21  C   UNL     1       1.511   2.675  21.203  0.00  0.00    +0.000 A 
ATOM     22  F   UNL     1       0.859   2.681  22.374  0.00  0.00    +0.000 F 
ATOM     23  C   UNL     1       2.900   2.678  21.192  0.00  0.00    +0.000 A 
ATOM     24  C   UNL     1       3.579   2.649  19.974  0.00  0.00    +0.000 A 
ENDBRANCH  17  18
ENDBRANCH  16  17
ENDBRANCH  14  16
ENDBRANCH   8  12
BRANCH   9  25
ATOM     25  O   UNL     1       2.360   6.220  20.786  0.00  0.00    +0.000 OA
ATOM     26  H   UNL     1       2.015   5.380  20.411  0.00  0.00    +0.000 HD
ENDBRANCH   9  25
TORSDOF 5
ENDMDL
MODEL 3
REMARK VINA RESULT:      -8.1      5.520      8.390
REMARK  Name = 
REMARK  6 active torsions:
REMARK  status: ('A' for Active; 'I' for Inactive)
REMARK    1  A    between atoms: C_1  and  C_2
REMARK    2  A    between atoms: C_8  and  C_9
REMARK    3  A    between atoms: N_11  and  C_12
REMARK    4  A    between atoms: C_12  and  C_13
REMARK    5  A    between atoms: C_13  and  C_14
REMARK    6  A    between atoms: C_21  and  O_22
REMARK                            x       y       z     vdW  Elec       q    Type
REMARK                         _______ _______ _______ _____ _____    ______ ____
ROOT
ATOM      1  C   UNL     1       2.024   2.974  21.409  0.00  0.00    +0.000 C 
ATOM      2  C   UNL     1       2.631   3.052  20.043  0.00  0.00    +0.000 A 
ATOM      3  C   UNL     1       2.115   2.310  18.992  0.00  0.00    +0.000 A 
ATOM      4  C   UNL     1       2.658   2.489  17.729  0.00  0.00    +0.000 A 
ATOM      5  C   UNL     1       3.694   3.407  17.535  0.00  0.00    +0.000 A 
ATOM      6  C   UNL     1       4.193   3.643  16.253  0.00  0.00    +0.000 A 
ATOM      7  C   UNL     1       5.202   4.580  16.045  0.00  0.00    +0.000 A 
ATOM      8  C   UNL     1       5.762   5.265  17.130  0.00  0.00    +0.000 A 
ATOM      9  C   UNL     1       5.261   5.003  18.424  0.00  0.00    +0.000 A 
ATOM     10  C   UNL     1       4.204   4.102  18.653  0.00  0.00    +0.000 A 
ATOM     11  N   UNL     1       3.667   3.915  19.883  0.00  0.00    +0.000 NA
ENDROOT
BRANCH   8  12
ATOM     12  C   UNL     1       6.851   6.278  16.942  0.00  0.00    +0.000 C 
ATOM     13  O   UNL     1       7.760   6.038  16.151  0.00  0.00    +0.000 OA
ATOM     14  N   UNL     1       6.801   7.454  17.664  0.00  0.00    +0.000 N 
ATOM     15  H   UNL     1       6.011   7.683  18.245  0.00  0.00    +0.000 HD
BRANCH  14  16
ATOM     16  C   UNL     1       7.841   8.457  17.505  0.00  0.00    +0.000 C 
BRANCH  16  17
ATOM     17  C   UNL     1       8.583   8.725  18.813  0.00  0.00    +0.000 C 
BRANCH  17  18
ATOM     18  C   UNL     1       9.121  10.131  18.893  0.00  0.00    +0.000 A 
ATOM     19  C   UNL     1       8.942  11.023  17.824  0.00  0.00    +0.000 A 
ATOM     20  C   UNL     1       9.411  12.334  17.916  0.00  0.00    +0.000 A 
ATOM     21  C   UNL     1      10.072  12.748  19.065  0.00  0.00    +0.000 A 
ATOM     22  F   UNL     1      10.508  14.012  19.158  0.00  0.00    +0.000 F 
ATOM     23  C   UNL     1      10.286  11.872  20.122  0.00  0.00    +0.000 A 
ATOM     24  C   UNL     1       9.812  10.562  20.036  0.00  0.00    +0.000 A 
ENDBRANCH  17  18
ENDBRANCH  16  17
ENDBRANCH  14  16
ENDBRANCH   8  12
BRANCH   9  25
ATOM     25  O   UNL     1       5.791   5.634  19.538  0.00  0.00    +0.000 OA
ATOM     26  H   UNL     1       6.479   5.055  19.936  0.00  0.00    +0.000 HD
ENDBRANCH   9  25
TORSDOF 5
ENDMDL
MODEL 4
REMARK VINA RESULT:      -8.0      2.727      3.813
REMARK  Name = 
REMARK  6 active torsions:
REMARK  status: ('A' for Active; 'I' for Inactive)
REMARK    1  A    between atoms: C_1  and  C_2
REMARK    2  A    between atoms: C_8  and  C_9
REMARK    3  A    between atoms: N_11  and  C_12
REMARK    4  A    between atoms: C_12  and  C_13
REMARK    5  A    between atoms: C_13  and  C_14
REMARK    6  A    between atoms: C_21  and  O_22
REMARK                            x       y       z     vdW  Elec       q    Type
REMARK                         _______ _______ _______ _____ _____    ______ ____
ROOT
ATOM      1  C   UNL     1      -0.796  11.234  22.711  0.00  0.00    +0.000 C 
ATOM      2  C   UNL     1      -0.200  10.854  21.391  0.00  0.00    +0.000 A 
ATOM      3  C   UNL     1      -0.172  11.755  20.339  0.00  0.00    +0.000 A 
ATOM      4  C   UNL     1       0.474  11.383  19.169  0.00  0.00    +0.000 A 
ATOM      5  C   UNL     1       1.083  10.128  19.074  0.00  0.00    +0.000 A 
ATOM      6  C   UNL     1       1.796   9.779  17.926  0.00  0.00    +0.000 A 
ATOM      7  C   UNL     1       2.435   8.545  17.835  0.00  0.00    +0.000 A 
ATOM      8  C   UNL     1       2.331   7.619  18.880  0.00  0.00    +0.000 A 
ATOM      9  C   UNL     1       1.591   7.978  20.028  0.00  0.00    +0.000 A 
ATOM     10  C   UNL     1       0.983   9.240  20.167  0.00  0.00    +0.000 A 
ATOM     11  N   UNL     1       0.347   9.615  21.302  0.00  0.00    +0.000 NA
ENDROOT
BRANCH   8  12
ATOM     12  C   UNL     1       3.004   6.281  18.813  0.00  0.00    +0.000 C 
ATOM     13  O   UNL     1       3.727   5.928  19.742  0.00  0.00    +0.000 OA
ATOM     14  N   UNL     1       2.791   5.481  17.708  0.00  0.00    +0.000 N 
ATOM     15  H   UNL     1       2.131   5.737  16.991  0.00  0.00    +0.000 HD
BRANCH  14  16
ATOM     16  C   UNL     1       3.427   4.178  17.612  0.00  0.00    +0.000 C 
BRANCH  16  17
ATOM     17  C   UNL     1       4.677   4.214  16.735  0.00  0.00    +0.000 C 
BRANCH  17  18
ATOM     18  C   UNL     1       5.741   5.130  17.283  0.00  0.00    +0.000 A 
ATOM     19  C   UNL     1       6.614   4.683  18.289  0.00  0.00    +0.000 A 
ATOM     20  C   UNL     1       7.620   5.523  18.770  0.00  0.00    +0.000 A 
ATOM     21  C   UNL     1       7.744   6.809  18.260  0.00  0.00    +0.000 A 
ATOM     22  F   UNL     1       8.720   7.607  18.712  0.00  0.00    +0.000 F 
ATOM     23  C   UNL     1       6.871   7.279  17.286  0.00  0.00    +0.000 A 
ATOM     24  C   UNL     1       5.868   6.441  16.798  0.00  0.00    +0.000 A 
ENDBRANCH  17  18
ENDBRANCH  16  17
ENDBRANCH  14  16
ENDBRANCH   8  12
BRANCH   9  25
ATOM     25  O   UNL     1       1.435   7.095  21.084  0.00  0.00    +0.000 OA
ATOM     26  H   UNL     1       2.295   6.654  21.261  0.00  0.00    +0.000 HD
ENDBRANCH   9  25
TORSDOF 5
ENDMDL
MODEL 5
REMARK VINA RESULT:      -7.8      5.576      8.491
REMARK  Name = 
REMARK  6 active torsions:
REMARK  status: ('A' for Active; 'I' for Inactive)
REMARK    1  A    between atoms: C_1  and  C_2
REMARK    2  A    between atoms: C_8  and  C_9
REMARK    3  A    between atoms: N_11  and  C_12
REMARK    4  A    between atoms: C_12  and  C_13
REMARK    5  A    between atoms: C_13  and  C_14
REMARK    6  A    between atoms: C_21  and  O_22
REMARK                            x       y       z     vdW  Elec       q    Type
REMARK                         _______ _______ _______ _____ _____    ______ ____
ROOT
ATOM      1  C   UNL     1       2.621   2.560  21.627  0.00  0.00    +0.000 C 
ATOM      2  C   UNL     1       3.010   2.778  20.197  0.00  0.00    +0.000 A 
ATOM      3  C   UNL     1       2.282   2.203  19.168  0.00  0.00    +0.000 A 
ATOM      4  C   UNL     1       2.631   2.511  17.861  0.00  0.00    +0.000 A 
ATOM      5  C   UNL     1       3.689   3.388  17.607  0.00  0.00    +0.000 A 
ATOM      6  C   UNL     1       3.997   3.757  16.296  0.00  0.00    +0.000 A 
ATOM      7  C   UNL     1       5.027   4.656  16.035  0.00  0.00    +0.000 A 
ATOM      8  C   UNL     1       5.800   5.167  17.085  0.00  0.00    +0.000 A 
ATOM      9  C   UNL     1       5.490   4.770  18.404  0.00  0.00    +0.000 A 
ATOM     10  C   UNL     1       4.418   3.907  18.699  0.00  0.00    +0.000 A 
ATOM     11  N   UNL     1       4.069   3.595  19.970  0.00  0.00    +0.000 NA
ENDROOT
BRANCH   8  12
ATOM     12  C   UNL     1       6.918   6.134  16.838  0.00  0.00    +0.000 C 
ATOM     13  O   UNL     1       7.711   5.912  15.925  0.00  0.00    +0.000 OA
ATOM     14  N   UNL     1       7.026   7.249  17.645  0.00  0.00    +0.000 N 
ATOM     15  H   UNL     1       6.327   7.472  18.334  0.00  0.00    +0.000 HD
BRANCH  14  16
ATOM     16  C   UNL     1       8.098   8.207  17.432  0.00  0.00    +0.000 C 
BRANCH  16  17
ATOM     17  C   UNL     1       8.463   8.953  18.715  0.00  0.00    +0.000 C 
BRANCH  17  18
ATOM     18  C   UNL     1       8.941  10.358  18.451  0.00  0.00    +0.000 A 
ATOM     19  C   UNL     1      10.226  10.759  18.849  0.00  0.00    +0.000 A 
ATOM     20  C   UNL     1      10.677  12.050  18.572  0.00  0.00    +0.000 A 
ATOM     21  C   UNL     1       9.841  12.942  17.913  0.00  0.00    +0.000 A 
ATOM     22  F   UNL     1      10.282  14.177  17.634  0.00  0.00    +0.000 F 
ATOM     23  C   UNL     1       8.555  12.574  17.537  0.00  0.00    +0.000 A 
ATOM     24  C   UNL     1       8.103  11.282  17.807  0.00  0.00    +0.000 A 
ENDBRANCH  17  18
ENDBRANCH  16  17
ENDBRANCH  14  16
ENDBRANCH   8  12
BRANCH   9  25
ATOM     25  O   UNL     1       6.234   5.225  19.481  0.00  0.00    +0.000 OA
ATOM     26  H   UNL     1       5.654   5.762  20.066  0.00  0.00    +0.000 HD
ENDBRANCH   9  25
TORSDOF 5
ENDMDL
MODEL 6
REMARK VINA RESULT:      -7.8      1.306      1.684
REMARK  Name = 
REMARK  6 active torsions:
REMARK  status: ('A' for Active; 'I' for Inactive)
REMARK    1  A    between atoms: C_1  and  C_2
REMARK    2  A    between atoms: C_8  and  C_9
REMARK    3  A    between atoms: N_11  and  C_12
REMARK    4  A    between atoms: C_12  and  C_13
REMARK    5  A    between atoms: C_13  and  C_14
REMARK    6  A    between atoms: C_21  and  O_22
REMARK                            x       y       z     vdW  Elec       q    Type
REMARK                         _______ _______ _______ _____ _____    ______ ____
ROOT
ATOM      1  C   UNL     1      -0.429   9.704  23.178  0.00  0.00    +0.000 C 
ATOM      2  C   UNL     1       0.032   9.630  21.756  0.00  0.00    +0.000 A 
ATOM      3  C   UNL     1      -0.312  10.617  20.846  0.00  0.00    +0.000 A 
ATOM      4  C   UNL     1       0.217  10.547  19.566  0.00  0.00    +0.000 A 
ATOM      5  C   UNL     1       1.082   9.505  19.221  0.00  0.00    +0.000 A 
ATOM      6  C   UNL     1       1.674   9.472  17.957  0.00  0.00    +0.000 A 
ATOM      7  C   UNL     1       2.564   8.456  17.616  0.00  0.00    +0.000 A 
ATOM      8  C   UNL     1       2.841   7.428  18.524  0.00  0.00    +0.000 A 
ATOM      9  C   UNL     1       2.220   7.463  19.792  0.00  0.00    +0.000 A 
ATOM     10  C   UNL     1       1.361   8.509  20.181  0.00  0.00    +0.000 A 
ATOM     11  N   UNL     1       0.835   8.587  21.427  0.00  0.00    +0.000 NA
ENDROOT
BRANCH   8  12
ATOM     12  C   UNL     1       3.791   6.318  18.188  0.00  0.00    +0.000 C 
ATOM     13  O   UNL     1       3.765   5.830  17.060  0.00  0.00    +0.000 OA
ATOM     14  N   UNL     1       4.670   5.876  19.157  0.00  0.00    +0.000 N 
ATOM     15  H   UNL     1       4.746   6.335  20.050  0.00  0.00    +0.000 HD
BRANCH  14  16
ATOM     16  C   UNL     1       5.605   4.802  18.863  0.00  0.00    +0.000 C 
BRANCH  16  17
ATOM     17  C   UNL     1       5.232   3.506  19.581  0.00  0.00    +0.000 C 
BRANCH  17  18
ATOM     18  C   UNL     1       3.816   3.075  19.295  0.00  0.00    +0.000 A 
ATOM     19  C   UNL     1       3.458   2.612  18.019  0.00  0.00    +0.000 A 
ATOM     20  C   UNL     1       2.155   2.181  17.768  0.00  0.00    +0.000 A 
ATOM     21  C   UNL     1       1.208   2.228  18.784  0.00  0.00    +0.000 A 
ATOM     22  F   UNL     1      -0.039   1.799  18.545  0.00  0.00    +0.000 F 
ATOM     23  C   UNL     1       1.535   2.711  20.044  0.00  0.00    +0.000 A 
ATOM     24  C   UNL     1       2.839   3.137  20.301  0.00  0.00    +0.000 A 
ENDBRANCH  17  18
ENDBRANCH  16  17
ENDBRANCH  14  16
ENDBRANCH   8  12
BRANCH   9  25
ATOM     25  O   UNL     1       2.439   6.461  20.724  0.00  0.00    +0.000 OA
ATOM     26  H   UNL     1       3.323   6.593  21.133  0.00  0.00    +0.000 HD
ENDBRANCH   9  25
TORSDOF 5
ENDMDL
MODEL 7
REMARK VINA RESULT:      -7.7      3.225      4.496
REMARK  Name = 
REMARK  6 active torsions:
REMARK  status: ('A' for Active; 'I' for Inactive)
REMARK    1  A    between atoms: C_1  and  C_2
REMARK    2  A    between atoms: C_8  and  C_9
REMARK    3  A    between atoms: N_11  and  C_12
REMARK    4  A    between atoms: C_12  and  C_13
REMARK    5  A    between atoms: C_13  and  C_14
REMARK    6  A    between atoms: C_21  and  O_22
REMARK                            x       y       z     vdW  Elec       q    Type
REMARK                         _______ _______ _______ _____ _____    ______ ____
ROOT
ATOM      1  C   UNL     1      -0.246   9.860  23.259  0.00  0.00    +0.000 C 
ATOM      2  C   UNL     1       0.220   9.675  21.848  0.00  0.00    +0.000 A 
ATOM      3  C   UNL     1       0.088  10.693  20.917  0.00  0.00    +0.000 A 
ATOM      4  C   UNL     1       0.618  10.502  19.650  0.00  0.00    +0.000 A 
ATOM      5  C   UNL     1       1.276   9.308  19.339  0.00  0.00    +0.000 A 
ATOM      6  C   UNL     1       1.874   9.140  18.089  0.00  0.00    +0.000 A 
ATOM      7  C   UNL     1       2.560   7.968  17.782  0.00  0.00    +0.000 A 
ATOM      8  C   UNL     1       2.618   6.922  18.710  0.00  0.00    +0.000 A 
ATOM      9  C   UNL     1       1.992   7.097  19.963  0.00  0.00    +0.000 A 
ATOM     10  C   UNL     1       1.341   8.293  20.318  0.00  0.00    +0.000 A 
ATOM     11  N   UNL     1       0.815   8.492  21.551  0.00  0.00    +0.000 NA
ENDROOT
BRANCH   8  12
ATOM     12  C   UNL     1       3.346   5.646  18.410  0.00  0.00    +0.000 C 
ATOM     13  O   UNL     1       2.921   4.910  17.522  0.00  0.00    +0.000 OA
ATOM     14  N   UNL     1       4.475   5.334  19.141  0.00  0.00    +0.000 N 
ATOM     15  H   UNL     1       4.868   5.979  19.807  0.00  0.00    +0.000 HD
BRANCH  14  16
ATOM     16  C   UNL     1       5.204   4.105  18.875  0.00  0.00    +0.000 C 
BRANCH  16  17
ATOM     17  C   UNL     1       6.300   4.304  17.830  0.00  0.00    +0.000 C 
BRANCH  17  18
ATOM     18  C   UNL     1       6.972   5.648  17.948  0.00  0.00    +0.000 A 
ATOM     19  C   UNL     1       6.693   6.666  17.022  0.00  0.00    +0.000 A 
ATOM     20  C   UNL     1       7.290   7.920  17.155  0.00  0.00    +0.000 A 
ATOM     21  C   UNL     1       8.177   8.152  18.198  0.00  0.00    +0.000 A 
ATOM     22  F   UNL     1       8.738   9.361  18.332  0.00  0.00    +0.000 F 
ATOM     23  C   UNL     1       8.490   7.148  19.106  0.00  0.00    +0.000 A 
ATOM     24  C   UNL     1       7.889   5.895  18.981  0.00  0.00    +0.000 A 
ENDBRANCH  17  18
ENDBRANCH  16  17
ENDBRANCH  14  16
ENDBRANCH   8  12
BRANCH   9  25
ATOM     25  O   UNL     1       1.997   6.088  20.913  0.00  0.00    +0.000 OA
ATOM     26  H   UNL     1       1.327   6.295  21.602  0.00  0.00    +0.000 HD
ENDBRANCH   9  25
TORSDOF 5
ENDMDL
MODEL 8
REMARK VINA RESULT:      -7.7      4.741      6.868
REMARK  Name = 
REMARK  6 active torsions:
REMARK  status: ('A' for Active; 'I' for Inactive)
REMARK    1  A    between atoms: C_1  and  C_2
REMARK    2  A    between atoms: C_8  and  C_9
REMARK    3  A    between atoms: N_11  and  C_12
REMARK    4  A    between atoms: C_12  and  C_13
REMARK    5  A    between atoms: C_13  and  C_14
REMARK    6  A    between atoms: C_21  and  O_22
REMARK                            x       y       z     vdW  Elec       q    Type
REMARK                         _______ _______ _______ _____ _____    ______ ____
ROOT
ATOM      1  C   UNL     1       1.977   3.143  21.608  0.00  0.00    +0.000 C 
ATOM      2  C   UNL     1       2.334   4.177  20.585  0.00  0.00    +0.000 A 
ATOM      3  C   UNL     1       1.677   5.397  20.550  0.00  0.00    +0.000 A 
ATOM      4  C   UNL     1       2.109   6.352  19.642  0.00  0.00    +0.000 A 
ATOM      5  C   UNL     1       3.188   6.078  18.796  0.00  0.00    +0.000 A 
ATOM      6  C   UNL     1       3.672   7.062  17.932  0.00  0.00    +0.000 A 
ATOM      7  C   UNL     1       4.767   6.809  17.110  0.00  0.00    +0.000 A 
ATOM      8  C   UNL     1       5.368   5.545  17.107  0.00  0.00    +0.000 A 
ATOM      9  C   UNL     1       4.856   4.552  17.972  0.00  0.00    +0.000 A 
ATOM     10  C   UNL     1       3.787   4.801  18.852  0.00  0.00    +0.000 A 
ATOM     11  N   UNL     1       3.353   3.876  19.742  0.00  0.00    +0.000 NA
ENDROOT
BRANCH   8  12
ATOM     12  C   UNL     1       6.546   5.238  16.232  0.00  0.00    +0.000 C 
ATOM     13  O   UNL     1       7.585   4.834  16.749  0.00  0.00    +0.000 OA
ATOM     14  N   UNL     1       6.430   5.419  14.868  0.00  0.00    +0.000 N 
ATOM     15  H   UNL     1       5.552   5.667  14.442  0.00  0.00    +0.000 HD
BRANCH  14  16
ATOM     16  C   UNL     1       7.553   5.130  13.992  0.00  0.00    +0.000 C 
BRANCH  16  17
ATOM     17  C   UNL     1       7.140   5.108  12.521  0.00  0.00    +0.000 C 
BRANCH  17  18
ATOM     18  C   UNL     1       6.797   3.722  12.038  0.00  0.00    +0.000 A 
ATOM     19  C   UNL     1       5.475   3.254  12.101  0.00  0.00    +0.000 A 
ATOM     20  C   UNL     1       5.156   1.982  11.621  0.00  0.00    +0.000 A 
ATOM     21  C   UNL     1       6.157   1.176  11.095  0.00  0.00    +0.000 A 
ATOM     22  F   UNL     1       5.846  -0.038  10.621  0.00  0.00    +0.000 F 
ATOM     23  C   UNL     1       7.476   1.609  11.052  0.00  0.00    +0.000 A 
ATOM     24  C   UNL     1       7.798   2.882  11.525  0.00  0.00    +0.000 A 
ENDBRANCH  17  18
ENDBRANCH  16  17
ENDBRANCH  14  16
ENDBRANCH   8  12
BRANCH   9  25
ATOM     25  O   UNL     1       5.397   3.277  17.996  0.00  0.00    +0.000 OA
ATOM     26  H   UNL     1       5.004   2.778  18.746  0.00  0.00    +0.000 HD
ENDBRANCH   9  25
TORSDOF 5
ENDMDL
MODEL 9
REMARK VINA RESULT:      -7.6      1.647      2.448
REMARK  Name = 
REMARK  6 active torsions:
REMARK  status: ('A' for Active; 'I' for Inactive)
REMARK    1  A    between atoms: C_1  and  C_2
REMARK    2  A    between atoms: C_8  and  C_9
REMARK    3  A    between atoms: N_11  and  C_12
REMARK    4  A    between atoms: C_12  and  C_13
REMARK    5  A    between atoms: C_13  and  C_14
REMARK    6  A    between atoms: C_21  and  O_22
REMARK                            x       y       z     vdW  Elec       q    Type
REMARK                         _______ _______ _______ _____ _____    ______ ____
ROOT
ATOM      1  C   UNL     1      -1.569  12.824  19.122  0.00  0.00    +0.000 C 
ATOM      2  C   UNL     1      -0.811  11.687  19.736  0.00  0.00    +0.000 A 
ATOM      3  C   UNL     1      -1.022  11.325  21.057  0.00  0.00    +0.000 A 
ATOM      4  C   UNL     1      -0.361  10.209  21.547  0.00  0.00    +0.000 A 
ATOM      5  C   UNL     1       0.487   9.473  20.713  0.00  0.00    +0.000 A 
ATOM      6  C   UNL     1       1.097   8.308  21.183  0.00  0.00    +0.000 A 
ATOM      7  C   UNL     1       1.916   7.551  20.349  0.00  0.00    +0.000 A 
ATOM      8  C   UNL     1       2.175   7.976  19.041  0.00  0.00    +0.000 A 
ATOM      9  C   UNL     1       1.568   9.167  18.586  0.00  0.00    +0.000 A 
ATOM     10  C   UNL     1       0.691   9.919  19.390  0.00  0.00    +0.000 A 
ATOM     11  N   UNL     1       0.042  11.013  18.924  0.00  0.00    +0.000 NA
ENDROOT
BRANCH   8  12
ATOM     12  C   UNL     1       3.055   7.186  18.119  0.00  0.00    +0.000 C 
ATOM     13  O   UNL     1       3.887   7.777  17.435  0.00  0.00    +0.000 OA
ATOM     14  N   UNL     1       2.904   5.814  18.064  0.00  0.00    +0.000 N 
ATOM     15  H   UNL     1       2.281   5.327  18.688  0.00  0.00    +0.000 HD
BRANCH  14  16
ATOM     16  C   UNL     1       3.741   5.019  17.182  0.00  0.00    +0.000 C 
BRANCH  16  17
ATOM     17  C   UNL     1       3.624   3.524  17.476  0.00  0.00    +0.000 C 
BRANCH  17  18
ATOM     18  C   UNL     1       2.879   3.244  18.756  0.00  0.00    +0.000 A 
ATOM     19  C   UNL     1       1.478   3.159  18.758  0.00  0.00    +0.000 A 
ATOM     20  C   UNL     1       0.794   2.865  19.939  0.00  0.00    +0.000 A 
ATOM     21  C   UNL     1       1.506   2.673  21.116  0.00  0.00    +0.000 A 
ATOM     22  F   UNL     1       0.849   2.376  22.245  0.00  0.00    +0.000 F 
ATOM     23  C   UNL     1       2.891   2.783  21.139  0.00  0.00    +0.000 A 
ATOM     24  C   UNL     1       3.579   3.070  19.960  0.00  0.00    +0.000 A 
ENDBRANCH  17  18
ENDBRANCH  16  17
ENDBRANCH  14  16
ENDBRANCH   8  12
BRANCH   9  25
ATOM     25  O   UNL     1       1.805   9.648  17.308  0.00  0.00    +0.000 OA
ATOM     26  H   UNL     1       1.912  10.624  17.350  0.00  0.00    +0.000 HD
ENDBRANCH   9  25
TORSDOF 5
ENDMDL
