MODEL 1
REMARK VINA RESULT:      -8.3      0.000      0.000
REMARK  Name = 
REMARK  9 active torsions:
REMARK  status: ('A' for Active; 'I' for Inactive)
REMARK    1  A    between atoms: C_2  and  O_3
REMARK    2  A    between atoms: C_2  and  C_4
REMARK    3  A    between atoms: C_4  and  C_5
REMARK    4  A    between atoms: C_5  and  C_6
REMARK    5  A    between atoms: C_5  and  C_23
REMARK    6  A    between atoms: C_6  and  N_7
REMARK    7  A    between atoms: C_8  and  C_10
REMARK    8  A    between atoms: C_10  and  O_11
REMARK    9  A    between atoms: O_11  and  C_12
REMARK                            x       y       z     vdW  Elec       q    Type
REMARK                         _______ _______ _______ _____ _____    ______ ____
ROOT
ATOM      1  N   UNL     1       7.399   5.932  17.163  0.00  0.00    +0.000 N 
ATOM      2  C   UNL     1       7.843   6.656  18.251  0.00  0.00    +0.000 C 
ATOM      3  O   UNL     1       8.038   6.146  19.353  0.00  0.00    +0.000 OA
ATOM      4  H   UNL     1       7.112   6.442  16.331  0.00  0.00    +0.000 HD
ENDROOT
BRANCH   1   5
ATOM      5  C   UNL     1       7.133   4.508  17.223  0.00  0.00    +0.000 C 
BRANCH   5   6
ATOM      6  C   UNL     1       5.890   4.072  16.409  0.00  0.00    +0.000 C 
BRANCH   6   7
ATOM      7  C   UNL     1       4.650   4.126  17.303  0.00  0.00    +0.000 A 
ATOM      8  C   UNL     1       4.106   2.950  17.833  0.00  0.00    +0.000 A 
ATOM      9  C   UNL     1       2.973   2.994  18.653  0.00  0.00    +0.000 A 
ATOM     10  C   UNL     1       2.374   4.216  18.947  0.00  0.00    +0.000 A 
ATOM     11 CL   UNL     1       0.977   4.271  19.954  0.00  0.00    +0.000 Cl
ATOM     12  C   UNL     1       2.897   5.396  18.431  0.00  0.00    +0.000 A 
ATOM     13  C   UNL     1       4.034   5.352  17.615  0.00  0.00    +0.000 A 
ENDBRANCH   6   7
BRANCH   6  14
ATOM     14  C   UNL     1       5.655   4.920  15.142  0.00  0.00    +0.000 C 
BRANCH  14  16
ATOM     15  O   UNL     1       7.675   5.418  13.893  0.00  0.00    +0.000 OA
ATOM     16  C   UNL     1       6.700   4.704  14.075  0.00  0.00    +0.000 C 
BRANCH  16  17
ATOM     17  O   UNL     1       6.474   3.600  13.328  0.00  0.00    +0.000 OA
ATOM     18  H   UNL     1       6.986   2.813  13.603  0.00  0.00    +0.000 HD
ENDBRANCH  16  17
ENDBRANCH  14  16
ENDBRANCH   6  14
ENDBRANCH   5   6
ENDBRANCH   1   5
BRANCH   2  19
ATOM     19  C   UNL     1       8.048   8.147  17.987  0.00  0.00    +0.000 C 
BRANCH  19  20
ATOM     20  O   UNL     1       8.894   8.695  18.992  0.00  0.00    +0.000 OA
BRANCH  20  21
ATOM     21  C   UNL     1       9.014  10.059  19.015  0.00  0.00    +0.000 A 
ATOM     22  C   UNL     1       8.647  10.708  17.828  0.00  0.00    +0.000 A 
ATOM     23  C   UNL     1       8.726  12.101  17.713  0.00  0.00    +0.000 A 
ATOM     24  C   UNL     1       9.173  12.863  18.792  0.00  0.00    +0.000 A 
ATOM     25  C   UNL     1       9.292  14.310  18.730  0.00  0.00    +0.000 A 
ATOM     26  C   UNL     1       9.720  14.982  19.804  0.00  0.00    +0.000 A 
ATOM     27  C   UNL     1      10.079  14.312  21.067  0.00  0.00    +0.000 A 
ATOM     28  O   UNL     1      10.452  14.962  22.036  0.00  0.00    +0.000 OA
ATOM     29  O   UNL     1       9.974  12.929  21.095  0.00  0.00    +0.000 OA
ATOM     30  C   UNL     1       9.528  12.207  19.969  0.00  0.00    +0.000 A 
ATOM     31  C   UNL     1       9.454  10.820  20.097  0.00  0.00    +0.000 A 
ENDBRANCH  20  21
ENDBRANCH  19  20
ENDBRANCH   2  19
TORSDOF 9
ENDMDL
MODEL 2
REMARK VINA RESULT:      -8.1      1.486      1.925
REMARK  Name = 
REMARK  9 active torsions:
REMARK  status: ('A' for Active; 'I' for Inactive)
REMARK    1  A    between atoms: C_2  and  O_3
REMARK    2  A    between atoms: C_2  and  C_4
REMARK    3  A    between atoms: C_4  and  C_5
REMARK    4  A    between atoms: C_5  and  C_6
REMARK    5  A    between atoms: C_5  and  C_23
REMARK    6  A    between atoms: C_6  and  N_7
REMARK    7  A    between atoms: C_8  and  C_10
REMARK    8  A    between atoms: C_10  and  O_11
REMARK    9  A    between atoms: O_11  and  C_12
REMARK                            x       y       z     vdW  Elec       q    Type
REMARK                         _______ _______ _______ _____ _____    ______ ____
ROOT
ATOM      1  N   UNL     1       6.299   7.116  16.547  0.00  0.00    +0.000 N 
ATOM      2  C   UNL     1       6.961   6.954  17.748  0.00  0.00    +0.000 C 
ATOM      3  O   UNL     1       6.593   6.155  18.607  0.00  0.00    +0.000 OA
ATOM      4  H   UNL     1       6.564   7.897  15.953  0.00  0.00    +0.000 HD
ENDROOT
BRANCH   1   5
ATOM      5  C   UNL     1       5.119   6.350  16.192  0.00  0.00    +0.000 C 
BRANCH   5   6
ATOM      6  C   UNL     1       5.285   4.824  16.390  0.00  0.00    +0.000 C 
BRANCH   6   7
ATOM      7  C   UNL     1       4.047   4.263  17.092  0.00  0.00    +0.000 A 
ATOM      8  C   UNL     1       3.843   2.880  17.171  0.00  0.00    +0.000 A 
ATOM      9  C   UNL     1       2.713   2.361  17.814  0.00  0.00    +0.000 A 
ATOM     10  C   UNL     1       1.778   3.223  18.381  0.00  0.00    +0.000 A 
ATOM     11 CL   UNL     1       0.386   2.586  19.170  0.00  0.00    +0.000 Cl
ATOM     12  C   UNL     1       1.961   4.600  18.314  0.00  0.00    +0.000 A 
ATOM     13  C   UNL     1       3.094   5.118  17.675  0.00  0.00    +0.000 A 
ENDBRANCH   6   7
BRANCH   6  14
ATOM     14  C   UNL     1       5.529   4.056  15.075  0.00  0.00    +0.000 C 
BRANCH  14  16
ATOM     15  O   UNL     1       6.909   4.584  13.149  0.00  0.00    +0.000 OA
ATOM     16  C   UNL     1       6.791   4.477  14.361  0.00  0.00    +0.000 C 
BRANCH  16  17
ATOM     17  O   UNL     1       7.807   4.763  15.206  0.00  0.00    +0.000 OA
ATOM     18  H   UNL     1       8.203   3.982  15.641  0.00  0.00    +0.000 HD
ENDBRANCH  16  17
ENDBRANCH  14  16
ENDBRANCH   6  14
ENDBRANCH   5   6
ENDBRANCH   1   5
BRANCH   2  19
ATOM     19  C   UNL     1       8.173   7.866  17.937  0.00  0.00    +0.000 C 
BRANCH  19  20
ATOM     20  O   UNL     1       7.800   9.213  17.663  0.00  0.00    +0.000 OA
BRANCH  20  21
ATOM     21  C   UNL     1       8.557  10.190  18.251  0.00  0.00    +0.000 A 
ATOM     22  C   UNL     1       9.167   9.823  19.459  0.00  0.00    +0.000 A 
ATOM     23  C   UNL     1       9.965  10.728  20.168  0.00  0.00    +0.000 A 
ATOM     24  C   UNL     1      10.163  12.016  19.673  0.00  0.00    +0.000 A 
ATOM     25  C   UNL     1      10.967  13.006  20.370  0.00  0.00    +0.000 A 
ATOM     26  C   UNL     1      11.124  14.221  19.836  0.00  0.00    +0.000 A 
ATOM     27  C   UNL     1      10.513  14.607  18.551  0.00  0.00    +0.000 A 
ATOM     28  O   UNL     1      10.692  15.726  18.083  0.00  0.00    +0.000 OA
ATOM     29  O   UNL     1       9.735  13.651  17.914  0.00  0.00    +0.000 OA
ATOM     30  C   UNL     1       9.558  12.367  18.468  0.00  0.00    +0.000 A 
ATOM     31  C   UNL     1       8.760  11.474  17.751  0.00  0.00    +0.000 A 
ENDBRANCH  20  21
ENDBRANCH  19  20
ENDBRANCH   2  19
TORSDOF 9
ENDMDL
MODEL 3
REMARK VINA RESULT:      -8.0      1.893      2.450
REMARK  Name = 
REMARK  9 active torsions:
REMARK  status: ('A' for Active; 'I' for Inactive)
REMARK    1  A    between atoms: C_2  and  O_3
REMARK    2  A    between atoms: C_2  and  C_4
REMARK    3  A    between atoms: C_4  and  C_5
REMARK    4  A    between atoms: C_5  and  C_6
REMARK    5  A    between atoms: C_5  and  C_23
REMARK    6  A    between atoms: C_6  and  N_7
REMARK    7  A    between atoms: C_8  and  C_10
REMARK    8  A    between atoms: C_10  and  O_11
REMARK    9  A    between atoms: O_11  and  C_12
REMARK                            x       y       z     vdW  Elec       q    Type
REMARK                         _______ _______ _______ _____ _____    ______ ____
ROOT
ATOM      1  N   UNL     1       6.354   7.574  17.839  0.00  0.00    +0.000 N 
ATOM      2  C   UNL     1       7.652   7.889  17.491  0.00  0.00    +0.000 C 
ATOM      3  O   UNL     1       8.239   7.348  16.556  0.00  0.00    +0.000 OA
ATOM      4  H   UNL     1       5.987   7.944  18.712  0.00  0.00    +0.000 HD
ENDROOT
BRANCH   1   5
ATOM      5  C   UNL     1       5.568   6.586  17.126  0.00  0.00    +0.000 C 
BRANCH   5   6
ATOM      6  C   UNL     1       5.806   5.134  17.609  0.00  0.00    +0.000 C 
BRANCH   6   7
ATOM      7  C   UNL     1       4.461   4.467  17.901  0.00  0.00    +0.000 A 
ATOM      8  C   UNL     1       3.262   5.137  17.626  0.00  0.00    +0.000 A 
ATOM      9  C   UNL     1       2.029   4.530  17.890  0.00  0.00    +0.000 A 
ATOM     10  C   UNL     1       1.986   3.249  18.432  0.00  0.00    +0.000 A 
ATOM     11 CL   UNL     1       0.468   2.502  18.759  0.00  0.00    +0.000 Cl
ATOM     12  C   UNL     1       3.163   2.565  18.713  0.00  0.00    +0.000 A 
ATOM     13  C   UNL     1       4.397   3.171  18.444  0.00  0.00    +0.000 A 
ENDBRANCH   6   7
BRANCH   6  14
ATOM     14  C   UNL     1       6.606   4.275  16.609  0.00  0.00    +0.000 C 
BRANCH  14  16
ATOM     15  O   UNL     1       5.395   4.484  14.515  0.00  0.00    +0.000 OA
ATOM     16  C   UNL     1       6.406   4.690  15.171  0.00  0.00    +0.000 C 
BRANCH  16  17
ATOM     17  O   UNL     1       7.466   5.355  14.659  0.00  0.00    +0.000 OA
ATOM     18  H   UNL     1       8.336   4.993  14.922  0.00  0.00    +0.000 HD
ENDBRANCH  16  17
ENDBRANCH  14  16
ENDBRANCH   6  14
ENDBRANCH   5   6
ENDBRANCH   1   5
BRANCH   2  19
ATOM     19  C   UNL     1       8.313   8.944  18.378  0.00  0.00    +0.000 C 
BRANCH  19  20
ATOM     20  O   UNL     1       8.186  10.224  17.767  0.00  0.00    +0.000 OA
BRANCH  20  21
ATOM     21  C   UNL     1       9.074  11.185  18.170  0.00  0.00    +0.000 A 
ATOM     22  C   UNL     1       9.927  10.806  19.215  0.00  0.00    +0.000 A 
ATOM     23  C   UNL     1      10.881  11.695  19.727  0.00  0.00    +0.000 A 
ATOM     24  C   UNL     1      10.991  12.978  19.194  0.00  0.00    +0.000 A 
ATOM     25  C   UNL     1      11.949  13.952  19.692  0.00  0.00    +0.000 A 
ATOM     26  C   UNL     1      12.009  15.163  19.130  0.00  0.00    +0.000 A 
ATOM     27  C   UNL     1      11.138  15.561  18.010  0.00  0.00    +0.000 A 
ATOM     28  O   UNL     1      11.232  16.675  17.509  0.00  0.00    +0.000 OA
ATOM     29  O   UNL     1      10.219  14.621  17.564  0.00  0.00    +0.000 OA
ATOM     30  C   UNL     1      10.143  13.341  18.150  0.00  0.00    +0.000 A 
ATOM     31  C   UNL     1       9.188  12.465  17.631  0.00  0.00    +0.000 A 
ENDBRANCH  20  21
ENDBRANCH  19  20
ENDBRANCH   2  19
TORSDOF 9
ENDMDL
MODEL 4
REMARK VINA RESULT:      -8.0      1.792      2.169
REMARK  Name = 
REMARK  9 active torsions:
REMARK  status: ('A' for Active; 'I' for Inactive)
REMARK    1  A    between atoms: C_2  and  O_3
REMARK    2  A    between atoms: C_2  and  C_4
REMARK    3  A    between atoms: C_4  and  C_5
REMARK    4  A    between atoms: C_5  and  C_6
REMARK    5  A    between atoms: C_5  and  C_23
REMARK    6  A    between atoms: C_6  and  N_7
REMARK    7  A    between atoms: C_8  and  C_10
REMARK    8  A    between atoms: C_10  and  O_11
REMARK    9  A    between atoms: O_11  and  C_12
REMARK                            x       y       z     vdW  Elec       q    Type
REMARK                         _______ _______ _______ _____ _____    ______ ____
ROOT
ATOM      1  N   UNL     1       7.512   6.650  16.837  0.00  0.00    +0.000 N 
ATOM      2  C   UNL     1       7.875   7.431  17.916  0.00  0.00    +0.000 C 
ATOM      3  O   UNL     1       8.062   6.967  19.038  0.00  0.00    +0.000 OA
ATOM      4  H   UNL     1       7.224   7.117  15.980  0.00  0.00    +0.000 HD
ENDROOT
BRANCH   1   5
ATOM      5  C   UNL     1       7.331   5.214  16.933  0.00  0.00    +0.000 C 
BRANCH   5   6
ATOM      6  C   UNL     1       5.918   4.737  16.521  0.00  0.00    +0.000 C 
BRANCH   6   7
ATOM      7  C   UNL     1       4.884   5.298  17.499  0.00  0.00    +0.000 A 
ATOM      8  C   UNL     1       4.107   6.410  17.150  0.00  0.00    +0.000 A 
ATOM      9  C   UNL     1       3.160   6.926  18.041  0.00  0.00    +0.000 A 
ATOM     10  C   UNL     1       2.983   6.335  19.288  0.00  0.00    +0.000 A 
ATOM     11 CL   UNL     1       1.818   6.971  20.386  0.00  0.00    +0.000 Cl
ATOM     12  C   UNL     1       3.743   5.230  19.656  0.00  0.00    +0.000 A 
ATOM     13  C   UNL     1       4.687   4.711  18.762  0.00  0.00    +0.000 A 
ENDBRANCH   6   7
BRANCH   6  14
ATOM     14  C   UNL     1       5.532   5.125  15.079  0.00  0.00    +0.000 C 
BRANCH  14  16
ATOM     15  O   UNL     1       7.400   5.288  13.537  0.00  0.00    +0.000 OA
ATOM     16  C   UNL     1       6.508   4.622  14.043  0.00  0.00    +0.000 C 
BRANCH  16  17
ATOM     17  O   UNL     1       6.324   3.320  13.730  0.00  0.00    +0.000 OA
ATOM     18  H   UNL     1       6.214   3.145  12.773  0.00  0.00    +0.000 HD
ENDBRANCH  16  17
ENDBRANCH  14  16
ENDBRANCH   6  14
ENDBRANCH   5   6
ENDBRANCH   1   5
BRANCH   2  19
ATOM     19  C   UNL     1       7.998   8.924  17.611  0.00  0.00    +0.000 C 
BRANCH  19  20
ATOM     20  O   UNL     1       8.923   9.518  18.517  0.00  0.00    +0.000 OA
BRANCH  20  21
ATOM     21  C   UNL     1       9.238  10.831  18.296  0.00  0.00    +0.000 A 
ATOM     22  C   UNL     1      10.558  11.067  17.889  0.00  0.00    +0.000 A 
ATOM     23  C   UNL     1      11.015  12.366  17.634  0.00  0.00    +0.000 A 
ATOM     24  C   UNL     1      10.149  13.448  17.783  0.00  0.00    +0.000 A 
ATOM     25  C   UNL     1      10.566  14.820  17.549  0.00  0.00    +0.000 A 
ATOM     26  C   UNL     1       9.683  15.812  17.702  0.00  0.00    +0.000 A 
ATOM     27  C   UNL     1       8.284  15.573  18.100  0.00  0.00    +0.000 A 
ATOM     28  O   UNL     1       7.498  16.506  18.215  0.00  0.00    +0.000 OA
ATOM     29  O   UNL     1       7.915  14.257  18.335  0.00  0.00    +0.000 OA
ATOM     30  C   UNL     1       8.836  13.201  18.181  0.00  0.00    +0.000 A 
ATOM     31  C   UNL     1       8.369  11.912  18.439  0.00  0.00    +0.000 A 
ENDBRANCH  20  21
ENDBRANCH  19  20
ENDBRANCH   2  19
TORSDOF 9
ENDMDL
MODEL 5
REMARK VINA RESULT:      -7.9      1.559      2.050
REMARK  Name = 
REMARK  9 active torsions:
REMARK  status: ('A' for Active; 'I' for Inactive)
REMARK    1  A    between atoms: C_2  and  O_3
REMARK    2  A    between atoms: C_2  and  C_4
REMARK    3  A    between atoms: C_4  and  C_5
REMARK    4  A    between atoms: C_5  and  C_6
REMARK    5  A    between atoms: C_5  and  C_23
REMARK    6  A    between atoms: C_6  and  N_7
REMARK    7  A    between atoms: C_8  and  C_10
REMARK    8  A    between atoms: C_10  and  O_11
REMARK    9  A    between atoms: O_11  and  C_12
REMARK                            x       y       z     vdW  Elec       q    Type
REMARK                         _______ _______ _______ _____ _____    ______ ____
ROOT
ATOM      1  N   UNL     1       6.233   7.394  17.732  0.00  0.00    +0.000 N 
ATOM      2  C   UNL     1       7.543   7.724  17.445  0.00  0.00    +0.000 C 
ATOM      3  O   UNL     1       8.169   7.210  16.520  0.00  0.00    +0.000 OA
ATOM      4  H   UNL     1       5.830   7.740  18.599  0.00  0.00    +0.000 HD
ENDROOT
BRANCH   1   5
ATOM      5  C   UNL     1       5.481   6.423  16.960  0.00  0.00    +0.000 C 
BRANCH   5   6
ATOM      6  C   UNL     1       5.712   4.960  17.409  0.00  0.00    +0.000 C 
BRANCH   6   7
ATOM      7  C   UNL     1       4.366   4.304  17.723  0.00  0.00    +0.000 A 
ATOM      8  C   UNL     1       4.255   2.910  17.795  0.00  0.00    +0.000 A 
ATOM      9  C   UNL     1       3.027   2.305  18.083  0.00  0.00    +0.000 A 
ATOM     10  C   UNL     1       1.899   3.091  18.301  0.00  0.00    +0.000 A 
ATOM     11 CL   UNL     1       0.385   2.348  18.653  0.00  0.00    +0.000 Cl
ATOM     12  C   UNL     1       1.985   4.477  18.234  0.00  0.00    +0.000 A 
ATOM     13  C   UNL     1       3.216   5.082  17.951  0.00  0.00    +0.000 A 
ENDBRANCH   6   7
BRANCH   6  14
ATOM     14  C   UNL     1       6.474   4.110  16.372  0.00  0.00    +0.000 C 
BRANCH  14  16
ATOM     15  O   UNL     1       5.402   4.562  14.241  0.00  0.00    +0.000 OA
ATOM     16  C   UNL     1       6.381   4.656  14.967  0.00  0.00    +0.000 C 
BRANCH  16  17
ATOM     17  O   UNL     1       7.502   5.304  14.576  0.00  0.00    +0.000 OA
ATOM     18  H   UNL     1       7.346   6.037  13.947  0.00  0.00    +0.000 HD
ENDBRANCH  16  17
ENDBRANCH  14  16
ENDBRANCH   6  14
ENDBRANCH   5   6
ENDBRANCH   1   5
BRANCH   2  19
ATOM     19  C   UNL     1       8.163   8.756  18.385  0.00  0.00    +0.000 C 
BRANCH  19  20
ATOM     20  O   UNL     1       8.759   9.799  17.619  0.00  0.00    +0.000 OA
BRANCH  20  21
ATOM     21  C   UNL     1       9.208  10.889  18.314  0.00  0.00    +0.000 A 
ATOM     22  C   UNL     1       9.658  10.622  19.614  0.00  0.00    +0.000 A 
ATOM     23  C   UNL     1      10.140  11.647  20.437  0.00  0.00    +0.000 A 
ATOM     24  C   UNL     1      10.178  12.958  19.963  0.00  0.00    +0.000 A 
ATOM     25  C   UNL     1      10.652  14.068  20.773  0.00  0.00    +0.000 A 
ATOM     26  C   UNL     1      10.671  15.300  20.254  0.00  0.00    +0.000 A 
ATOM     27  C   UNL     1      10.230  15.587  18.877  0.00  0.00    +0.000 A 
ATOM     28  O   UNL     1      10.276  16.727  18.430  0.00  0.00    +0.000 OA
ATOM     29  O   UNL     1       9.765  14.514  18.130  0.00  0.00    +0.000 OA
ATOM     30  C   UNL     1       9.736  13.210  18.666  0.00  0.00    +0.000 A 
ATOM     31  C   UNL     1       9.253  12.197  17.836  0.00  0.00    +0.000 A 
ENDBRANCH  20  21
ENDBRANCH  19  20
ENDBRANCH   2  19
TORSDOF 9
ENDMDL
MODEL 6
REMARK VINA RESULT:      -7.9      6.377      8.903
REMARK  Name = 
REMARK  9 active torsions:
REMARK  status: ('A' for Active; 'I' for Inactive)
REMARK    1  A    between atoms: C_2  and  O_3
REMARK    2  A    between atoms: C_2  and  C_4
REMARK    3  A    between atoms: C_4  and  C_5
REMARK    4  A    between atoms: C_5  and  C_6
REMARK    5  A    between atoms: C_5  and  C_23
REMARK    6  A    between atoms: C_6  and  N_7
REMARK    7  A    between atoms: C_8  and  C_10
REMARK    8  A    between atoms: C_10  and  O_11
REMARK    9  A    between atoms: O_11  and  C_12
REMARK                            x       y       z     vdW  Elec       q    Type
REMARK                         _______ _______ _______ _____ _____    ______ ____
ROOT
ATOM      1  N   UNL     1       2.914   6.378  20.053  0.00  0.00    +0.000 N 
ATOM      2  C   UNL     1       2.338   7.483  19.458  0.00  0.00    +0.000 C 
ATOM      3  O   UNL     1       2.649   7.868  18.332  0.00  0.00    +0.000 OA
ATOM      4  H   UNL     1       2.724   6.209  21.037  0.00  0.00    +0.000 HD
ENDROOT
BRANCH   1   5
ATOM      5  C   UNL     1       3.925   5.572  19.397  0.00  0.00    +0.000 C 
BRANCH   5   6
ATOM      6  C   UNL     1       3.390   4.762  18.192  0.00  0.00    +0.000 C 
BRANCH   6   7
ATOM      7  C   UNL     1       4.403   4.822  17.047  0.00  0.00    +0.000 A 
ATOM      8  C   UNL     1       5.020   3.653  16.584  0.00  0.00    +0.000 A 
ATOM      9  C   UNL     1       5.946   3.702  15.536  0.00  0.00    +0.000 A 
ATOM     10  C   UNL     1       6.263   4.922  14.944  0.00  0.00    +0.000 A 
ATOM     11 CL   UNL     1       7.405   4.984  13.656  0.00  0.00    +0.000 Cl
ATOM     12  C   UNL     1       5.663   6.095  15.388  0.00  0.00    +0.000 A 
ATOM     13  C   UNL     1       4.733   6.044  16.433  0.00  0.00    +0.000 A 
ENDBRANCH   6   7
BRANCH   6  14
ATOM     14  C   UNL     1       3.075   3.290  18.530  0.00  0.00    +0.000 C 
BRANCH  14  16
ATOM     15  O   UNL     1       0.895   3.917  19.395  0.00  0.00    +0.000 OA
ATOM     16  C   UNL     1       1.637   3.064  18.930  0.00  0.00    +0.000 C 
BRANCH  16  17
ATOM     17  O   UNL     1       1.216   1.800  18.700  0.00  0.00    +0.000 OA
ATOM     18  H   UNL     1       0.280   1.636  18.934  0.00  0.00    +0.000 HD
ENDBRANCH  16  17
ENDBRANCH  14  16
ENDBRANCH   6  14
ENDBRANCH   5   6
ENDBRANCH   1   5
BRANCH   2  19
ATOM     19  C   UNL     1       1.305   8.208  20.319  0.00  0.00    +0.000 C 
BRANCH  19  20
ATOM     20  O   UNL     1       1.284   9.589  19.974  0.00  0.00    +0.000 OA
BRANCH  20  21
ATOM     21  C   UNL     1       0.126  10.064  19.420  0.00  0.00    +0.000 A 
ATOM     22  C   UNL     1      -0.588  10.968  20.218  0.00  0.00    +0.000 A 
ATOM     23  C   UNL     1      -1.793  11.527  19.775  0.00  0.00    +0.000 A 
ATOM     24  C   UNL     1      -2.297  11.186  18.521  0.00  0.00    +0.000 A 
ATOM     25  C   UNL     1      -3.549  11.720  18.010  0.00  0.00    +0.000 A 
ATOM     26  C   UNL     1      -3.971  11.359  16.795  0.00  0.00    +0.000 A 
ATOM     27  C   UNL     1      -3.212  10.434  15.934  0.00  0.00    +0.000 A 
ATOM     28  O   UNL     1      -3.623  10.137  14.818  0.00  0.00    +0.000 OA
ATOM     29  O   UNL     1      -2.030   9.924  16.451  0.00  0.00    +0.000 OA
ATOM     30  C   UNL     1      -1.574  10.293  17.732  0.00  0.00    +0.000 A 
ATOM     31  C   UNL     1      -0.372   9.729  18.162  0.00  0.00    +0.000 A 
ENDBRANCH  20  21
ENDBRANCH  19  20
ENDBRANCH   2  19
TORSDOF 9
ENDMDL
MODEL 7
REMARK VINA RESULT:      -7.9      1.865      2.428
REMARK  Name = 
REMARK  9 active torsions:
REMARK  status: ('A' for Active; 'I' for Inactive)
REMARK    1  A    between atoms: C_2  and  O_3
REMARK    2  A    between atoms: C_2  and  C_4
REMARK    3  A    between atoms: C_4  and  C_5
REMARK    4  A    between atoms: C_5  and  C_6
REMARK    5  A    between atoms: C_5  and  C_23
REMARK    6  A    between atoms: C_6  and  N_7
REMARK    7  A    between atoms: C_8  and  C_10
REMARK    8  A    between atoms: C_10  and  O_11
REMARK    9  A    between atoms: O_11  and  C_12
REMARK                            x       y       z     vdW  Elec       q    Type
REMARK                         _______ _______ _______ _____ _____    ______ ____
ROOT
ATOM      1  N   UNL     1       6.977   6.582  18.243  0.00  0.00    +0.000 N 
ATOM      2  C   UNL     1       7.648   7.488  17.447  0.00  0.00    +0.000 C 
ATOM      3  O   UNL     1       8.160   7.178  16.373  0.00  0.00    +0.000 OA
ATOM      4  H   UNL     1       6.716   6.868  19.183  0.00  0.00    +0.000 HD
ENDROOT
BRANCH   1   5
ATOM      5  C   UNL     1       6.810   5.188  17.875  0.00  0.00    +0.000 C 
BRANCH   5   6
ATOM      6  C   UNL     1       5.409   4.861  17.303  0.00  0.00    +0.000 C 
BRANCH   6   7
ATOM      7  C   UNL     1       4.336   5.515  18.174  0.00  0.00    +0.000 A 
ATOM      8  C   UNL     1       3.691   6.683  17.748  0.00  0.00    +0.000 A 
ATOM      9  C   UNL     1       2.708   7.285  18.541  0.00  0.00    +0.000 A 
ATOM     10  C   UNL     1       2.363   6.723  19.767  0.00  0.00    +0.000 A 
ATOM     11 CL   UNL     1       1.153   7.465  20.745  0.00  0.00    +0.000 Cl
ATOM     12  C   UNL     1       2.989   5.564  20.210  0.00  0.00    +0.000 A 
ATOM     13  C   UNL     1       3.970   4.960  19.414  0.00  0.00    +0.000 A 
ENDBRANCH   6   7
BRANCH   6  14
ATOM     14  C   UNL     1       5.226   5.299  15.836  0.00  0.00    +0.000 C 
BRANCH  14  16
ATOM     15  O   UNL     1       7.006   5.295  14.186  0.00  0.00    +0.000 OA
ATOM     16  C   UNL     1       6.227   4.674  14.895  0.00  0.00    +0.000 C 
BRANCH  16  17
ATOM     17  O   UNL     1       6.208   3.322  14.923  0.00  0.00    +0.000 OA
ATOM     18  H   UNL     1       5.883   2.906  14.100  0.00  0.00    +0.000 HD
ENDBRANCH  16  17
ENDBRANCH  14  16
ENDBRANCH   6  14
ENDBRANCH   5   6
ENDBRANCH   1   5
BRANCH   2  19
ATOM     19  C   UNL     1       7.730   8.903  18.020  0.00  0.00    +0.000 C 
BRANCH  19  20
ATOM     20  O   UNL     1       8.889   9.017  18.839  0.00  0.00    +0.000 OA
BRANCH  20  21
ATOM     21  C   UNL     1       9.365  10.283  19.053  0.00  0.00    +0.000 A 
ATOM     22  C   UNL     1       9.499  10.648  20.400  0.00  0.00    +0.000 A 
ATOM     23  C   UNL     1       9.970  11.916  20.761  0.00  0.00    +0.000 A 
ATOM     24  C   UNL     1      10.315  12.836  19.772  0.00  0.00    +0.000 A 
ATOM     25  C   UNL     1      10.795  14.173  20.081  0.00  0.00    +0.000 A 
ATOM     26  C   UNL     1      11.118  15.003  19.085  0.00  0.00    +0.000 A 
ATOM     27  C   UNL     1      11.011  14.619  17.666  0.00  0.00    +0.000 A 
ATOM     28  O   UNL     1      11.331  15.401  16.779  0.00  0.00    +0.000 OA
ATOM     29  O   UNL     1      10.533  13.344  17.396  0.00  0.00    +0.000 OA
ATOM     30  C   UNL     1      10.186  12.459  18.436  0.00  0.00    +0.000 A 
ATOM     31  C   UNL     1       9.717  11.199  18.063  0.00  0.00    +0.000 A 
ENDBRANCH  20  21
ENDBRANCH  19  20
ENDBRANCH   2  19
TORSDOF 9
ENDMDL
MODEL 8
REMARK VINA RESULT:      -7.9      6.414      9.238
REMARK  Name = 
REMARK  9 active torsions:
REMARK  status: ('A' for Active; 'I' for Inactive)
REMARK    1  A    between atoms: C_2  and  O_3
REMARK    2  A    between atoms: C_2  and  C_4
REMARK    3  A    between atoms: C_4  and  C_5
REMARK    4  A    between atoms: C_5  and  C_6
REMARK    5  A    between atoms: C_5  and  C_23
REMARK    6  A    between atoms: C_6  and  N_7
REMARK    7  A    between atoms: C_8  and  C_10
REMARK    8  A    between atoms: C_10  and  O_11
REMARK    9  A    between atoms: O_11  and  C_12
REMARK                            x       y       z     vdW  Elec       q    Type
REMARK                         _______ _______ _______ _____ _____    ______ ____
ROOT
ATOM      1  N   UNL     1       2.322   7.497  19.880  0.00  0.00    +0.000 N 
ATOM      2  C   UNL     1       1.349   7.851  20.793  0.00  0.00    +0.000 C 
ATOM      3  O   UNL     1       0.770   7.028  21.499  0.00  0.00    +0.000 OA
ATOM      4  H   UNL     1       2.646   8.203  19.224  0.00  0.00    +0.000 HD
ENDROOT
BRANCH   1   5
ATOM      5  C   UNL     1       2.752   6.126  19.683  0.00  0.00    +0.000 C 
BRANCH   5   6
ATOM      6  C   UNL     1       2.360   5.543  18.304  0.00  0.00    +0.000 C 
BRANCH   6   7
ATOM      7  C   UNL     1       3.614   5.385  17.442  0.00  0.00    +0.000 A 
ATOM      8  C   UNL     1       3.984   4.126  16.952  0.00  0.00    +0.000 A 
ATOM      9  C   UNL     1       5.129   3.975  16.162  0.00  0.00    +0.000 A 
ATOM     10  C   UNL     1       5.915   5.083  15.858  0.00  0.00    +0.000 A 
ATOM     11 CL   UNL     1       7.327   4.899  14.888  0.00  0.00    +0.000 Cl
ATOM     12  C   UNL     1       5.567   6.343  16.334  0.00  0.00    +0.000 A 
ATOM     13  C   UNL     1       4.418   6.493  17.120  0.00  0.00    +0.000 A 
ENDBRANCH   6   7
BRANCH   6  14
ATOM     14  C   UNL     1       1.617   4.195  18.393  0.00  0.00    +0.000 C 
BRANCH  14  16
ATOM     15  O   UNL     1       0.756   3.785  20.625  0.00  0.00    +0.000 OA
ATOM     16  C   UNL     1       1.621   3.600  19.780  0.00  0.00    +0.000 C 
BRANCH  16  17
ATOM     17  O   UNL     1       2.685   2.798  20.010  0.00  0.00    +0.000 OA
ATOM     18  H   UNL     1       2.583   1.885  19.674  0.00  0.00    +0.000 HD
ENDBRANCH  16  17
ENDBRANCH  14  16
ENDBRANCH   6  14
ENDBRANCH   5   6
ENDBRANCH   1   5
BRANCH   2  19
ATOM     19  C   UNL     1       1.027   9.344  20.837  0.00  0.00    +0.000 C 
BRANCH  19  20
ATOM     20  O   UNL     1       1.075   9.879  19.518  0.00  0.00    +0.000 OA
BRANCH  20  21
ATOM     21  C   UNL     1      -0.119  10.269  18.972  0.00  0.00    +0.000 A 
ATOM     22  C   UNL     1      -0.876  11.146  19.762  0.00  0.00    +0.000 A 
ATOM     23  C   UNL     1      -2.120  11.619  19.326  0.00  0.00    +0.000 A 
ATOM     24  C   UNL     1      -2.620  11.218  18.088  0.00  0.00    +0.000 A 
ATOM     25  C   UNL     1      -3.910  11.661  17.587  0.00  0.00    +0.000 A 
ATOM     26  C   UNL     1      -4.328  11.246  16.387  0.00  0.00    +0.000 A 
ATOM     27  C   UNL     1      -3.526  10.349  15.535  0.00  0.00    +0.000 A 
ATOM     28  O   UNL     1      -3.934  10.002  14.433  0.00  0.00    +0.000 OA
ATOM     29  O   UNL     1      -2.307   9.925  16.043  0.00  0.00    +0.000 OA
ATOM     30  C   UNL     1      -1.855  10.353  17.308  0.00  0.00    +0.000 A 
ATOM     31  C   UNL     1      -0.615   9.873  17.731  0.00  0.00    +0.000 A 
ENDBRANCH  20  21
ENDBRANCH  19  20
ENDBRANCH   2  19
TORSDOF 9
ENDMDL
MODEL 9
REMARK VINA RESULT:      -7.9      1.752      2.305
REMARK  Name = 
REMARK  9 active torsions:
REMARK  status: ('A' for Active; 'I' for Inactive)
REMARK    1  A    between atoms: C_2  and  O_3
REMARK    2  A    between atoms: C_2  and  C_4
REMARK    3  A    between atoms: C_4  and  C_5
REMARK    4  A    between atoms: C_5  and  C_6
REMARK    5  A    between atoms: C_5  and  C_23
REMARK    6  A    between atoms: C_6  and  N_7
REMARK    7  A    between atoms: C_8  and  C_10
REMARK    8  A    between atoms: C_10  and  O_11
REMARK    9  A    between atoms: O_11  and  C_12
REMARK                            x       y       z     vdW  Elec       q    Type
REMARK                         _______ _______ _______ _____ _____    ______ ____
ROOT
ATOM      1  N   UNL     1       6.544   7.639  16.715  0.00  0.00    +0.000 N 
ATOM      2  C   UNL     1       7.513   7.740  17.693  0.00  0.00    +0.000 C 
ATOM      3  O   UNL     1       7.707   6.860  18.529  0.00  0.00    +0.000 OA
ATOM      4  H   UNL     1       6.334   8.464  16.159  0.00  0.00    +0.000 HD
ENDROOT
BRANCH   1   5
ATOM      5  C   UNL     1       5.679   6.482  16.583  0.00  0.00    +0.000 C 
BRANCH   5   6
ATOM      6  C   UNL     1       6.227   5.214  17.282  0.00  0.00    +0.000 C 
BRANCH   6   7
ATOM      7  C   UNL     1       5.059   4.373  17.801  0.00  0.00    +0.000 A 
ATOM      8  C   UNL     1       3.982   4.062  16.962  0.00  0.00    +0.000 A 
ATOM      9  C   UNL     1       2.912   3.291  17.432  0.00  0.00    +0.000 A 
ATOM     10  C   UNL     1       2.910   2.829  18.744  0.00  0.00    +0.000 A 
ATOM     11 CL   UNL     1       1.592   1.883  19.324  0.00  0.00    +0.000 Cl
ATOM     12  C   UNL     1       3.969   3.126  19.595  0.00  0.00    +0.000 A 
ATOM     13  C   UNL     1       5.042   3.893  19.123  0.00  0.00    +0.000 A 
ENDBRANCH   6   7
BRANCH   6  14
ATOM     14  C   UNL     1       7.126   4.350  16.375  0.00  0.00    +0.000 C 
BRANCH  14  16
ATOM     15  O   UNL     1       6.134   4.121  14.172  0.00  0.00    +0.000 OA
ATOM     16  C   UNL     1       6.957   4.650  14.905  0.00  0.00    +0.000 C 
BRANCH  16  17
ATOM     17  O   UNL     1       7.803   5.605  14.458  0.00  0.00    +0.000 OA
ATOM     18  H   UNL     1       8.386   5.983  15.147  0.00  0.00    +0.000 HD
ENDBRANCH  16  17
ENDBRANCH  14  16
ENDBRANCH   6  14
ENDBRANCH   5   6
ENDBRANCH   1   5
BRANCH   2  19
ATOM     19  C   UNL     1       8.307   9.046  17.673  0.00  0.00    +0.000 C 
BRANCH  19  20
ATOM     20  O   UNL     1       8.804   9.318  18.980  0.00  0.00    +0.000 OA
BRANCH  20  21
ATOM     21  C   UNL     1       9.389  10.542  19.170  0.00  0.00    +0.000 A 
ATOM     22  C   UNL     1       9.691  10.856  20.502  0.00  0.00    +0.000 A 
ATOM     23  C   UNL     1      10.286  12.078  20.838  0.00  0.00    +0.000 A 
ATOM     24  C   UNL     1      10.588  13.002  19.839  0.00  0.00    +0.000 A 
ATOM     25  C   UNL     1      11.191  14.293  20.125  0.00  0.00    +0.000 A 
ATOM     26  C   UNL     1      11.464  15.130  19.118  0.00  0.00    +0.000 A 
ATOM     27  C   UNL     1      11.179  14.796  17.711  0.00  0.00    +0.000 A 
ATOM     28  O   UNL     1      11.457  15.581  16.813  0.00  0.00    +0.000 OA
ATOM     29  O   UNL     1      10.587  13.566  17.465  0.00  0.00    +0.000 OA
ATOM     30  C   UNL     1      10.291  12.675  18.517  0.00  0.00    +0.000 A 
ATOM     31  C   UNL     1       9.697  11.461  18.169  0.00  0.00    +0.000 A 
ENDBRANCH  20  21
ENDBRANCH  19  20
ENDBRANCH   2  19
TORSDOF 9
ENDMDL
