MODEL 1
REMARK VINA RESULT:      -8.4      0.000      0.000
REMARK  Name = 
REMARK  6 active torsions:
REMARK  status: ('A' for Active; 'I' for Inactive)
REMARK    1  A    between atoms: C_1  and  C_2
REMARK    2  A    between atoms: C_5  and  C_6
REMARK    3  A    between atoms: C_6  and  O_7
REMARK    4  A    between atoms: C_6  and  C_8
REMARK    5  A    between atoms: N_12  and  C_13
REMARK    6  A    between atoms: C_19  and  N_20
REMARK                            x       y       z     vdW  Elec       q    Type
REMARK                         _______ _______ _______ _____ _____    ______ ____
ROOT
ATOM      1  C   UNL     1       0.871  10.018  20.160  0.00  0.00    +0.000 A 
ATOM      2  N   UNL     1       0.551   9.867  21.467  0.00  0.00    +0.000 NA
ATOM      3  N   UNL     1       0.780   8.743  22.099  0.00  0.00    +0.000 NA
ATOM      4  N   UNL     1       1.377   7.740  21.530  0.00  0.00    +0.000 NA
ATOM      5  C   UNL     1       1.728   7.818  20.244  0.00  0.00    +0.000 A 
ATOM      6  C   UNL     1       2.450   6.748  19.701  0.00  0.00    +0.000 A 
ATOM      7  C   UNL     1       2.942   6.757  18.396  0.00  0.00    +0.000 A 
ATOM      8  C   UNL     1       2.550   7.821  17.588  0.00  0.00    +0.000 A 
ATOM      9  C   UNL     1       1.814   8.887  18.099  0.00  0.00    +0.000 A 
ATOM     10  C   UNL     1       1.444   8.944  19.462  0.00  0.00    +0.000 A 
ENDROOT
BRANCH   1  15
ATOM     11  C   UNL     1      -1.240  12.860  19.299  0.00  0.00    +0.000 C 
ATOM     12  C   UNL     1      -0.233  13.912  18.795  0.00  0.00    +0.000 C 
ATOM     13  C   UNL     1       1.112  13.336  18.338  0.00  0.00    +0.000 C 
ATOM     14  C   UNL     1       1.680  12.242  19.250  0.00  0.00    +0.000 C 
ATOM     15  N   UNL     1       0.636  11.311  19.672  0.00  0.00    +0.000 N 
ATOM     16  C   UNL     1      -0.514  11.968  20.326  0.00  0.00    +0.000 C 
BRANCH  11  17
ATOM     17  C   UNL     1      -1.893  11.964  18.219  0.00  0.00    +0.000 C 
BRANCH  17  22
ATOM     18  C   UNL     1      -6.608  12.011  19.982  0.00  0.00    +0.000 C 
ATOM     19  C   UNL     1      -5.518  11.764  18.995  0.00  0.00    +0.000 A 
ATOM     20  C   UNL     1      -5.700  11.280  17.718  0.00  0.00    +0.000 A 
ATOM     21  S   UNL     1      -4.214  11.230  16.885  0.00  0.00    +0.000 S 
ATOM     22  C   UNL     1      -3.400  11.811  18.302  0.00  0.00    +0.000 A 
ATOM     23  N   UNL     1      -4.195  12.048  19.332  0.00  0.00    +0.000 NA
ENDBRANCH  17  22
BRANCH  17  24
ATOM     24  O   UNL     1      -1.575  12.392  16.895  0.00  0.00    +0.000 OA
ATOM     25  H   UNL     1      -0.727  11.949  16.682  0.00  0.00    +0.000 HD
ENDBRANCH  17  24
ENDBRANCH  11  17
ENDBRANCH   1  15
BRANCH   7  26
ATOM     26  N   UNL     1       3.811   5.815  17.868  0.00  0.00    +0.000 N 
ATOM     27  C   UNL     1       3.567   4.364  17.953  0.00  0.00    +0.000 C 
ATOM     28  C   UNL     1       4.423   3.682  19.031  0.00  0.00    +0.000 C 
ATOM     29  O   UNL     1       5.812   4.030  18.923  0.00  0.00    +0.000 OA
ATOM     30  C   UNL     1       5.970   5.451  19.046  0.00  0.00    +0.000 C 
ATOM     31  C   UNL     1       5.245   6.187  17.909  0.00  0.00    +0.000 C 
ENDBRANCH   7  26
TORSDOF 5
ENDMDL
MODEL 2
REMARK VINA RESULT:      -8.2      2.197      3.203
REMARK  Name = 
REMARK  6 active torsions:
REMARK  status: ('A' for Active; 'I' for Inactive)
REMARK    1  A    between atoms: C_1  and  C_2
REMARK    2  A    between atoms: C_5  and  C_6
REMARK    3  A    between atoms: C_6  and  O_7
REMARK    4  A    between atoms: C_6  and  C_8
REMARK    5  A    between atoms: N_12  and  C_13
REMARK    6  A    between atoms: C_19  and  N_20
REMARK                            x       y       z     vdW  Elec       q    Type
REMARK                         _______ _______ _______ _____ _____    ______ ____
ROOT
ATOM      1  C   UNL     1       1.501   9.339  19.200  0.00  0.00    +0.000 A 
ATOM      2  N   UNL     1       1.939   9.809  18.009  0.00  0.00    +0.000 NA
ATOM      3  N   UNL     1       2.605   9.046  17.178  0.00  0.00    +0.000 NA
ATOM      4  N   UNL     1       2.827   7.790  17.421  0.00  0.00    +0.000 NA
ATOM      5  C   UNL     1       2.419   7.254  18.574  0.00  0.00    +0.000 A 
ATOM      6  C   UNL     1       2.600   5.876  18.750  0.00  0.00    +0.000 A 
ATOM      7  C   UNL     1       2.137   5.194  19.875  0.00  0.00    +0.000 A 
ATOM      8  C   UNL     1       1.615   5.971  20.906  0.00  0.00    +0.000 A 
ATOM      9  C   UNL     1       1.445   7.346  20.763  0.00  0.00    +0.000 A 
ATOM     10  C   UNL     1       1.779   8.011  19.562  0.00  0.00    +0.000 A 
ENDROOT
BRANCH   1  15
ATOM     11  C   UNL     1      -1.553  11.177  19.955  0.00  0.00    +0.000 C 
ATOM     12  C   UNL     1      -1.163  12.027  21.179  0.00  0.00    +0.000 C 
ATOM     13  C   UNL     1       0.345  12.243  21.350  0.00  0.00    +0.000 C 
ATOM     14  C   UNL     1       1.199  10.994  21.097  0.00  0.00    +0.000 C 
ATOM     15  N   UNL     1       0.733  10.264  19.920  0.00  0.00    +0.000 N 
ATOM     16  C   UNL     1      -0.696   9.895  19.980  0.00  0.00    +0.000 C 
BRANCH  11  17
ATOM     17  C   UNL     1      -1.407  11.859  18.573  0.00  0.00    +0.000 C 
BRANCH  17  22
ATOM     18  C   UNL     1      -3.408  10.151  14.282  0.00  0.00    +0.000 C 
ATOM     19  C   UNL     1      -3.404  10.746  15.649  0.00  0.00    +0.000 A 
ATOM     20  C   UNL     1      -4.529  11.087  16.367  0.00  0.00    +0.000 A 
ATOM     21  S   UNL     1      -4.096  11.649  17.917  0.00  0.00    +0.000 S 
ATOM     22  C   UNL     1      -2.419  11.453  17.519  0.00  0.00    +0.000 A 
ATOM     23  N   UNL     1      -2.196  10.977  16.305  0.00  0.00    +0.000 NA
ENDBRANCH  17  22
BRANCH  17  24
ATOM     24  O   UNL     1      -1.427  13.283  18.666  0.00  0.00    +0.000 OA
ATOM     25  H   UNL     1      -2.144  13.486  19.303  0.00  0.00    +0.000 HD
ENDBRANCH  17  24
ENDBRANCH  11  17
ENDBRANCH   1  15
BRANCH   7  26
ATOM     26  N   UNL     1       2.125   3.815  20.019  0.00  0.00    +0.000 N 
ATOM     27  C   UNL     1       3.286   3.052  20.508  0.00  0.00    +0.000 C 
ATOM     28  C   UNL     1       4.041   2.334  19.379  0.00  0.00    +0.000 C 
ATOM     29  O   UNL     1       3.161   1.574  18.536  0.00  0.00    +0.000 OA
ATOM     30  C   UNL     1       2.179   2.439  17.949  0.00  0.00    +0.000 C 
ATOM     31  C   UNL     1       1.298   3.084  19.030  0.00  0.00    +0.000 C 
ENDBRANCH   7  26
TORSDOF 5
ENDMDL
MODEL 3
REMARK VINA RESULT:      -8.0      0.955      1.025
REMARK  Name = 
REMARK  6 active torsions:
REMARK  status: ('A' for Active; 'I' for Inactive)
REMARK    1  A    between atoms: C_1  and  C_2
REMARK    2  A    between atoms: C_5  and  C_6
REMARK    3  A    between atoms: C_6  and  O_7
REMARK    4  A    between atoms: C_6  and  C_8
REMARK    5  A    between atoms: N_12  and  C_13
REMARK    6  A    between atoms: C_19  and  N_20
REMARK                            x       y       z     vdW  Elec       q    Type
REMARK                         _______ _______ _______ _____ _____    ______ ____
ROOT
ATOM      1  C   UNL     1       0.855  10.514  20.778  0.00  0.00    +0.000 A 
ATOM      2  N   UNL     1       0.804  10.362  22.122  0.00  0.00    +0.000 NA
ATOM      3  N   UNL     1       1.111   9.223  22.692  0.00  0.00    +0.000 NA
ATOM      4  N   UNL     1       1.537   8.203  22.010  0.00  0.00    +0.000 NA
ATOM      5  C   UNL     1       1.619   8.280  20.680  0.00  0.00    +0.000 A 
ATOM      6  C   UNL     1       2.170   7.187  19.999  0.00  0.00    +0.000 A 
ATOM      7  C   UNL     1       2.383   7.190  18.620  0.00  0.00    +0.000 A 
ATOM      8  C   UNL     1       1.878   8.277  17.912  0.00  0.00    +0.000 A 
ATOM      9  C   UNL     1       1.308   9.366  18.565  0.00  0.00    +0.000 A 
ATOM     10  C   UNL     1       1.228   9.424  19.975  0.00  0.00    +0.000 A 
ENDROOT
BRANCH   1  15
ATOM     11  C   UNL     1      -1.292  13.136  19.442  0.00  0.00    +0.000 C 
ATOM     12  C   UNL     1      -0.379  14.377  19.440  0.00  0.00    +0.000 C 
ATOM     13  C   UNL     1       1.121  14.063  19.467  0.00  0.00    +0.000 C 
ATOM     14  C   UNL     1       1.519  12.935  20.427  0.00  0.00    +0.000 C 
ATOM     15  N   UNL     1       0.579  11.820  20.350  0.00  0.00    +0.000 N 
ATOM     16  C   UNL     1      -0.826  12.211  20.585  0.00  0.00    +0.000 C 
BRANCH  11  17
ATOM     17  C   UNL     1      -1.351  12.327  18.124  0.00  0.00    +0.000 C 
BRANCH  17  22
ATOM     18  C   UNL     1      -6.189  10.962  18.383  0.00  0.00    +0.000 C 
ATOM     19  C   UNL     1      -4.826  11.067  17.788  0.00  0.00    +0.000 A 
ATOM     20  C   UNL     1      -4.463  10.582  16.550  0.00  0.00    +0.000 A 
ATOM     21  S   UNL     1      -2.843  10.985  16.207  0.00  0.00    +0.000 S 
ATOM     22  C   UNL     1      -2.703  11.742  17.761  0.00  0.00    +0.000 A 
ATOM     23  N   UNL     1      -3.807  11.712  18.487  0.00  0.00    +0.000 NA
ENDBRANCH  17  22
BRANCH  17  24
ATOM     24  O   UNL     1      -0.891  13.082  17.004  0.00  0.00    +0.000 OA
ATOM     25  H   UNL     1      -1.114  12.536  16.221  0.00  0.00    +0.000 HD
ENDBRANCH  17  24
ENDBRANCH  11  17
ENDBRANCH   1  15
BRANCH   7  26
ATOM     26  N   UNL     1       3.086   6.219  17.923  0.00  0.00    +0.000 N 
ATOM     27  C   UNL     1       2.632   4.821  17.821  0.00  0.00    +0.000 C 
ATOM     28  C   UNL     1       3.411   3.876  18.750  0.00  0.00    +0.000 C 
ATOM     29  O   UNL     1       4.832   4.035  18.617  0.00  0.00    +0.000 OA
ATOM     30  C   UNL     1       5.203   5.386  18.926  0.00  0.00    +0.000 C 
ATOM     31  C   UNL     1       4.560   6.373  17.939  0.00  0.00    +0.000 C 
ENDBRANCH   7  26
TORSDOF 5
ENDMDL
MODEL 4
REMARK VINA RESULT:      -8.0      3.076      4.637
REMARK  Name = 
REMARK  6 active torsions:
REMARK  status: ('A' for Active; 'I' for Inactive)
REMARK    1  A    between atoms: C_1  and  C_2
REMARK    2  A    between atoms: C_5  and  C_6
REMARK    3  A    between atoms: C_6  and  O_7
REMARK    4  A    between atoms: C_6  and  C_8
REMARK    5  A    between atoms: N_12  and  C_13
REMARK    6  A    between atoms: C_19  and  N_20
REMARK                            x       y       z     vdW  Elec       q    Type
REMARK                         _______ _______ _______ _____ _____    ______ ____
ROOT
ATOM      1  C   UNL     1       0.970   9.634  19.802  0.00  0.00    +0.000 A 
ATOM      2  N   UNL     1       1.114  10.433  18.719  0.00  0.00    +0.000 NA
ATOM      3  N   UNL     1       1.805  10.049  17.674  0.00  0.00    +0.000 NA
ATOM      4  N   UNL     1       2.334   8.866  17.594  0.00  0.00    +0.000 NA
ATOM      5  C   UNL     1       2.229   8.020  18.622  0.00  0.00    +0.000 A 
ATOM      6  C   UNL     1       2.737   6.726  18.452  0.00  0.00    +0.000 A 
ATOM      7  C   UNL     1       2.607   5.733  19.424  0.00  0.00    +0.000 A 
ATOM      8  C   UNL     1       2.082   6.127  20.652  0.00  0.00    +0.000 A 
ATOM      9  C   UNL     1       1.590   7.414  20.852  0.00  0.00    +0.000 A 
ATOM     10  C   UNL     1       1.588   8.374  19.815  0.00  0.00    +0.000 A 
ENDROOT
BRANCH   1  15
ATOM     11  C   UNL     1      -1.027  12.278  21.317  0.00  0.00    +0.000 C 
ATOM     12  C   UNL     1      -1.628  11.600  22.563  0.00  0.00    +0.000 C 
ATOM     13  C   UNL     1      -0.868  10.357  23.041  0.00  0.00    +0.000 C 
ATOM     14  C   UNL     1      -0.412   9.418  21.916  0.00  0.00    +0.000 C 
ATOM     15  N   UNL     1       0.130  10.170  20.787  0.00  0.00    +0.000 N 
ATOM     16  C   UNL     1      -0.800  11.187  20.252  0.00  0.00    +0.000 C 
BRANCH  11  17
ATOM     17  C   UNL     1       0.291  13.061  21.532  0.00  0.00    +0.000 C 
BRANCH  17  22
ATOM     18  C   UNL     1       3.144  14.970  17.851  0.00  0.00    +0.000 C 
ATOM     19  C   UNL     1       1.950  14.851  18.735  0.00  0.00    +0.000 A 
ATOM     20  C   UNL     1       0.812  15.622  18.637  0.00  0.00    +0.000 A 
ATOM     21  S   UNL     1      -0.352  15.109  19.773  0.00  0.00    +0.000 S 
ATOM     22  C   UNL     1       0.756  13.915  20.368  0.00  0.00    +0.000 A 
ATOM     23  N   UNL     1       1.921  13.888  19.743  0.00  0.00    +0.000 NA
ENDBRANCH  17  22
BRANCH  17  24
ATOM     24  O   UNL     1       0.243  13.896  22.689  0.00  0.00    +0.000 OA
ATOM     25  H   UNL     1       0.997  14.514  22.588  0.00  0.00    +0.000 HD
ENDBRANCH  17  24
ENDBRANCH  11  17
ENDBRANCH   1  15
BRANCH   7  26
ATOM     26  N   UNL     1       2.924   4.396  19.242  0.00  0.00    +0.000 N 
ATOM     27  C   UNL     1       3.603   3.892  18.035  0.00  0.00    +0.000 C 
ATOM     28  C   UNL     1       2.643   3.186  17.066  0.00  0.00    +0.000 C 
ATOM     29  O   UNL     1       1.832   2.203  17.726  0.00  0.00    +0.000 OA
ATOM     30  C   UNL     1       1.058   2.824  18.762  0.00  0.00    +0.000 C 
ATOM     31  C   UNL     1       1.969   3.433  19.840  0.00  0.00    +0.000 C 
ENDBRANCH   7  26
TORSDOF 5
ENDMDL
MODEL 5
REMARK VINA RESULT:      -8.0      3.201      4.400
REMARK  Name = 
REMARK  6 active torsions:
REMARK  status: ('A' for Active; 'I' for Inactive)
REMARK    1  A    between atoms: C_1  and  C_2
REMARK    2  A    between atoms: C_5  and  C_6
REMARK    3  A    between atoms: C_6  and  O_7
REMARK    4  A    between atoms: C_6  and  C_8
REMARK    5  A    between atoms: N_12  and  C_13
REMARK    6  A    between atoms: C_19  and  N_20
REMARK                            x       y       z     vdW  Elec       q    Type
REMARK                         _______ _______ _______ _____ _____    ______ ____
ROOT
ATOM      1  C   UNL     1       1.004   9.701  19.792  0.00  0.00    +0.000 A 
ATOM      2  N   UNL     1       1.194  10.586  18.786  0.00  0.00    +0.000 NA
ATOM      3  N   UNL     1       1.880  10.267  17.717  0.00  0.00    +0.000 NA
ATOM      4  N   UNL     1       2.361   9.074  17.536  0.00  0.00    +0.000 NA
ATOM      5  C   UNL     1       2.209   8.145  18.484  0.00  0.00    +0.000 A 
ATOM      6  C   UNL     1       2.665   6.851  18.204  0.00  0.00    +0.000 A 
ATOM      7  C   UNL     1       2.482   5.783  19.082  0.00  0.00    +0.000 A 
ATOM      8  C   UNL     1       1.959   6.088  20.336  0.00  0.00    +0.000 A 
ATOM      9  C   UNL     1       1.518   7.372  20.645  0.00  0.00    +0.000 A 
ATOM     10  C   UNL     1       1.569   8.419  19.698  0.00  0.00    +0.000 A 
ENDROOT
BRANCH   1  15
ATOM     11  C   UNL     1      -1.094  12.210  21.397  0.00  0.00    +0.000 C 
ATOM     12  C   UNL     1      -1.593  11.497  22.668  0.00  0.00    +0.000 C 
ATOM     13  C   UNL     1      -0.731  10.309  23.110  0.00  0.00    +0.000 C 
ATOM     14  C   UNL     1      -0.265   9.399  21.966  0.00  0.00    +0.000 C 
ATOM     15  N   UNL     1       0.175  10.182  20.814  0.00  0.00    +0.000 N 
ATOM     16  C   UNL     1      -0.843  11.134  20.321  0.00  0.00    +0.000 C 
BRANCH  11  17
ATOM     17  C   UNL     1       0.177  13.079  21.552  0.00  0.00    +0.000 C 
BRANCH  17  22
ATOM     18  C   UNL     1      -0.487  16.793  18.221  0.00  0.00    +0.000 C 
ATOM     19  C   UNL     1       0.238  15.691  18.916  0.00  0.00    +0.000 A 
ATOM     20  C   UNL     1       1.537  15.312  18.658  0.00  0.00    +0.000 A 
ATOM     21  S   UNL     1       2.018  14.077  19.730  0.00  0.00    +0.000 S 
ATOM     22  C   UNL     1       0.438  14.084  20.446  0.00  0.00    +0.000 A 
ATOM     23  N   UNL     1      -0.394  14.970  19.927  0.00  0.00    +0.000 NA
ENDBRANCH  17  22
BRANCH  17  24
ATOM     24  O   UNL     1       0.202  13.787  22.792  0.00  0.00    +0.000 OA
ATOM     25  H   UNL     1      -0.136  14.682  22.581  0.00  0.00    +0.000 HD
ENDBRANCH  17  24
ENDBRANCH  11  17
ENDBRANCH   1  15
BRANCH   7  26
ATOM     26  N   UNL     1       2.746   4.455  18.784  0.00  0.00    +0.000 N 
ATOM     27  C   UNL     1       1.863   3.635  17.936  0.00  0.00    +0.000 C 
ATOM     28  C   UNL     1       0.993   2.664  18.749  0.00  0.00    +0.000 C 
ATOM     29  O   UNL     1       1.766   1.901  19.689  0.00  0.00    +0.000 OA
ATOM     30  C   UNL     1       2.439   2.783  20.598  0.00  0.00    +0.000 C 
ATOM     31  C   UNL     1       3.430   3.691  19.854  0.00  0.00    +0.000 C 
ENDBRANCH   7  26
TORSDOF 5
ENDMDL
MODEL 6
REMARK VINA RESULT:      -7.9      3.066      4.230
REMARK  Name = 
REMARK  6 active torsions:
REMARK  status: ('A' for Active; 'I' for Inactive)
REMARK    1  A    between atoms: C_1  and  C_2
REMARK    2  A    between atoms: C_5  and  C_6
REMARK    3  A    between atoms: C_6  and  O_7
REMARK    4  A    between atoms: C_6  and  C_8
REMARK    5  A    between atoms: N_12  and  C_13
REMARK    6  A    between atoms: C_19  and  N_20
REMARK                            x       y       z     vdW  Elec       q    Type
REMARK                         _______ _______ _______ _____ _____    ______ ____
ROOT
ATOM      1  C   UNL     1       0.996   9.719  19.811  0.00  0.00    +0.000 A 
ATOM      2  N   UNL     1       1.202  10.597  18.802  0.00  0.00    +0.000 NA
ATOM      3  N   UNL     1       1.885  10.264  17.736  0.00  0.00    +0.000 NA
ATOM      4  N   UNL     1       2.347   9.063  17.560  0.00  0.00    +0.000 NA
ATOM      5  C   UNL     1       2.178   8.140  18.510  0.00  0.00    +0.000 A 
ATOM      6  C   UNL     1       2.614   6.838  18.235  0.00  0.00    +0.000 A 
ATOM      7  C   UNL     1       2.413   5.775  19.117  0.00  0.00    +0.000 A 
ATOM      8  C   UNL     1       1.892   6.093  20.368  0.00  0.00    +0.000 A 
ATOM      9  C   UNL     1       1.471   7.385  20.673  0.00  0.00    +0.000 A 
ATOM     10  C   UNL     1       1.540   8.428  19.722  0.00  0.00    +0.000 A 
ENDROOT
BRANCH   1  15
ATOM     11  C   UNL     1      -1.078  12.261  21.395  0.00  0.00    +0.000 C 
ATOM     12  C   UNL     1      -1.581  11.564  22.674  0.00  0.00    +0.000 C 
ATOM     13  C   UNL     1      -0.728  10.372  23.126  0.00  0.00    +0.000 C 
ATOM     14  C   UNL     1      -0.272   9.448  21.989  0.00  0.00    +0.000 C 
ATOM     15  N   UNL     1       0.172  10.217  20.830  0.00  0.00    +0.000 N 
ATOM     16  C   UNL     1      -0.838  11.172  20.330  0.00  0.00    +0.000 C 
BRANCH  11  17
ATOM     17  C   UNL     1       0.201  13.120  21.541  0.00  0.00    +0.000 C 
BRANCH  17  22
ATOM     18  C   UNL     1      -0.471  16.817  18.192  0.00  0.00    +0.000 C 
ATOM     19  C   UNL     1       0.258  15.723  18.896  0.00  0.00    +0.000 A 
ATOM     20  C   UNL     1       1.562  15.352  18.647  0.00  0.00    +0.000 A 
ATOM     21  S   UNL     1       2.045  14.124  19.726  0.00  0.00    +0.000 S 
ATOM     22  C   UNL     1       0.461  14.122  20.432  0.00  0.00    +0.000 A 
ATOM     23  N   UNL     1      -0.375  15.001  19.906  0.00  0.00    +0.000 NA
ENDBRANCH  17  22
BRANCH  17  24
ATOM     24  O   UNL     1       0.241  13.828  22.781  0.00  0.00    +0.000 OA
ATOM     25  H   UNL     1       0.557  14.726  22.551  0.00  0.00    +0.000 HD
ENDBRANCH  17  24
ENDBRANCH  11  17
ENDBRANCH   1  15
BRANCH   7  26
ATOM     26  N   UNL     1       2.656   4.443  18.823  0.00  0.00    +0.000 N 
ATOM     27  C   UNL     1       2.129   3.335  19.640  0.00  0.00    +0.000 C 
ATOM     28  C   UNL     1       3.196   2.714  20.555  0.00  0.00    +0.000 C 
ATOM     29  O   UNL     1       4.399   2.388  19.842  0.00  0.00    +0.000 OA
ATOM     30  C   UNL     1       4.946   3.569  19.240  0.00  0.00    +0.000 C 
ATOM     31  C   UNL     1       3.974   4.161  18.208  0.00  0.00    +0.000 C 
ENDBRANCH   7  26
TORSDOF 5
ENDMDL
MODEL 7
REMARK VINA RESULT:      -7.9      3.650      9.394
REMARK  Name = 
REMARK  6 active torsions:
REMARK  status: ('A' for Active; 'I' for Inactive)
REMARK    1  A    between atoms: C_1  and  C_2
REMARK    2  A    between atoms: C_5  and  C_6
REMARK    3  A    between atoms: C_6  and  O_7
REMARK    4  A    between atoms: C_6  and  C_8
REMARK    5  A    between atoms: N_12  and  C_13
REMARK    6  A    between atoms: C_19  and  N_20
REMARK                            x       y       z     vdW  Elec       q    Type
REMARK                         _______ _______ _______ _____ _____    ______ ____
ROOT
ATOM      1  C   UNL     1       2.024   7.378  19.197  0.00  0.00    +0.000 A 
ATOM      2  N   UNL     1       2.548   7.696  17.990  0.00  0.00    +0.000 NA
ATOM      3  N   UNL     1       2.405   8.893  17.478  0.00  0.00    +0.000 NA
ATOM      4  N   UNL     1       1.810   9.852  18.121  0.00  0.00    +0.000 NA
ATOM      5  C   UNL     1       1.272   9.615  19.320  0.00  0.00    +0.000 A 
ATOM      6  C   UNL     1       0.723  10.702  20.012  0.00  0.00    +0.000 A 
ATOM      7  C   UNL     1       0.212  10.590  21.305  0.00  0.00    +0.000 A 
ATOM      8  C   UNL     1       0.126   9.305  21.833  0.00  0.00    +0.000 A 
ATOM      9  C   UNL     1       0.645   8.205  21.155  0.00  0.00    +0.000 A 
ATOM     10  C   UNL     1       1.296   8.345  19.909  0.00  0.00    +0.000 A 
ENDROOT
BRANCH   1  15
ATOM     11  C   UNL     1       4.098   4.384  19.294  0.00  0.00    +0.000 C 
ATOM     12  C   UNL     1       3.370   3.480  20.306  0.00  0.00    +0.000 C 
ATOM     13  C   UNL     1       1.891   3.826  20.521  0.00  0.00    +0.000 C 
ATOM     14  C   UNL     1       1.598   5.328  20.626  0.00  0.00    +0.000 C 
ATOM     15  N   UNL     1       2.348   6.084  19.627  0.00  0.00    +0.000 N 
ATOM     16  C   UNL     1       3.806   5.849  19.677  0.00  0.00    +0.000 C 
BRANCH  11  17
ATOM     17  C   UNL     1       3.742   4.169  17.803  0.00  0.00    +0.000 C 
BRANCH  17  22
ATOM     18  C   UNL     1       6.400   4.025  13.531  0.00  0.00    +0.000 C 
ATOM     19  C   UNL     1       6.169   4.195  14.994  0.00  0.00    +0.000 A 
ATOM     20  C   UNL     1       7.131   4.554  15.912  0.00  0.00    +0.000 A 
ATOM     21  S   UNL     1       6.439   4.727  17.460  0.00  0.00    +0.000 S 
ATOM     22  C   UNL     1       4.896   4.258  16.823  0.00  0.00    +0.000 A 
ATOM     23  N   UNL     1       4.893   4.006  15.525  0.00  0.00    +0.000 NA
ENDBRANCH  17  22
BRANCH  17  24
ATOM     24  O   UNL     1       3.080   2.925  17.578  0.00  0.00    +0.000 OA
ATOM     25  H   UNL     1       3.138   2.448  18.432  0.00  0.00    +0.000 HD
ENDBRANCH  17  24
ENDBRANCH  11  17
ENDBRANCH   1  15
BRANCH   7  26
ATOM     26  N   UNL     1      -0.173  11.657  22.102  0.00  0.00    +0.000 N 
ATOM     27  C   UNL     1      -1.333  11.600  23.009  0.00  0.00    +0.000 C 
ATOM     28  C   UNL     1      -2.558  12.341  22.451  0.00  0.00    +0.000 C 
ATOM     29  O   UNL     1      -2.233  13.668  22.007  0.00  0.00    +0.000 OA
ATOM     30  C   UNL     1      -1.230  13.609  20.984  0.00  0.00    +0.000 C 
ATOM     31  C   UNL     1       0.073  12.999  21.523  0.00  0.00    +0.000 C 
ENDBRANCH   7  26
TORSDOF 5
ENDMDL
MODEL 8
REMARK VINA RESULT:      -7.9      1.134      1.372
REMARK  Name = 
REMARK  6 active torsions:
REMARK  status: ('A' for Active; 'I' for Inactive)
REMARK    1  A    between atoms: C_1  and  C_2
REMARK    2  A    between atoms: C_5  and  C_6
REMARK    3  A    between atoms: C_6  and  O_7
REMARK    4  A    between atoms: C_6  and  C_8
REMARK    5  A    between atoms: N_12  and  C_13
REMARK    6  A    between atoms: C_19  and  N_20
REMARK                            x       y       z     vdW  Elec       q    Type
REMARK                         _______ _______ _______ _____ _____    ______ ____
ROOT
ATOM      1  C   UNL     1       1.009   9.653  19.856  0.00  0.00    +0.000 A 
ATOM      2  N   UNL     1       0.449   9.359  21.052  0.00  0.00    +0.000 NA
ATOM      3  N   UNL     1       0.600   8.181  21.605  0.00  0.00    +0.000 NA
ATOM      4  N   UNL     1       1.341   7.258  21.070  0.00  0.00    +0.000 NA
ATOM      5  C   UNL     1       1.930   7.478  19.893  0.00  0.00    +0.000 A 
ATOM      6  C   UNL     1       2.791   6.488  19.402  0.00  0.00    +0.000 A 
ATOM      7  C   UNL     1       3.526   6.645  18.227  0.00  0.00    +0.000 A 
ATOM      8  C   UNL     1       3.251   7.778  17.465  0.00  0.00    +0.000 A 
ATOM      9  C   UNL     1       2.383   8.766  17.922  0.00  0.00    +0.000 A 
ATOM     10  C   UNL     1       1.754   8.672  19.183  0.00  0.00    +0.000 A 
ENDROOT
BRANCH   1  15
ATOM     11  C   UNL     1      -0.938  12.710  19.484  0.00  0.00    +0.000 C 
ATOM     12  C   UNL     1       0.059  13.691  18.837  0.00  0.00    +0.000 C 
ATOM     13  C   UNL     1       1.239  13.020  18.124  0.00  0.00    +0.000 C 
ATOM     14  C   UNL     1       1.853  11.837  18.883  0.00  0.00    +0.000 C 
ATOM     15  N   UNL     1       0.817  10.984  19.459  0.00  0.00    +0.000 N 
ATOM     16  C   UNL     1      -0.130  11.708  20.332  0.00  0.00    +0.000 C 
BRANCH  11  17
ATOM     17  C   UNL     1      -1.857  11.929  18.514  0.00  0.00    +0.000 C 
BRANCH  17  22
ATOM     18  C   UNL     1      -6.786  10.921  18.365  0.00  0.00    +0.000 C 
ATOM     19  C   UNL     1      -5.532  11.546  18.874  0.00  0.00    +0.000 A 
ATOM     20  C   UNL     1      -5.445  12.358  19.983  0.00  0.00    +0.000 A 
ATOM     21  S   UNL     1      -3.821  12.790  20.276  0.00  0.00    +0.000 S 
ATOM     22  C   UNL     1      -3.333  11.905  18.866  0.00  0.00    +0.000 A 
ATOM     23  N   UNL     1      -4.322  11.306  18.225  0.00  0.00    +0.000 NA
ENDBRANCH  17  22
BRANCH  17  24
ATOM     24  O   UNL     1      -1.742  12.391  17.168  0.00  0.00    +0.000 OA
ATOM     25  H   UNL     1      -0.868  12.831  17.124  0.00  0.00    +0.000 HD
ENDBRANCH  17  24
ENDBRANCH  11  17
ENDBRANCH   1  15
BRANCH   7  26
ATOM     26  N   UNL     1       4.522   5.785  17.792  0.00  0.00    +0.000 N 
ATOM     27  C   UNL     1       5.211   4.840  18.688  0.00  0.00    +0.000 C 
ATOM     28  C   UNL     1       6.616   5.317  19.085  0.00  0.00    +0.000 C 
ATOM     29  O   UNL     1       7.398   5.709  17.947  0.00  0.00    +0.000 OA
ATOM     30  C   UNL     1       6.738   6.771  17.243  0.00  0.00    +0.000 C 
ATOM     31  C   UNL     1       5.377   6.309  16.700  0.00  0.00    +0.000 C 
ENDBRANCH   7  26
TORSDOF 5
ENDMDL
MODEL 9
REMARK VINA RESULT:      -7.9      2.986      4.449
REMARK  Name = 
REMARK  6 active torsions:
REMARK  status: ('A' for Active; 'I' for Inactive)
REMARK    1  A    between atoms: C_1  and  C_2
REMARK    2  A    between atoms: C_5  and  C_6
REMARK    3  A    between atoms: C_6  and  O_7
REMARK    4  A    between atoms: C_6  and  C_8
REMARK    5  A    between atoms: N_12  and  C_13
REMARK    6  A    between atoms: C_19  and  N_20
REMARK                            x       y       z     vdW  Elec       q    Type
REMARK                         _______ _______ _______ _____ _____    ______ ____
ROOT
ATOM      1  C   UNL     1       1.013   9.733  19.822  0.00  0.00    +0.000 A 
ATOM      2  N   UNL     1       1.239  10.600  18.808  0.00  0.00    +0.000 NA
ATOM      3  N   UNL     1       1.924  10.248  17.749  0.00  0.00    +0.000 NA
ATOM      4  N   UNL     1       2.369   9.039  17.586  0.00  0.00    +0.000 NA
ATOM      5  C   UNL     1       2.180   8.126  18.541  0.00  0.00    +0.000 A 
ATOM      6  C   UNL     1       2.597   6.815  18.279  0.00  0.00    +0.000 A 
ATOM      7  C   UNL     1       2.374   5.763  19.168  0.00  0.00    +0.000 A 
ATOM      8  C   UNL     1       1.849   6.098  20.413  0.00  0.00    +0.000 A 
ATOM      9  C   UNL     1       1.446   7.398  20.705  0.00  0.00    +0.000 A 
ATOM     10  C   UNL     1       1.538   8.433  19.747  0.00  0.00    +0.000 A 
ENDROOT
BRANCH   1  15
ATOM     11  C   UNL     1      -0.982  12.339  21.404  0.00  0.00    +0.000 C 
ATOM     12  C   UNL     1      -1.543  11.645  22.660  0.00  0.00    +0.000 C 
ATOM     13  C   UNL     1      -0.754  10.410  23.110  0.00  0.00    +0.000 C 
ATOM     14  C   UNL     1      -0.314   9.485  21.968  0.00  0.00    +0.000 C 
ATOM     15  N   UNL     1       0.189  10.251  20.831  0.00  0.00    +0.000 N 
ATOM     16  C   UNL     1      -0.767  11.258  20.325  0.00  0.00    +0.000 C 
BRANCH  11  17
ATOM     17  C   UNL     1       0.330  13.139  21.591  0.00  0.00    +0.000 C 
BRANCH  17  22
ATOM     18  C   UNL     1       3.111  15.118  17.891  0.00  0.00    +0.000 C 
ATOM     19  C   UNL     1       1.919  14.959  18.773  0.00  0.00    +0.000 A 
ATOM     20  C   UNL     1       0.749  15.678  18.660  0.00  0.00    +0.000 A 
ATOM     21  S   UNL     1      -0.395  15.131  19.800  0.00  0.00    +0.000 S 
ATOM     22  C   UNL     1       0.762  13.996  20.416  0.00  0.00    +0.000 A 
ATOM     23  N   UNL     1       1.929  14.011  19.794  0.00  0.00    +0.000 NA
ENDBRANCH  17  22
BRANCH  17  24
ATOM     24  O   UNL     1       0.294  13.976  22.746  0.00  0.00    +0.000 OA
ATOM     25  H   UNL     1      -0.653  14.030  22.992  0.00  0.00    +0.000 HD
ENDBRANCH  17  24
ENDBRANCH  11  17
ENDBRANCH   1  15
BRANCH   7  26
ATOM     26  N   UNL     1       2.599   4.425  18.886  0.00  0.00    +0.000 N 
ATOM     27  C   UNL     1       2.079   3.332  19.727  0.00  0.00    +0.000 C 
ATOM     28  C   UNL     1       3.158   2.712  20.628  0.00  0.00    +0.000 C 
ATOM     29  O   UNL     1       4.343   2.366  19.895  0.00  0.00    +0.000 OA
ATOM     30  C   UNL     1       4.889   3.534  19.267  0.00  0.00    +0.000 C 
ATOM     31  C   UNL     1       3.902   4.123  18.248  0.00  0.00    +0.000 C 
ENDBRANCH   7  26
TORSDOF 5
ENDMDL
