MODEL 1
REMARK VINA RESULT:      -7.1      0.000      0.000
REMARK  Name = 
REMARK  5 active torsions:
REMARK  status: ('A' for Active; 'I' for Inactive)
REMARK    1  A    between atoms: C_1  and  O_2
REMARK    2  A    between atoms: O_2  and  C_3
REMARK    3  A    between atoms: C_12  and  C_13
REMARK    4  A    between atoms: C_13  and  N_14
REMARK    5  A    between atoms: C_17  and  O_18
REMARK                            x       y       z     vdW  Elec       q    Type
REMARK                         _______ _______ _______ _____ _____    ______ ____
ROOT
ATOM      1  C   UNL     1       2.971   3.956  20.185  0.00  0.00    +0.000 A 
ATOM      2  C   UNL     1       3.774   3.063  19.452  0.00  0.00    +0.000 A 
ATOM      3  C   UNL     1       4.331   3.452  18.237  0.00  0.00    +0.000 A 
ATOM      4  C   UNL     1       4.103   4.732  17.726  0.00  0.00    +0.000 A 
ATOM      5 CL   UNL     1       4.833   5.134  16.176  0.00  0.00    +0.000 Cl
ATOM      6  C   UNL     1       3.302   5.647  18.448  0.00  0.00    +0.000 A 
ATOM      7  C   UNL     1       2.742   5.255  19.682  0.00  0.00    +0.000 A 
ATOM      8  C   UNL     1       1.834   6.186  20.449  0.00  0.00    +0.000 C 
ATOM      9  C   UNL     1       1.812   7.651  19.974  0.00  0.00    +0.000 C 
ATOM     10  C   UNL     1       2.326   7.927  18.579  0.00  0.00    +0.000 C 
ATOM     11  C   UNL     1       3.028   6.998  17.905  0.00  0.00    +0.000 C 
ENDROOT
BRANCH   1  13
ATOM     12  C   UNL     1       1.502   2.583  21.575  0.00  0.00    +0.000 C 
ATOM     13  O   UNL     1       2.407   3.604  21.374  0.00  0.00    +0.000 OA
ENDBRANCH   1  13
BRANCH  10  14
ATOM     14  C   UNL     1       2.178   9.346  18.039  0.00  0.00    +0.000 C 
BRANCH  14  15
ATOM     15  N   UNL     1       1.006  10.116  18.515  0.00  0.00    +0.000 NA
ATOM     16  C   UNL     1      -0.263   9.819  17.824  0.00  0.00    +0.000 C 
ATOM     17  C   UNL     1      -1.432  10.349  18.676  0.00  0.00    +0.000 C 
ATOM     18  C   UNL     1      -1.288  11.856  18.963  0.00  0.00    +0.000 C 
ATOM     19  C   UNL     1       0.099  12.142  19.574  0.00  0.00    +0.000 C 
ATOM     20  C   UNL     1       1.221  11.566  18.697  0.00  0.00    +0.000 C 
BRANCH  18  21
ATOM     21  O   UNL     1      -1.533  12.633  17.814  0.00  0.00    +0.000 OA
ATOM     22  H   UNL     1      -1.036  13.485  17.878  0.00  0.00    +0.000 HD
ENDBRANCH  18  21
ENDBRANCH  14  15
ENDBRANCH  10  14
TORSDOF 4
ENDMDL
MODEL 2
REMARK VINA RESULT:      -7.0      3.000      7.699
REMARK  Name = 
REMARK  5 active torsions:
REMARK  status: ('A' for Active; 'I' for Inactive)
REMARK    1  A    between atoms: C_1  and  O_2
REMARK    2  A    between atoms: O_2  and  C_3
REMARK    3  A    between atoms: C_12  and  C_13
REMARK    4  A    between atoms: C_13  and  N_14
REMARK    5  A    between atoms: C_17  and  O_18
REMARK                            x       y       z     vdW  Elec       q    Type
REMARK                         _______ _______ _______ _____ _____    ______ ____
ROOT
ATOM      1  C   UNL     1      -0.070  11.712  19.587  0.00  0.00    +0.000 A 
ATOM      2  C   UNL     1      -0.671  12.191  20.766  0.00  0.00    +0.000 A 
ATOM      3  C   UNL     1      -0.620  11.441  21.937  0.00  0.00    +0.000 A 
ATOM      4  C   UNL     1       0.025  10.203  21.962  0.00  0.00    +0.000 A 
ATOM      5 CL   UNL     1       0.027   9.314  23.482  0.00  0.00    +0.000 Cl
ATOM      6  C   UNL     1       0.640   9.704  20.790  0.00  0.00    +0.000 A 
ATOM      7  C   UNL     1       0.595  10.467  19.605  0.00  0.00    +0.000 A 
ATOM      8  C   UNL     1       1.187   9.938  18.322  0.00  0.00    +0.000 C 
ATOM      9  C   UNL     1       2.090   8.697  18.457  0.00  0.00    +0.000 C 
ATOM     10  C   UNL     1       1.957   7.887  19.727  0.00  0.00    +0.000 C 
ATOM     11  C   UNL     1       1.304   8.379  20.795  0.00  0.00    +0.000 C 
ENDROOT
BRANCH   1  13
ATOM     12  C   UNL     1      -0.160  13.793  18.309  0.00  0.00    +0.000 C 
ATOM     13  O   UNL     1      -0.106  12.420  18.424  0.00  0.00    +0.000 OA
ENDBRANCH   1  13
BRANCH  10  14
ATOM     14  C   UNL     1       2.736   6.578  19.815  0.00  0.00    +0.000 C 
BRANCH  14  15
ATOM     15  N   UNL     1       1.995   5.342  19.473  0.00  0.00    +0.000 NA
ATOM     16  C   UNL     1       1.942   4.327  20.542  0.00  0.00    +0.000 C 
ATOM     17  C   UNL     1       0.820   3.321  20.222  0.00  0.00    +0.000 C 
ATOM     18  C   UNL     1       1.018   2.671  18.838  0.00  0.00    +0.000 C 
ATOM     19  C   UNL     1       1.190   3.766  17.765  0.00  0.00    +0.000 C 
ATOM     20  C   UNL     1       2.301   4.753  18.154  0.00  0.00    +0.000 C 
BRANCH  18  21
ATOM     21  O   UNL     1       2.089   1.756  18.839  0.00  0.00    +0.000 OA
ATOM     22  H   UNL     1       1.976   1.113  19.580  0.00  0.00    +0.000 HD
ENDBRANCH  18  21
ENDBRANCH  14  15
ENDBRANCH  10  14
TORSDOF 4
ENDMDL
MODEL 3
REMARK VINA RESULT:      -6.9      1.051      1.257
REMARK  Name = 
REMARK  5 active torsions:
REMARK  status: ('A' for Active; 'I' for Inactive)
REMARK    1  A    between atoms: C_1  and  O_2
REMARK    2  A    between atoms: O_2  and  C_3
REMARK    3  A    between atoms: C_12  and  C_13
REMARK    4  A    between atoms: C_13  and  N_14
REMARK    5  A    between atoms: C_17  and  O_18
REMARK                            x       y       z     vdW  Elec       q    Type
REMARK                         _______ _______ _______ _____ _____    ______ ____
ROOT
ATOM      1  C   UNL     1       2.948   4.754  20.167  0.00  0.00    +0.000 A 
ATOM      2  C   UNL     1       3.878   4.086  19.349  0.00  0.00    +0.000 A 
ATOM      3  C   UNL     1       4.364   4.693  18.195  0.00  0.00    +0.000 A 
ATOM      4  C   UNL     1       3.937   5.972  17.829  0.00  0.00    +0.000 A 
ATOM      5 CL   UNL     1       4.591   6.657  16.345  0.00  0.00    +0.000 Cl
ATOM      6  C   UNL     1       3.006   6.663  18.639  0.00  0.00    +0.000 A 
ATOM      7  C   UNL     1       2.519   6.051  19.812  0.00  0.00    +0.000 A 
ATOM      8  C   UNL     1       1.480   6.735  20.667  0.00  0.00    +0.000 C 
ATOM      9  C   UNL     1       1.228   8.224  20.361  0.00  0.00    +0.000 C 
ATOM     10  C   UNL     1       1.688   8.734  19.014  0.00  0.00    +0.000 C 
ATOM     11  C   UNL     1       2.523   8.009  18.249  0.00  0.00    +0.000 C 
ENDROOT
BRANCH   1  13
ATOM     12  C   UNL     1       1.921   2.916  21.409  0.00  0.00    +0.000 C 
ATOM     13  O   UNL     1       2.451   4.185  21.300  0.00  0.00    +0.000 OA
ENDBRANCH   1  13
BRANCH  10  14
ATOM     14  C   UNL     1       1.319  10.166  18.637  0.00  0.00    +0.000 C 
BRANCH  14  15
ATOM     15  N   UNL     1      -0.126  10.492  18.612  0.00  0.00    +0.000 NA
ATOM     16  C   UNL     1      -0.909   9.791  17.577  0.00  0.00    +0.000 C 
ATOM     17  C   UNL     1      -2.405   9.888  17.932  0.00  0.00    +0.000 C 
ATOM     18  C   UNL     1      -2.859  11.354  18.084  0.00  0.00    +0.000 C 
ATOM     19  C   UNL     1      -1.939  12.085  19.083  0.00  0.00    +0.000 C 
ATOM     20  C   UNL     1      -0.461  11.928  18.694  0.00  0.00    +0.000 C 
BRANCH  18  21
ATOM     21  O   UNL     1      -2.922  12.013  16.841  0.00  0.00    +0.000 OA
ATOM     22  H   UNL     1      -3.564  12.762  16.894  0.00  0.00    +0.000 HD
ENDBRANCH  18  21
ENDBRANCH  14  15
ENDBRANCH  10  14
TORSDOF 4
ENDMDL
MODEL 4
REMARK VINA RESULT:      -6.8      2.123      3.227
REMARK  Name = 
REMARK  5 active torsions:
REMARK  status: ('A' for Active; 'I' for Inactive)
REMARK    1  A    between atoms: C_1  and  O_2
REMARK    2  A    between atoms: O_2  and  C_3
REMARK    3  A    between atoms: C_12  and  C_13
REMARK    4  A    between atoms: C_13  and  N_14
REMARK    5  A    between atoms: C_17  and  O_18
REMARK                            x       y       z     vdW  Elec       q    Type
REMARK                         _______ _______ _______ _____ _____    ______ ____
ROOT
ATOM      1  C   UNL     1       4.139   5.140  17.500  0.00  0.00    +0.000 A 
ATOM      2  C   UNL     1       4.237   3.856  18.067  0.00  0.00    +0.000 A 
ATOM      3  C   UNL     1       3.615   3.573  19.280  0.00  0.00    +0.000 A 
ATOM      4  C   UNL     1       2.887   4.557  19.953  0.00  0.00    +0.000 A 
ATOM      5 CL   UNL     1       2.147   4.117  21.489  0.00  0.00    +0.000 Cl
ATOM      6  C   UNL     1       2.772   5.853  19.399  0.00  0.00    +0.000 A 
ATOM      7  C   UNL     1       3.396   6.139  18.167  0.00  0.00    +0.000 A 
ATOM      8  C   UNL     1       3.345   7.527  17.577  0.00  0.00    +0.000 C 
ATOM      9  C   UNL     1       2.338   8.498  18.224  0.00  0.00    +0.000 C 
ATOM     10  C   UNL     1       1.834   8.143  19.605  0.00  0.00    +0.000 C 
ATOM     11  C   UNL     1       2.026   6.914  20.117  0.00  0.00    +0.000 C 
ENDROOT
BRANCH   1  13
ATOM     12  C   UNL     1       5.398   4.570  15.484  0.00  0.00    +0.000 C 
ATOM     13  O   UNL     1       4.739   5.450  16.317  0.00  0.00    +0.000 OA
ENDBRANCH   1  13
BRANCH  10  14
ATOM     14  C   UNL     1       0.952   9.163  20.318  0.00  0.00    +0.000 C 
BRANCH  14  15
ATOM     15  N   UNL     1       0.427  10.276  19.494  0.00  0.00    +0.000 NA
ATOM     16  C   UNL     1       0.889  11.620  19.890  0.00  0.00    +0.000 C 
ATOM     17  C   UNL     1       0.626  12.600  18.730  0.00  0.00    +0.000 C 
ATOM     18  C   UNL     1      -0.861  12.613  18.323  0.00  0.00    +0.000 C 
ATOM     19  C   UNL     1      -1.336  11.174  18.034  0.00  0.00    +0.000 C 
ATOM     20  C   UNL     1      -1.022  10.239  19.212  0.00  0.00    +0.000 C 
BRANCH  18  21
ATOM     21  O   UNL     1      -1.662  13.253  19.288  0.00  0.00    +0.000 OA
ATOM     22  H   UNL     1      -2.608  13.006  19.151  0.00  0.00    +0.000 HD
ENDBRANCH  18  21
ENDBRANCH  14  15
ENDBRANCH  10  14
TORSDOF 4
ENDMDL
MODEL 5
REMARK VINA RESULT:      -6.8      2.859      7.337
REMARK  Name = 
REMARK  5 active torsions:
REMARK  status: ('A' for Active; 'I' for Inactive)
REMARK    1  A    between atoms: C_1  and  O_2
REMARK    2  A    between atoms: O_2  and  C_3
REMARK    3  A    between atoms: C_12  and  C_13
REMARK    4  A    between atoms: C_13  and  N_14
REMARK    5  A    between atoms: C_17  and  O_18
REMARK                            x       y       z     vdW  Elec       q    Type
REMARK                         _______ _______ _______ _____ _____    ______ ____
ROOT
ATOM      1  C   UNL     1      -0.650  11.042  19.126  0.00  0.00    +0.000 A 
ATOM      2  C   UNL     1      -1.157  11.554  20.335  0.00  0.00    +0.000 A 
ATOM      3  C   UNL     1      -0.770  11.000  21.551  0.00  0.00    +0.000 A 
ATOM      4  C   UNL     1       0.126   9.929  21.593  0.00  0.00    +0.000 A 
ATOM      5 CL   UNL     1       0.548   9.280  23.175  0.00  0.00    +0.000 Cl
ATOM      6  C   UNL     1       0.651   9.401  20.391  0.00  0.00    +0.000 A 
ATOM      7  C   UNL     1       0.264   9.966  19.158  0.00  0.00    +0.000 A 
ATOM      8  C   UNL     1       0.758   9.388  17.854  0.00  0.00    +0.000 C 
ATOM      9  C   UNL     1       1.918   8.380  17.959  0.00  0.00    +0.000 C 
ATOM     10  C   UNL     1       2.155   7.746  19.312  0.00  0.00    +0.000 C 
ATOM     11  C   UNL     1       1.579   8.246  20.419  0.00  0.00    +0.000 C 
ENDROOT
BRANCH   1  13
ATOM     12  C   UNL     1      -2.238  11.408  17.305  0.00  0.00    +0.000 C 
ATOM     13  O   UNL     1      -1.013  11.558  17.919  0.00  0.00    +0.000 OA
ENDBRANCH   1  13
BRANCH  10  14
ATOM     14  C   UNL     1       3.204   6.642  19.400  0.00  0.00    +0.000 C 
BRANCH  14  15
ATOM     15  N   UNL     1       2.697   5.251  19.460  0.00  0.00    +0.000 NA
ATOM     16  C   UNL     1       1.932   4.811  18.279  0.00  0.00    +0.000 C 
ATOM     17  C   UNL     1       1.843   3.273  18.286  0.00  0.00    +0.000 C 
ATOM     18  C   UNL     1       1.215   2.746  19.591  0.00  0.00    +0.000 C 
ATOM     19  C   UNL     1       1.968   3.326  20.806  0.00  0.00    +0.000 C 
ATOM     20  C   UNL     1       2.050   4.858  20.728  0.00  0.00    +0.000 C 
BRANCH  18  21
ATOM     21  O   UNL     1      -0.168   3.009  19.649  0.00  0.00    +0.000 OA
ATOM     22  H   UNL     1      -0.662   2.294  19.181  0.00  0.00    +0.000 HD
ENDBRANCH  18  21
ENDBRANCH  14  15
ENDBRANCH  10  14
TORSDOF 4
ENDMDL
MODEL 6
REMARK VINA RESULT:      -6.7      2.271      3.326
REMARK  Name = 
REMARK  5 active torsions:
REMARK  status: ('A' for Active; 'I' for Inactive)
REMARK    1  A    between atoms: C_1  and  O_2
REMARK    2  A    between atoms: O_2  and  C_3
REMARK    3  A    between atoms: C_12  and  C_13
REMARK    4  A    between atoms: C_13  and  N_14
REMARK    5  A    between atoms: C_17  and  O_18
REMARK                            x       y       z     vdW  Elec       q    Type
REMARK                         _______ _______ _______ _____ _____    ______ ____
ROOT
ATOM      1  C   UNL     1       3.521   4.035  17.707  0.00  0.00    +0.000 A 
ATOM      2  C   UNL     1       3.364   2.692  18.098  0.00  0.00    +0.000 A 
ATOM      3  C   UNL     1       2.696   2.376  19.277  0.00  0.00    +0.000 A 
ATOM      4  C   UNL     1       2.172   3.383  20.091  0.00  0.00    +0.000 A 
ATOM      5 CL   UNL     1       1.356   2.893  21.573  0.00  0.00    +0.000 Cl
ATOM      6  C   UNL     1       2.314   4.739  19.716  0.00  0.00    +0.000 A 
ATOM      7  C   UNL     1       2.985   5.060  18.518  0.00  0.00    +0.000 A 
ATOM      8  C   UNL     1       3.208   6.498  18.118  0.00  0.00    +0.000 C 
ATOM      9  C   UNL     1       2.409   7.550  18.910  0.00  0.00    +0.000 C 
ATOM     10  C   UNL     1       1.842   7.119  20.244  0.00  0.00    +0.000 C 
ATOM     11  C   UNL     1       1.788   5.819  20.584  0.00  0.00    +0.000 C 
ENDROOT
BRANCH   1  13
ATOM     12  C   UNL     1       5.460   4.019  16.220  0.00  0.00    +0.000 C 
ATOM     13  O   UNL     1       4.173   4.378  16.562  0.00  0.00    +0.000 OA
ENDBRANCH   1  13
BRANCH  10  14
ATOM     14  C   UNL     1       1.174   8.186  21.106  0.00  0.00    +0.000 C 
BRANCH  14  15
ATOM     15  N   UNL     1       0.808   9.451  20.429  0.00  0.00    +0.000 NA
ATOM     16  C   UNL     1       1.084  10.677  21.200  0.00  0.00    +0.000 C 
ATOM     17  C   UNL     1       1.062  11.885  20.244  0.00  0.00    +0.000 C 
ATOM     18  C   UNL     1      -0.277  11.986  19.487  0.00  0.00    +0.000 C 
ATOM     19  C   UNL     1      -0.588  10.644  18.793  0.00  0.00    +0.000 C 
ATOM     20  C   UNL     1      -0.523   9.476  19.789  0.00  0.00    +0.000 C 
BRANCH  18  21
ATOM     21  O   UNL     1      -1.325  12.402  20.332  0.00  0.00    +0.000 OA
ATOM     22  H   UNL     1      -0.954  12.713  21.193  0.00  0.00    +0.000 HD
ENDBRANCH  18  21
ENDBRANCH  14  15
ENDBRANCH  10  14
TORSDOF 4
ENDMDL
MODEL 7
REMARK VINA RESULT:      -6.7      3.042      7.673
REMARK  Name = 
REMARK  5 active torsions:
REMARK  status: ('A' for Active; 'I' for Inactive)
REMARK    1  A    between atoms: C_1  and  O_2
REMARK    2  A    between atoms: O_2  and  C_3
REMARK    3  A    between atoms: C_12  and  C_13
REMARK    4  A    between atoms: C_13  and  N_14
REMARK    5  A    between atoms: C_17  and  O_18
REMARK                            x       y       z     vdW  Elec       q    Type
REMARK                         _______ _______ _______ _____ _____    ______ ____
ROOT
ATOM      1  C   UNL     1      -0.276  11.397  19.650  0.00  0.00    +0.000 A 
ATOM      2  C   UNL     1      -0.854  11.967  20.800  0.00  0.00    +0.000 A 
ATOM      3  C   UNL     1      -0.754  11.324  22.031  0.00  0.00    +0.000 A 
ATOM      4  C   UNL     1      -0.080  10.106  22.145  0.00  0.00    +0.000 A 
ATOM      5 CL   UNL     1      -0.016   9.355  23.736  0.00  0.00    +0.000 Cl
ATOM      6  C   UNL     1       0.512   9.517  21.003  0.00  0.00    +0.000 A 
ATOM      7  C   UNL     1       0.416  10.171  19.757  0.00  0.00    +0.000 A 
ATOM      8  C   UNL     1       0.983   9.542  18.508  0.00  0.00    +0.000 C 
ATOM      9  C   UNL     1       1.917   8.336  18.724  0.00  0.00    +0.000 C 
ATOM     10  C   UNL     1       1.837   7.638  20.064  0.00  0.00    +0.000 C 
ATOM     11  C   UNL     1       1.204   8.210  21.104  0.00  0.00    +0.000 C 
ENDROOT
BRANCH   1  13
ATOM     12  C   UNL     1      -0.386  13.357  18.194  0.00  0.00    +0.000 C 
ATOM     13  O   UNL     1      -0.361  11.998  18.432  0.00  0.00    +0.000 OA
ENDBRANCH   1  13
BRANCH  10  14
ATOM     14  C   UNL     1       2.646   6.358  20.244  0.00  0.00    +0.000 C 
BRANCH  14  15
ATOM     15  N   UNL     1       2.935   5.580  19.017  0.00  0.00    +0.000 NA
ATOM     16  C   UNL     1       2.244   4.281  18.922  0.00  0.00    +0.000 C 
ATOM     17  C   UNL     1       2.291   3.795  17.460  0.00  0.00    +0.000 C 
ATOM     18  C   UNL     1       3.739   3.701  16.940  0.00  0.00    +0.000 C 
ATOM     19  C   UNL     1       4.466   5.043  17.168  0.00  0.00    +0.000 C 
ATOM     20  C   UNL     1       4.359   5.488  18.635  0.00  0.00    +0.000 C 
BRANCH  18  21
ATOM     21  O   UNL     1       4.432   2.618  17.515  0.00  0.00    +0.000 OA
ATOM     22  H   UNL     1       4.874   2.092  16.805  0.00  0.00    +0.000 HD
ENDBRANCH  18  21
ENDBRANCH  14  15
ENDBRANCH  10  14
TORSDOF 4
ENDMDL
MODEL 8
REMARK VINA RESULT:      -6.6      3.083      7.706
REMARK  Name = 
REMARK  5 active torsions:
REMARK  status: ('A' for Active; 'I' for Inactive)
REMARK    1  A    between atoms: C_1  and  O_2
REMARK    2  A    between atoms: O_2  and  C_3
REMARK    3  A    between atoms: C_12  and  C_13
REMARK    4  A    between atoms: C_13  and  N_14
REMARK    5  A    between atoms: C_17  and  O_18
REMARK                            x       y       z     vdW  Elec       q    Type
REMARK                         _______ _______ _______ _____ _____    ______ ____
ROOT
ATOM      1  C   UNL     1       1.062  11.264  19.444  0.00  0.00    +0.000 A 
ATOM      2  C   UNL     1       0.439  12.055  20.427  0.00  0.00    +0.000 A 
ATOM      3  C   UNL     1       0.027  11.488  21.630  0.00  0.00    +0.000 A 
ATOM      4  C   UNL     1       0.224  10.128  21.880  0.00  0.00    +0.000 A 
ATOM      5 CL   UNL     1      -0.343   9.492  23.421  0.00  0.00    +0.000 Cl
ATOM      6  C   UNL     1       0.852   9.315  20.908  0.00  0.00    +0.000 A 
ATOM      7  C   UNL     1       1.275   9.891  19.691  0.00  0.00    +0.000 A 
ATOM      8  C   UNL     1       1.893   9.041  18.608  0.00  0.00    +0.000 C 
ATOM      9  C   UNL     1       2.308   7.616  19.022  0.00  0.00    +0.000 C 
ATOM     10  C   UNL     1       1.687   7.061  20.285  0.00  0.00    +0.000 C 
ATOM     11  C   UNL     1       1.041   7.865  21.148  0.00  0.00    +0.000 C 
ENDROOT
BRANCH   1  13
ATOM     12  C   UNL     1       2.367  12.824  18.088  0.00  0.00    +0.000 C 
ATOM     13  O   UNL     1       1.472  11.788  18.255  0.00  0.00    +0.000 OA
ENDBRANCH   1  13
BRANCH  10  14
ATOM     14  C   UNL     1       1.973   5.603  20.631  0.00  0.00    +0.000 C 
BRANCH  14  15
ATOM     15  N   UNL     1       2.493   4.753  19.536  0.00  0.00    +0.000 NA
ATOM     16  C   UNL     1       1.468   4.020  18.769  0.00  0.00    +0.000 C 
ATOM     17  C   UNL     1       2.085   3.538  17.443  0.00  0.00    +0.000 C 
ATOM     18  C   UNL     1       3.337   2.670  17.680  0.00  0.00    +0.000 C 
ATOM     19  C   UNL     1       4.332   3.424  18.586  0.00  0.00    +0.000 C 
ATOM     20  C   UNL     1       3.653   3.904  19.878  0.00  0.00    +0.000 C 
BRANCH  18  21
ATOM     21  O   UNL     1       3.004   1.403  18.198  0.00  0.00    +0.000 OA
ATOM     22  H   UNL     1       2.068   1.186  17.969  0.00  0.00    +0.000 HD
ENDBRANCH  18  21
ENDBRANCH  14  15
ENDBRANCH  10  14
TORSDOF 4
ENDMDL
MODEL 9
REMARK VINA RESULT:      -6.6      4.435      7.469
REMARK  Name = 
REMARK  5 active torsions:
REMARK  status: ('A' for Active; 'I' for Inactive)
REMARK    1  A    between atoms: C_1  and  O_2
REMARK    2  A    between atoms: O_2  and  C_3
REMARK    3  A    between atoms: C_12  and  C_13
REMARK    4  A    between atoms: C_13  and  N_14
REMARK    5  A    between atoms: C_17  and  O_18
REMARK                            x       y       z     vdW  Elec       q    Type
REMARK                         _______ _______ _______ _____ _____    ______ ____
ROOT
ATOM      1  C   UNL     1       2.437   6.513  19.484  0.00  0.00    +0.000 A 
ATOM      2  C   UNL     1       2.023   5.548  20.421  0.00  0.00    +0.000 A 
ATOM      3  C   UNL     1       2.646   4.305  20.472  0.00  0.00    +0.000 A 
ATOM      4  C   UNL     1       3.690   3.995  19.597  0.00  0.00    +0.000 A 
ATOM      5 CL   UNL     1       4.411   2.393  19.722  0.00  0.00    +0.000 Cl
ATOM      6  C   UNL     1       4.125   4.951  18.651  0.00  0.00    +0.000 A 
ATOM      7  C   UNL     1       3.498   6.213  18.602  0.00  0.00    +0.000 A 
ATOM      8  C   UNL     1       3.896   7.235  17.565  0.00  0.00    +0.000 C 
ATOM      9  C   UNL     1       5.198   6.943  16.795  0.00  0.00    +0.000 C 
ATOM     10  C   UNL     1       5.704   5.518  16.820  0.00  0.00    +0.000 C 
ATOM     11  C   UNL     1       5.212   4.625  17.697  0.00  0.00    +0.000 C 
ENDROOT
BRANCH   1  13
ATOM     12  C   UNL     1       1.383   8.488  20.466  0.00  0.00    +0.000 C 
ATOM     13  O   UNL     1       1.844   7.737  19.405  0.00  0.00    +0.000 OA
ENDBRANCH   1  13
BRANCH  10  14
ATOM     14  C   UNL     1       6.909   5.181  15.947  0.00  0.00    +0.000 C 
BRANCH  14  15
ATOM     15  N   UNL     1       6.626   4.815  14.540  0.00  0.00    +0.000 NA
ATOM     16  C   UNL     1       5.779   3.620  14.362  0.00  0.00    +0.000 C 
ATOM     17  C   UNL     1       5.227   3.609  12.924  0.00  0.00    +0.000 C 
ATOM     18  C   UNL     1       6.361   3.656  11.880  0.00  0.00    +0.000 C 
ATOM     19  C   UNL     1       7.293   4.850  12.173  0.00  0.00    +0.000 C 
ATOM     20  C   UNL     1       7.787   4.823  13.628  0.00  0.00    +0.000 C 
BRANCH  18  21
ATOM     21  O   UNL     1       7.064   2.437  11.815  0.00  0.00    +0.000 OA
ATOM     22  H   UNL     1       7.692   2.376  12.576  0.00  0.00    +0.000 HD
ENDBRANCH  18  21
ENDBRANCH  14  15
ENDBRANCH  10  14
TORSDOF 4
ENDMDL
