MODEL 1
REMARK VINA RESULT:      -7.2      0.000      0.000
REMARK  Name = 
REMARK  7 active torsions:
REMARK  status: ('A' for Active; 'I' for Inactive)
REMARK    1  A    between atoms: C_1  and  C_2
REMARK    2  A    between atoms: C_4  and  C_5
REMARK    3  A    between atoms: N_10  and  C_11
REMARK    4  A    between atoms: C_14  and  C_15
REMARK    5  A    between atoms: N_16  and  C_17
REMARK    6  A    between atoms: C_22  and  C_23
REMARK    7  A    between atoms: C_23  and  O_25
REMARK                            x       y       z     vdW  Elec       q    Type
REMARK                         _______ _______ _______ _____ _____    ______ ____
ROOT
ATOM      1  C   UNL     1      -0.108   9.207  22.278  0.00  0.00    +0.000 C 
ATOM      2  C   UNL     1       0.639   8.766  21.066  0.00  0.00    +0.000 A 
ATOM      3  C   UNL     1       1.366   7.594  21.001  0.00  0.00    +0.000 A 
ATOM      4  C   UNL     1       2.115   7.585  19.822  0.00  0.00    +0.000 A 
ATOM      5  C   UNL     1       1.735   8.704  19.087  0.00  0.00    +0.000 A 
ATOM      6  C   UNL     1       2.127   9.027  17.669  0.00  0.00    +0.000 C 
ATOM      7  N   UNL     1       0.840   9.480  19.878  0.00  0.00    +0.000 N 
ENDROOT
BRANCH   4   8
ATOM      8  C   UNL     1       3.038   6.581  19.379  0.00  0.00    +0.000 C 
ATOM      9  C   UNL     1       2.883   5.252  19.255  0.00  0.00    +0.000 C 
ATOM     10  S   UNL     1       4.183   4.263  18.658  0.00  0.00    +0.000 S 
ATOM     11  C   UNL     1       3.218   2.801  18.690  0.00  0.00    +0.000 C 
ATOM     12  O   UNL     1       3.647   1.725  18.309  0.00  0.00    +0.000 OA
ATOM     13  N   UNL     1       1.983   3.077  19.188  0.00  0.00    +0.000 N 
ATOM     14  C   UNL     1       0.978   2.045  19.342  0.00  0.00    +0.000 C 
ATOM     15  C   UNL     1       1.712   4.374  19.563  0.00  0.00    +0.000 C 
ATOM     16  O   UNL     1       0.669   4.732  20.089  0.00  0.00    +0.000 OA
ENDBRANCH   4   8
BRANCH   7  17
ATOM     17  C   UNL     1       0.367  10.810  19.551  0.00  0.00    +0.000 A 
ATOM     18  C   UNL     1       1.103  11.894  20.072  0.00  0.00    +0.000 A 
ATOM     19  C   UNL     1       0.790  13.224  19.780  0.00  0.00    +0.000 A 
ATOM     20  C   UNL     1      -0.319  13.519  19.012  0.00  0.00    +0.000 A 
ATOM     21  C   UNL     1      -1.105  12.477  18.527  0.00  0.00    +0.000 A 
ATOM     22  C   UNL     1      -0.779  11.123  18.789  0.00  0.00    +0.000 A 
BRANCH  22  23
ATOM     23  C   UNL     1      -1.613  10.156  18.048  0.00  0.00    +0.000 C 
ATOM     24  O   UNL     1      -2.686   9.747  18.456  0.00  0.00    +0.000 OA
BRANCH  23  25
ATOM     25  O   UNL     1      -1.056   9.738  16.886  0.00  0.00    +0.000 OA
ATOM     26  H   UNL     1      -1.433   8.922  16.504  0.00  0.00    +0.000 HD
ENDBRANCH  23  25
ENDBRANCH  22  23
ENDBRANCH   7  17
TORSDOF 4
ENDMDL
MODEL 2
REMARK VINA RESULT:      -7.2      2.692      8.031
REMARK  Name = 
REMARK  7 active torsions:
REMARK  status: ('A' for Active; 'I' for Inactive)
REMARK    1  A    between atoms: C_1  and  C_2
REMARK    2  A    between atoms: C_4  and  C_5
REMARK    3  A    between atoms: N_10  and  C_11
REMARK    4  A    between atoms: C_14  and  C_15
REMARK    5  A    between atoms: N_16  and  C_17
REMARK    6  A    between atoms: C_22  and  C_23
REMARK    7  A    between atoms: C_23  and  O_25
REMARK                            x       y       z     vdW  Elec       q    Type
REMARK                         _______ _______ _______ _____ _____    ______ ____
ROOT
ATOM      1  C   UNL     1       4.306   6.732  16.584  0.00  0.00    +0.000 C 
ATOM      2  C   UNL     1       3.352   6.849  17.722  0.00  0.00    +0.000 A 
ATOM      3  C   UNL     1       2.912   8.056  18.229  0.00  0.00    +0.000 A 
ATOM      4  C   UNL     1       2.212   7.825  19.416  0.00  0.00    +0.000 A 
ATOM      5  C   UNL     1       2.100   6.446  19.565  0.00  0.00    +0.000 A 
ATOM      6  C   UNL     1       1.273   5.714  20.588  0.00  0.00    +0.000 C 
ATOM      7  N   UNL     1       2.852   5.820  18.529  0.00  0.00    +0.000 N 
ENDROOT
BRANCH   4   8
ATOM      8  C   UNL     1       1.623   8.799  20.288  0.00  0.00    +0.000 C 
ATOM      9  C   UNL     1       0.666   9.713  20.051  0.00  0.00    +0.000 C 
ATOM     10  S   UNL     1       0.117  10.766  21.321  0.00  0.00    +0.000 S 
ATOM     11  C   UNL     1      -1.107  11.510  20.311  0.00  0.00    +0.000 C 
ATOM     12  O   UNL     1      -1.876  12.358  20.731  0.00  0.00    +0.000 OA
ATOM     13  N   UNL     1      -1.039  10.995  19.054  0.00  0.00    +0.000 N 
ATOM     14  C   UNL     1      -1.928  11.442  18.001  0.00  0.00    +0.000 C 
ATOM     15  C   UNL     1      -0.081  10.040  18.797  0.00  0.00    +0.000 C 
ATOM     16  O   UNL     1       0.127   9.556  17.695  0.00  0.00    +0.000 OA
ENDBRANCH   4   8
BRANCH   7  17
ATOM     17  C   UNL     1       3.145   4.403  18.444  0.00  0.00    +0.000 A 
ATOM     18  C   UNL     1       2.086   3.554  18.061  0.00  0.00    +0.000 A 
ATOM     19  C   UNL     1       2.252   2.179  17.880  0.00  0.00    +0.000 A 
ATOM     20  C   UNL     1       3.473   1.591  18.148  0.00  0.00    +0.000 A 
ATOM     21  C   UNL     1       4.528   2.387  18.584  0.00  0.00    +0.000 A 
ATOM     22  C   UNL     1       4.381   3.788  18.740  0.00  0.00    +0.000 A 
BRANCH  22  23
ATOM     23  C   UNL     1       5.646   4.491  19.032  0.00  0.00    +0.000 C 
ATOM     24  O   UNL     1       5.734   5.403  19.835  0.00  0.00    +0.000 OA
BRANCH  23  25
ATOM     25  O   UNL     1       6.694   4.050  18.295  0.00  0.00    +0.000 OA
ATOM     26  H   UNL     1       6.789   4.450  17.409  0.00  0.00    +0.000 HD
ENDBRANCH  23  25
ENDBRANCH  22  23
ENDBRANCH   7  17
TORSDOF 4
ENDMDL
MODEL 3
REMARK VINA RESULT:      -6.9      1.653      2.132
REMARK  Name = 
REMARK  7 active torsions:
REMARK  status: ('A' for Active; 'I' for Inactive)
REMARK    1  A    between atoms: C_1  and  C_2
REMARK    2  A    between atoms: C_4  and  C_5
REMARK    3  A    between atoms: N_10  and  C_11
REMARK    4  A    between atoms: C_14  and  C_15
REMARK    5  A    between atoms: N_16  and  C_17
REMARK    6  A    between atoms: C_22  and  C_23
REMARK    7  A    between atoms: C_23  and  O_25
REMARK                            x       y       z     vdW  Elec       q    Type
REMARK                         _______ _______ _______ _____ _____    ______ ____
ROOT
ATOM      1  C   UNL     1      -0.216   9.393  22.260  0.00  0.00    +0.000 C 
ATOM      2  C   UNL     1       0.525   8.813  21.105  0.00  0.00    +0.000 A 
ATOM      3  C   UNL     1       1.391   7.742  21.214  0.00  0.00    +0.000 A 
ATOM      4  C   UNL     1       2.083   7.590  20.010  0.00  0.00    +0.000 A 
ATOM      5  C   UNL     1       1.533   8.492  19.104  0.00  0.00    +0.000 A 
ATOM      6  C   UNL     1       1.818   8.575  17.628  0.00  0.00    +0.000 C 
ATOM      7  N   UNL     1       0.582   9.299  19.794  0.00  0.00    +0.000 N 
ENDROOT
BRANCH   4   8
ATOM      8  C   UNL     1       3.104   6.631  19.702  0.00  0.00    +0.000 C 
ATOM      9  C   UNL     1       3.029   5.297  19.559  0.00  0.00    +0.000 C 
ATOM     10  S   UNL     1       4.444   4.372  19.153  0.00  0.00    +0.000 S 
ATOM     11  C   UNL     1       3.553   2.867  19.050  0.00  0.00    +0.000 C 
ATOM     12  O   UNL     1       4.081   1.814  18.735  0.00  0.00    +0.000 OA
ATOM     13  N   UNL     1       2.249   3.083  19.369  0.00  0.00    +0.000 N 
ATOM     14  C   UNL     1       1.281   2.005  19.382  0.00  0.00    +0.000 C 
ATOM     15  C   UNL     1       1.868   4.365  19.701  0.00  0.00    +0.000 C 
ATOM     16  O   UNL     1       0.747   4.672  20.074  0.00  0.00    +0.000 OA
ENDBRANCH   4   8
BRANCH   7  17
ATOM     17  C   UNL     1      -0.068  10.477  19.255  0.00  0.00    +0.000 A 
ATOM     18  C   UNL     1      -1.312  10.284  18.619  0.00  0.00    +0.000 A 
ATOM     19  C   UNL     1      -2.070  11.342  18.114  0.00  0.00    +0.000 A 
ATOM     20  C   UNL     1      -1.574  12.631  18.163  0.00  0.00    +0.000 A 
ATOM     21  C   UNL     1      -0.324  12.855  18.732  0.00  0.00    +0.000 A 
ATOM     22  C   UNL     1       0.441  11.793  19.277  0.00  0.00    +0.000 A 
BRANCH  22  23
ATOM     23  C   UNL     1       1.650  12.239  19.996  0.00  0.00    +0.000 C 
ATOM     24  O   UNL     1       1.796  12.114  21.200  0.00  0.00    +0.000 OA
BRANCH  23  25
ATOM     25  O   UNL     1       2.569  12.832  19.197  0.00  0.00    +0.000 OA
ATOM     26  H   UNL     1       2.645  13.802  19.285  0.00  0.00    +0.000 HD
ENDBRANCH  23  25
ENDBRANCH  22  23
ENDBRANCH   7  17
TORSDOF 4
ENDMDL
MODEL 4
REMARK VINA RESULT:      -6.9      4.497      8.374
REMARK  Name = 
REMARK  7 active torsions:
REMARK  status: ('A' for Active; 'I' for Inactive)
REMARK    1  A    between atoms: C_1  and  C_2
REMARK    2  A    between atoms: C_4  and  C_5
REMARK    3  A    between atoms: N_10  and  C_11
REMARK    4  A    between atoms: C_14  and  C_15
REMARK    5  A    between atoms: N_16  and  C_17
REMARK    6  A    between atoms: C_22  and  C_23
REMARK    7  A    between atoms: C_23  and  O_25
REMARK                            x       y       z     vdW  Elec       q    Type
REMARK                         _______ _______ _______ _____ _____    ______ ____
ROOT
ATOM      1  C   UNL     1       1.549  12.653  20.463  0.00  0.00    +0.000 C 
ATOM      2  C   UNL     1       0.249  12.224  19.875  0.00  0.00    +0.000 A 
ATOM      3  C   UNL     1      -0.895  12.999  19.905  0.00  0.00    +0.000 A 
ATOM      4  C   UNL     1      -1.979  12.229  19.474  0.00  0.00    +0.000 A 
ATOM      5  C   UNL     1      -1.469  11.009  19.041  0.00  0.00    +0.000 A 
ATOM      6  C   UNL     1      -2.221   9.922  18.320  0.00  0.00    +0.000 C 
ATOM      7  N   UNL     1      -0.074  10.976  19.329  0.00  0.00    +0.000 N 
ENDROOT
BRANCH   4   8
ATOM      8  C   UNL     1      -3.354  12.624  19.391  0.00  0.00    +0.000 C 
ATOM      9  C   UNL     1      -4.258  12.837  20.362  0.00  0.00    +0.000 C 
ATOM     10  S   UNL     1      -5.875  13.343  19.968  0.00  0.00    +0.000 S 
ATOM     11  C   UNL     1      -6.344  13.495  21.649  0.00  0.00    +0.000 C 
ATOM     12  O   UNL     1      -7.448  13.886  21.988  0.00  0.00    +0.000 OA
ATOM     13  N   UNL     1      -5.310  13.119  22.450  0.00  0.00    +0.000 N 
ATOM     14  C   UNL     1      -5.425  13.131  23.894  0.00  0.00    +0.000 C 
ATOM     15  C   UNL     1      -4.143  12.705  21.847  0.00  0.00    +0.000 C 
ATOM     16  O   UNL     1      -3.173  12.276  22.453  0.00  0.00    +0.000 OA
ENDBRANCH   4   8
BRANCH   7  17
ATOM     17  C   UNL     1       0.782   9.813  19.208  0.00  0.00    +0.000 A 
ATOM     18  C   UNL     1       1.395   9.600  17.956  0.00  0.00    +0.000 A 
ATOM     19  C   UNL     1       2.291   8.553  17.726  0.00  0.00    +0.000 A 
ATOM     20  C   UNL     1       2.549   7.635  18.726  0.00  0.00    +0.000 A 
ATOM     21  C   UNL     1       1.919   7.778  19.958  0.00  0.00    +0.000 A 
ATOM     22  C   UNL     1       1.033   8.855  20.214  0.00  0.00    +0.000 A 
BRANCH  22  23
ATOM     23  C   UNL     1       0.603   8.950  21.622  0.00  0.00    +0.000 C 
ATOM     24  O   UNL     1      -0.461   8.515  22.028  0.00  0.00    +0.000 OA
BRANCH  23  25
ATOM     25  O   UNL     1       1.488   9.598  22.418  0.00  0.00    +0.000 OA
ATOM     26  H   UNL     1       2.235  10.027  21.959  0.00  0.00    +0.000 HD
ENDBRANCH  23  25
ENDBRANCH  22  23
ENDBRANCH   7  17
TORSDOF 4
ENDMDL
MODEL 5
REMARK VINA RESULT:      -6.9      3.479      7.779
REMARK  Name = 
REMARK  7 active torsions:
REMARK  status: ('A' for Active; 'I' for Inactive)
REMARK    1  A    between atoms: C_1  and  C_2
REMARK    2  A    between atoms: C_4  and  C_5
REMARK    3  A    between atoms: N_10  and  C_11
REMARK    4  A    between atoms: C_14  and  C_15
REMARK    5  A    between atoms: N_16  and  C_17
REMARK    6  A    between atoms: C_22  and  C_23
REMARK    7  A    between atoms: C_23  and  O_25
REMARK                            x       y       z     vdW  Elec       q    Type
REMARK                         _______ _______ _______ _____ _____    ______ ____
ROOT
ATOM      1  C   UNL     1       2.373   3.867  17.722  0.00  0.00    +0.000 C 
ATOM      2  C   UNL     1       2.658   5.325  17.836  0.00  0.00    +0.000 A 
ATOM      3  C   UNL     1       1.722   6.258  18.238  0.00  0.00    +0.000 A 
ATOM      4  C   UNL     1       2.234   7.540  18.027  0.00  0.00    +0.000 A 
ATOM      5  C   UNL     1       3.557   7.391  17.621  0.00  0.00    +0.000 A 
ATOM      6  C   UNL     1       4.577   8.486  17.452  0.00  0.00    +0.000 C 
ATOM      7  N   UNL     1       3.823   6.002  17.453  0.00  0.00    +0.000 N 
ENDROOT
BRANCH   4   8
ATOM      8  C   UNL     1       1.581   8.794  18.265  0.00  0.00    +0.000 C 
ATOM      9  C   UNL     1       1.097   9.319  19.403  0.00  0.00    +0.000 C 
ATOM     10  S   UNL     1       0.364  10.897  19.407  0.00  0.00    +0.000 S 
ATOM     11  C   UNL     1       0.122  10.890  21.141  0.00  0.00    +0.000 C 
ATOM     12  O   UNL     1      -0.358  11.839  21.739  0.00  0.00    +0.000 OA
ATOM     13  N   UNL     1       0.541   9.704  21.659  0.00  0.00    +0.000 N 
ATOM     14  C   UNL     1       0.443   9.416  23.076  0.00  0.00    +0.000 C 
ATOM     15  C   UNL     1       1.051   8.764  20.791  0.00  0.00    +0.000 C 
ATOM     16  O   UNL     1       1.392   7.639  21.122  0.00  0.00    +0.000 OA
ENDBRANCH   4   8
BRANCH   7  17
ATOM     17  C   UNL     1       5.021   5.441  16.860  0.00  0.00    +0.000 A 
ATOM     18  C   UNL     1       5.169   5.584  15.465  0.00  0.00    +0.000 A 
ATOM     19  C   UNL     1       6.305   5.145  14.781  0.00  0.00    +0.000 A 
ATOM     20  C   UNL     1       7.305   4.478  15.462  0.00  0.00    +0.000 A 
ATOM     21  C   UNL     1       7.169   4.266  16.831  0.00  0.00    +0.000 A 
ATOM     22  C   UNL     1       6.036   4.736  17.542  0.00  0.00    +0.000 A 
BRANCH  22  23
ATOM     23  C   UNL     1       6.146   4.583  19.006  0.00  0.00    +0.000 C 
ATOM     24  O   UNL     1       6.750   5.368  19.716  0.00  0.00    +0.000 OA
BRANCH  23  25
ATOM     25  O   UNL     1       5.542   3.469  19.483  0.00  0.00    +0.000 OA
ATOM     26  H   UNL     1       5.927   2.620  19.191  0.00  0.00    +0.000 HD
ENDBRANCH  23  25
ENDBRANCH  22  23
ENDBRANCH   7  17
TORSDOF 4
ENDMDL
MODEL 6
REMARK VINA RESULT:      -6.7      3.555      7.831
REMARK  Name = 
REMARK  7 active torsions:
REMARK  status: ('A' for Active; 'I' for Inactive)
REMARK    1  A    between atoms: C_1  and  C_2
REMARK    2  A    between atoms: C_4  and  C_5
REMARK    3  A    between atoms: N_10  and  C_11
REMARK    4  A    between atoms: C_14  and  C_15
REMARK    5  A    between atoms: N_16  and  C_17
REMARK    6  A    between atoms: C_22  and  C_23
REMARK    7  A    between atoms: C_23  and  O_25
REMARK                            x       y       z     vdW  Elec       q    Type
REMARK                         _______ _______ _______ _____ _____    ______ ____
ROOT
ATOM      1  C   UNL     1       3.382   3.929  19.711  0.00  0.00    +0.000 C 
ATOM      2  C   UNL     1       3.329   5.319  19.176  0.00  0.00    +0.000 A 
ATOM      3  C   UNL     1       2.380   6.247  19.556  0.00  0.00    +0.000 A 
ATOM      4  C   UNL     1       2.471   7.362  18.719  0.00  0.00    +0.000 A 
ATOM      5  C   UNL     1       3.584   7.174  17.904  0.00  0.00    +0.000 A 
ATOM      6  C   UNL     1       4.197   8.182  16.969  0.00  0.00    +0.000 C 
ATOM      7  N   UNL     1       4.106   5.871  18.151  0.00  0.00    +0.000 N 
ENDROOT
BRANCH   4   8
ATOM      8  C   UNL     1       1.649   8.537  18.734  0.00  0.00    +0.000 C 
ATOM      9  C   UNL     1       0.998   9.130  19.749  0.00  0.00    +0.000 C 
ATOM     10  S   UNL     1       0.082  10.584  19.482  0.00  0.00    +0.000 S 
ATOM     11  C   UNL     1      -0.323  10.758  21.177  0.00  0.00    +0.000 C 
ATOM     12  O   UNL     1      -0.970  11.701  21.602  0.00  0.00    +0.000 OA
ATOM     13  N   UNL     1       0.185   9.712  21.881  0.00  0.00    +0.000 N 
ATOM     14  C   UNL     1      -0.012   9.590  23.311  0.00  0.00    +0.000 C 
ATOM     15  C   UNL     1       0.887   8.749  21.191  0.00  0.00    +0.000 C 
ATOM     16  O   UNL     1       1.330   7.728  21.696  0.00  0.00    +0.000 OA
ENDBRANCH   4   8
BRANCH   7  17
ATOM     17  C   UNL     1       5.143   5.221  17.374  0.00  0.00    +0.000 A 
ATOM     18  C   UNL     1       4.749   4.621  16.161  0.00  0.00    +0.000 A 
ATOM     19  C   UNL     1       5.659   4.018  15.290  0.00  0.00    +0.000 A 
ATOM     20  C   UNL     1       6.993   3.930  15.640  0.00  0.00    +0.000 A 
ATOM     21  C   UNL     1       7.412   4.460  16.856  0.00  0.00    +0.000 A 
ATOM     22  C   UNL     1       6.503   5.103  17.734  0.00  0.00    +0.000 A 
BRANCH  22  23
ATOM     23  C   UNL     1       7.151   5.761  18.885  0.00  0.00    +0.000 C 
ATOM     24  O   UNL     1       7.019   5.380  20.035  0.00  0.00    +0.000 OA
BRANCH  23  25
ATOM     25  O   UNL     1       7.880   6.852  18.547  0.00  0.00    +0.000 OA
ATOM     26  H   UNL     1       8.737   6.948  19.006  0.00  0.00    +0.000 HD
ENDBRANCH  23  25
ENDBRANCH  22  23
ENDBRANCH   7  17
TORSDOF 4
ENDMDL
MODEL 7
REMARK VINA RESULT:      -6.7      1.949      2.355
REMARK  Name = 
REMARK  7 active torsions:
REMARK  status: ('A' for Active; 'I' for Inactive)
REMARK    1  A    between atoms: C_1  and  C_2
REMARK    2  A    between atoms: C_4  and  C_5
REMARK    3  A    between atoms: N_10  and  C_11
REMARK    4  A    between atoms: C_14  and  C_15
REMARK    5  A    between atoms: N_16  and  C_17
REMARK    6  A    between atoms: C_22  and  C_23
REMARK    7  A    between atoms: C_23  and  O_25
REMARK                            x       y       z     vdW  Elec       q    Type
REMARK                         _______ _______ _______ _____ _____    ______ ____
ROOT
ATOM      1  C   UNL     1       0.325   9.514  22.903  0.00  0.00    +0.000 C 
ATOM      2  C   UNL     1       0.699   9.181  21.499  0.00  0.00    +0.000 A 
ATOM      3  C   UNL     1       1.480   8.094  21.155  0.00  0.00    +0.000 A 
ATOM      4  C   UNL     1       1.826   8.190  19.805  0.00  0.00    +0.000 A 
ATOM      5  C   UNL     1       1.131   9.276  19.280  0.00  0.00    +0.000 A 
ATOM      6  C   UNL     1       1.033   9.667  17.829  0.00  0.00    +0.000 C 
ATOM      7  N   UNL     1       0.453   9.935  20.346  0.00  0.00    +0.000 N 
ENDROOT
BRANCH   4   8
ATOM      8  C   UNL     1       2.658   7.300  19.049  0.00  0.00    +0.000 C 
ATOM      9  C   UNL     1       2.692   5.958  19.019  0.00  0.00    +0.000 C 
ATOM     10  S   UNL     1       3.805   5.125  17.973  0.00  0.00    +0.000 S 
ATOM     11  C   UNL     1       3.188   3.545  18.408  0.00  0.00    +0.000 C 
ATOM     12  O   UNL     1       3.610   2.516  17.907  0.00  0.00    +0.000 OA
ATOM     13  N   UNL     1       2.215   3.675  19.350  0.00  0.00    +0.000 N 
ATOM     14  C   UNL     1       1.537   2.522  19.907  0.00  0.00    +0.000 C 
ATOM     15  C   UNL     1       1.898   4.944  19.780  0.00  0.00    +0.000 C 
ATOM     16  O   UNL     1       1.097   5.187  20.670  0.00  0.00    +0.000 OA
ENDBRANCH   4   8
BRANCH   7  17
ATOM     17  C   UNL     1      -0.223  11.213  20.249  0.00  0.00    +0.000 A 
ATOM     18  C   UNL     1      -1.633  11.188  20.228  0.00  0.00    +0.000 A 
ATOM     19  C   UNL     1      -2.405  12.352  20.200  0.00  0.00    +0.000 A 
ATOM     20  C   UNL     1      -1.789  13.585  20.118  0.00  0.00    +0.000 A 
ATOM     21  C   UNL     1      -0.400  13.649  20.078  0.00  0.00    +0.000 A 
ATOM     22  C   UNL     1       0.395  12.477  20.139  0.00  0.00    +0.000 A 
BRANCH  22  23
ATOM     23  C   UNL     1       1.841  12.744  20.268  0.00  0.00    +0.000 C 
ATOM     24  O   UNL     1       2.388  12.961  21.335  0.00  0.00    +0.000 OA
BRANCH  23  25
ATOM     25  O   UNL     1       2.499  12.759  19.084  0.00  0.00    +0.000 OA
ATOM     26  H   UNL     1       2.220  12.083  18.435  0.00  0.00    +0.000 HD
ENDBRANCH  23  25
ENDBRANCH  22  23
ENDBRANCH   7  17
TORSDOF 4
ENDMDL
MODEL 8
REMARK VINA RESULT:      -6.7      2.546      7.687
REMARK  Name = 
REMARK  7 active torsions:
REMARK  status: ('A' for Active; 'I' for Inactive)
REMARK    1  A    between atoms: C_1  and  C_2
REMARK    2  A    between atoms: C_4  and  C_5
REMARK    3  A    between atoms: N_10  and  C_11
REMARK    4  A    between atoms: C_14  and  C_15
REMARK    5  A    between atoms: N_16  and  C_17
REMARK    6  A    between atoms: C_22  and  C_23
REMARK    7  A    between atoms: C_23  and  O_25
REMARK                            x       y       z     vdW  Elec       q    Type
REMARK                         _______ _______ _______ _____ _____    ______ ____
ROOT
ATOM      1  C   UNL     1       4.332   6.611  16.810  0.00  0.00    +0.000 C 
ATOM      2  C   UNL     1       3.363   6.796  17.926  0.00  0.00    +0.000 A 
ATOM      3  C   UNL     1       2.848   8.025  18.294  0.00  0.00    +0.000 A 
ATOM      4  C   UNL     1       2.153   7.886  19.498  0.00  0.00    +0.000 A 
ATOM      5  C   UNL     1       2.121   6.527  19.799  0.00  0.00    +0.000 A 
ATOM      6  C   UNL     1       1.331   5.865  20.897  0.00  0.00    +0.000 C 
ATOM      7  N   UNL     1       2.918   5.836  18.842  0.00  0.00    +0.000 N 
ENDROOT
BRANCH   4   8
ATOM      8  C   UNL     1       1.500   8.914  20.255  0.00  0.00    +0.000 C 
ATOM      9  C   UNL     1       0.540   9.782  19.895  0.00  0.00    +0.000 C 
ATOM     10  S   UNL     1      -0.096  10.923  21.043  0.00  0.00    +0.000 S 
ATOM     11  C   UNL     1      -1.279  11.551  19.915  0.00  0.00    +0.000 C 
ATOM     12  O   UNL     1      -2.086  12.412  20.224  0.00  0.00    +0.000 OA
ATOM     13  N   UNL     1      -1.136  10.937  18.710  0.00  0.00    +0.000 N 
ATOM     14  C   UNL     1      -1.978  11.274  17.580  0.00  0.00    +0.000 C 
ATOM     15  C   UNL     1      -0.148   9.986  18.582  0.00  0.00    +0.000 C 
ATOM     16  O   UNL     1       0.127   9.419  17.536  0.00  0.00    +0.000 OA
ENDBRANCH   4   8
BRANCH   7  17
ATOM     17  C   UNL     1       3.295   4.438  18.915  0.00  0.00    +0.000 A 
ATOM     18  C   UNL     1       4.554   4.146  19.480  0.00  0.00    +0.000 A 
ATOM     19  C   UNL     1       5.009   2.838  19.666  0.00  0.00    +0.000 A 
ATOM     20  C   UNL     1       4.247   1.774  19.224  0.00  0.00    +0.000 A 
ATOM     21  C   UNL     1       3.024   2.024  18.610  0.00  0.00    +0.000 A 
ATOM     22  C   UNL     1       2.536   3.345  18.444  0.00  0.00    +0.000 A 
BRANCH  22  23
ATOM     23  C   UNL     1       1.150   3.409  17.942  0.00  0.00    +0.000 C 
ATOM     24  O   UNL     1       0.769   4.240  17.136  0.00  0.00    +0.000 OA
BRANCH  23  25
ATOM     25  O   UNL     1       0.331   2.478  18.487  0.00  0.00    +0.000 OA
ATOM     26  H   UNL     1       0.051   2.646  19.408  0.00  0.00    +0.000 HD
ENDBRANCH  23  25
ENDBRANCH  22  23
ENDBRANCH   7  17
TORSDOF 4
ENDMDL
MODEL 9
REMARK VINA RESULT:      -6.5      4.363      8.769
REMARK  Name = 
REMARK  7 active torsions:
REMARK  status: ('A' for Active; 'I' for Inactive)
REMARK    1  A    between atoms: C_1  and  C_2
REMARK    2  A    between atoms: C_4  and  C_5
REMARK    3  A    between atoms: N_10  and  C_11
REMARK    4  A    between atoms: C_14  and  C_15
REMARK    5  A    between atoms: N_16  and  C_17
REMARK    6  A    between atoms: C_22  and  C_23
REMARK    7  A    between atoms: C_23  and  O_25
REMARK                            x       y       z     vdW  Elec       q    Type
REMARK                         _______ _______ _______ _____ _____    ______ ____
ROOT
ATOM      1  C   UNL     1      -1.914   9.933  17.605  0.00  0.00    +0.000 C 
ATOM      2  C   UNL     1      -1.087  11.001  18.234  0.00  0.00    +0.000 A 
ATOM      3  C   UNL     1      -1.407  12.344  18.181  0.00  0.00    +0.000 A 
ATOM      4  C   UNL     1      -0.330  13.089  18.667  0.00  0.00    +0.000 A 
ATOM      5  C   UNL     1       0.608  12.184  19.155  0.00  0.00    +0.000 A 
ATOM      6  C   UNL     1       1.850  12.509  19.942  0.00  0.00    +0.000 C 
ATOM      7  N   UNL     1       0.163  10.866  18.848  0.00  0.00    +0.000 N 
ENDROOT
BRANCH   4   8
ATOM      8  C   UNL     1      -0.220  14.517  18.752  0.00  0.00    +0.000 C 
ATOM      9  C   UNL     1      -0.577  15.359  19.735  0.00  0.00    +0.000 C 
ATOM     10  S   UNL     1      -0.300  17.069  19.577  0.00  0.00    +0.000 S 
ATOM     11  C   UNL     1      -0.890  17.415  21.190  0.00  0.00    +0.000 C 
ATOM     12  O   UNL     1      -0.889  18.540  21.660  0.00  0.00    +0.000 OA
ATOM     13  N   UNL     1      -1.322  16.267  21.777  0.00  0.00    +0.000 N 
ATOM     14  C   UNL     1      -1.880  16.260  23.114  0.00  0.00    +0.000 C 
ATOM     15  C   UNL     1      -1.233  15.098  21.054  0.00  0.00    +0.000 C 
ATOM     16  O   UNL     1      -1.652  14.018  21.441  0.00  0.00    +0.000 OA
ENDBRANCH   4   8
BRANCH   7  17
ATOM     17  C   UNL     1       0.943   9.656  19.015  0.00  0.00    +0.000 A 
ATOM     18  C   UNL     1       1.635   9.181  17.882  0.00  0.00    +0.000 A 
ATOM     19  C   UNL     1       2.471   8.062  17.926  0.00  0.00    +0.000 A 
ATOM     20  C   UNL     1       2.587   7.334  19.094  0.00  0.00    +0.000 A 
ATOM     21  C   UNL     1       1.874   7.738  20.219  0.00  0.00    +0.000 A 
ATOM     22  C   UNL     1       1.049   8.890  20.196  0.00  0.00    +0.000 A 
BRANCH  22  23
ATOM     23  C   UNL     1       0.518   9.269  21.520  0.00  0.00    +0.000 C 
ATOM     24  O   UNL     1       1.097  10.025  22.281  0.00  0.00    +0.000 OA
BRANCH  23  25
ATOM     25  O   UNL     1      -0.657   8.669  21.826  0.00  0.00    +0.000 OA
ATOM     26  H   UNL     1      -0.782   8.434  22.766  0.00  0.00    +0.000 HD
ENDBRANCH  23  25
ENDBRANCH  22  23
ENDBRANCH   7  17
TORSDOF 4
ENDMDL
