MODEL 1
REMARK VINA RESULT:      -7.2      0.000      0.000
REMARK  Name = 
REMARK  5 active torsions:
REMARK  status: ('A' for Active; 'I' for Inactive)
REMARK    1  A    between atoms: C_2  and  C_3
REMARK    2  A    between atoms: C_6  and  N_7
REMARK    3  A    between atoms: C_15  and  O_16
REMARK    4  A    between atoms: C_15  and  C_17
REMARK    5  A    between atoms: C_17  and  N_18
REMARK                            x       y       z     vdW  Elec       q    Type
REMARK                         _______ _______ _______ _____ _____    ______ ____
ROOT
ATOM      1  O   UNL     1      -1.472  14.684  19.829  0.00  0.00    +0.000 OA
ATOM      2  C   UNL     1      -1.873  13.524  19.944  0.00  0.00    +0.000 C 
ATOM      3  N   UNL     1      -1.375  12.494  19.141  0.00  0.00    +0.000 N 
ATOM      4  C   UNL     1      -0.234  12.757  18.265  0.00  0.00    +0.000 C 
ATOM      5  C   UNL     1       0.986  11.970  18.754  0.00  0.00    +0.000 C 
ATOM      6  C   UNL     1       0.686  10.463  18.957  0.00  0.00    +0.000 C 
ATOM      7  C   UNL     1      -0.636  10.259  19.725  0.00  0.00    +0.000 C 
ATOM      8  C   UNL     1      -1.772  11.089  19.118  0.00  0.00    +0.000 C 
ENDROOT
BRANCH   2   9
ATOM      9  C   UNL     1      -2.901  13.283  21.004  0.00  0.00    +0.000 A 
ATOM     10  C   UNL     1      -4.256  13.328  20.634  0.00  0.00    +0.000 A 
ATOM     11  C   UNL     1      -5.270  13.163  21.592  0.00  0.00    +0.000 A 
ATOM     12  C   UNL     1      -4.923  12.934  22.929  0.00  0.00    +0.000 A 
ATOM     13  C   UNL     1      -3.582  12.911  23.314  0.00  0.00    +0.000 A 
ATOM     14  C   UNL     1      -2.586  13.127  22.358  0.00  0.00    +0.000 A 
BRANCH  12  15
ATOM     15  N   UNL     1      -5.969  12.749  23.938  0.00  0.00    +0.000 N 
ATOM     16  O   UNL     1      -7.001  13.423  23.831  0.00  0.00    +0.000 OA
ATOM     17  O   UNL     1      -5.758  11.919  24.835  0.00  0.00    +0.000 OA
ENDBRANCH  12  15
ENDBRANCH   2   9
BRANCH   6  18
ATOM     18  O   UNL     1       0.512   9.878  17.660  0.00  0.00    +0.000 OA
ATOM     19  H   UNL     1       0.184  10.559  17.039  0.00  0.00    +0.000 HD
ENDBRANCH   6  18
BRANCH   6  20
ATOM     20  C   UNL     1       1.882   9.802  19.713  0.00  0.00    +0.000 C 
BRANCH  20  21
ATOM     21  N   UNL     1       1.845   8.341  19.752  0.00  0.00    +0.000 N 
ATOM     22  C   UNL     1       1.410   7.702  20.889  0.00  0.00    +0.000 A 
ATOM     23  N   UNL     1       1.489   6.435  21.116  0.00  0.00    +0.000 NA
ATOM     24  C   UNL     1       1.894   5.620  20.050  0.00  0.00    +0.000 A 
ATOM     25  C   UNL     1       1.772   4.237  20.187  0.00  0.00    +0.000 A 
ATOM     26  C   UNL     1       1.797   3.429  19.053  0.00  0.00    +0.000 A 
ATOM     27 CL   UNL     1       1.497   1.742  19.206  0.00  0.00    +0.000 Cl
ATOM     28  C   UNL     1       1.989   3.988  17.787  0.00  0.00    +0.000 A 
ATOM     29  C   UNL     1       2.261   5.353  17.664  0.00  0.00    +0.000 A 
ATOM     30  C   UNL     1       2.229   6.157  18.804  0.00  0.00    +0.000 A 
ATOM     31  C   UNL     1       2.443   7.612  18.733  0.00  0.00    +0.000 A 
ATOM     32  O   UNL     1       3.132   8.109  17.846  0.00  0.00    +0.000 OA
ENDBRANCH  20  21
ENDBRANCH   6  20
TORSDOF 5
ENDMDL
MODEL 2
REMARK VINA RESULT:      -7.1      4.321     10.837
REMARK  Name = 
REMARK  5 active torsions:
REMARK  status: ('A' for Active; 'I' for Inactive)
REMARK    1  A    between atoms: C_2  and  C_3
REMARK    2  A    between atoms: C_6  and  N_7
REMARK    3  A    between atoms: C_15  and  O_16
REMARK    4  A    between atoms: C_15  and  C_17
REMARK    5  A    between atoms: C_17  and  N_18
REMARK                            x       y       z     vdW  Elec       q    Type
REMARK                         _______ _______ _______ _____ _____    ______ ____
ROOT
ATOM      1  O   UNL     1       4.723   2.811  19.625  0.00  0.00    +0.000 OA
ATOM      2  C   UNL     1       4.231   3.672  18.892  0.00  0.00    +0.000 C 
ATOM      3  N   UNL     1       3.012   4.285  19.198  0.00  0.00    +0.000 N 
ATOM      4  C   UNL     1       2.389   4.032  20.496  0.00  0.00    +0.000 C 
ATOM      5  C   UNL     1       2.404   5.313  21.336  0.00  0.00    +0.000 C 
ATOM      6  C   UNL     1       1.810   6.531  20.582  0.00  0.00    +0.000 C 
ATOM      7  C   UNL     1       2.371   6.623  19.149  0.00  0.00    +0.000 C 
ATOM      8  C   UNL     1       2.277   5.279  18.421  0.00  0.00    +0.000 C 
ENDROOT
BRANCH   2   9
ATOM      9  C   UNL     1       5.023   4.034  17.675  0.00  0.00    +0.000 A 
ATOM     10  C   UNL     1       4.476   3.734  16.416  0.00  0.00    +0.000 A 
ATOM     11  C   UNL     1       5.192   4.000  15.238  0.00  0.00    +0.000 A 
ATOM     12  C   UNL     1       6.461   4.586  15.321  0.00  0.00    +0.000 A 
ATOM     13  C   UNL     1       7.026   4.867  16.566  0.00  0.00    +0.000 A 
ATOM     14  C   UNL     1       6.321   4.551  17.730  0.00  0.00    +0.000 A 
BRANCH  12  15
ATOM     15  N   UNL     1       7.216   4.880  14.100  0.00  0.00    +0.000 N 
ATOM     16  O   UNL     1       6.863   4.321  13.054  0.00  0.00    +0.000 OA
ATOM     17  O   UNL     1       8.159   5.680  14.190  0.00  0.00    +0.000 OA
ENDBRANCH  12  15
ENDBRANCH   2   9
BRANCH   6  18
ATOM     18  O   UNL     1       0.397   6.320  20.468  0.00  0.00    +0.000 OA
ATOM     19  H   UNL     1       0.176   6.104  19.540  0.00  0.00    +0.000 HD
ENDBRANCH   6  18
BRANCH   6  20
ATOM     20  C   UNL     1       2.118   7.831  21.391  0.00  0.00    +0.000 C 
BRANCH  20  21
ATOM     21  N   UNL     1       1.151   8.910  21.200  0.00  0.00    +0.000 N 
ATOM     22  C   UNL     1       0.833   9.321  19.927  0.00  0.00    +0.000 A 
ATOM     23  N   UNL     1       0.136  10.363  19.626  0.00  0.00    +0.000 NA
ATOM     24  C   UNL     1      -0.494  11.037  20.682  0.00  0.00    +0.000 A 
ATOM     25  C   UNL     1      -1.433  12.022  20.376  0.00  0.00    +0.000 A 
ATOM     26  C   UNL     1      -2.336  12.437  21.351  0.00  0.00    +0.000 A 
ATOM     27 CL   UNL     1      -3.589  13.540  20.934  0.00  0.00    +0.000 Cl
ATOM     28  C   UNL     1      -2.279  11.908  22.643  0.00  0.00    +0.000 A 
ATOM     29  C   UNL     1      -1.245  11.035  22.991  0.00  0.00    +0.000 A 
ATOM     30  C   UNL     1      -0.347  10.620  22.007  0.00  0.00    +0.000 A 
ATOM     31  C   UNL     1       0.724   9.651  22.294  0.00  0.00    +0.000 A 
ATOM     32  O   UNL     1       1.206   9.555  23.420  0.00  0.00    +0.000 OA
ENDBRANCH  20  21
ENDBRANCH   6  20
TORSDOF 5
ENDMDL
MODEL 3
REMARK VINA RESULT:      -7.0      3.904      9.075
REMARK  Name = 
REMARK  5 active torsions:
REMARK  status: ('A' for Active; 'I' for Inactive)
REMARK    1  A    between atoms: C_2  and  C_3
REMARK    2  A    between atoms: C_6  and  N_7
REMARK    3  A    between atoms: C_15  and  O_16
REMARK    4  A    between atoms: C_15  and  C_17
REMARK    5  A    between atoms: C_17  and  N_18
REMARK                            x       y       z     vdW  Elec       q    Type
REMARK                         _______ _______ _______ _____ _____    ______ ____
ROOT
ATOM      1  O   UNL     1      -0.998  10.474  18.204  0.00  0.00    +0.000 OA
ATOM      2  C   UNL     1       0.165  10.684  18.553  0.00  0.00    +0.000 C 
ATOM      3  N   UNL     1       0.678  11.982  18.651  0.00  0.00    +0.000 N 
ATOM      4  C   UNL     1      -0.227  13.121  18.505  0.00  0.00    +0.000 C 
ATOM      5  C   UNL     1      -0.349  13.859  19.843  0.00  0.00    +0.000 C 
ATOM      6  C   UNL     1       1.028  14.226  20.453  0.00  0.00    +0.000 C 
ATOM      7  C   UNL     1       1.996  13.026  20.398  0.00  0.00    +0.000 C 
ATOM      8  C   UNL     1       2.032  12.397  19.001  0.00  0.00    +0.000 C 
ENDROOT
BRANCH   2   9
ATOM      9  C   UNL     1       0.984   9.477  18.886  0.00  0.00    +0.000 A 
ATOM     10  C   UNL     1       1.677   8.838  17.843  0.00  0.00    +0.000 A 
ATOM     11  C   UNL     1       2.418   7.670  18.080  0.00  0.00    +0.000 A 
ATOM     12  C   UNL     1       2.481   7.146  19.377  0.00  0.00    +0.000 A 
ATOM     13  C   UNL     1       1.779   7.756  20.417  0.00  0.00    +0.000 A 
ATOM     14  C   UNL     1       1.004   8.889  20.155  0.00  0.00    +0.000 A 
BRANCH  12  15
ATOM     15  N   UNL     1       3.260   5.933  19.643  0.00  0.00    +0.000 N 
ATOM     16  O   UNL     1       4.322   5.783  19.026  0.00  0.00    +0.000 OA
ATOM     17  O   UNL     1       2.809   5.136  20.477  0.00  0.00    +0.000 OA
ENDBRANCH  12  15
ENDBRANCH   2   9
BRANCH   6  18
ATOM     18  O   UNL     1       1.598  15.262  19.644  0.00  0.00    +0.000 OA
ATOM     19  H   UNL     1       2.442  14.949  19.264  0.00  0.00    +0.000 HD
ENDBRANCH   6  18
BRANCH   6  20
ATOM     20  C   UNL     1       0.821  14.712  21.923  0.00  0.00    +0.000 C 
BRANCH  20  21
ATOM     21  N   UNL     1      -0.576  14.780  22.349  0.00  0.00    +0.000 N 
ATOM     22  C   UNL     1      -1.237  15.985  22.324  0.00  0.00    +0.000 A 
ATOM     23  N   UNL     1      -2.401  16.214  22.830  0.00  0.00    +0.000 NA
ATOM     24  C   UNL     1      -3.126  15.106  23.292  0.00  0.00    +0.000 A 
ATOM     25  C   UNL     1      -4.467  15.283  23.631  0.00  0.00    +0.000 A 
ATOM     26  C   UNL     1      -5.305  14.175  23.724  0.00  0.00    +0.000 A 
ATOM     27 CL   UNL     1      -6.989  14.404  23.994  0.00  0.00    +0.000 Cl
ATOM     28  C   UNL     1      -4.802  12.886  23.526  0.00  0.00    +0.000 A 
ATOM     29  C   UNL     1      -3.431  12.697  23.336  0.00  0.00    +0.000 A 
ATOM     30  C   UNL     1      -2.599  13.813  23.238  0.00  0.00    +0.000 A 
ATOM     31  C   UNL     1      -1.156  13.683  22.973  0.00  0.00    +0.000 A 
ATOM     32  O   UNL     1      -0.535  12.682  23.322  0.00  0.00    +0.000 OA
ENDBRANCH  20  21
ENDBRANCH   6  20
TORSDOF 5
ENDMDL
MODEL 4
REMARK VINA RESULT:      -7.0      1.073      1.868
REMARK  Name = 
REMARK  5 active torsions:
REMARK  status: ('A' for Active; 'I' for Inactive)
REMARK    1  A    between atoms: C_2  and  C_3
REMARK    2  A    between atoms: C_6  and  N_7
REMARK    3  A    between atoms: C_15  and  O_16
REMARK    4  A    between atoms: C_15  and  C_17
REMARK    5  A    between atoms: C_17  and  N_18
REMARK                            x       y       z     vdW  Elec       q    Type
REMARK                         _______ _______ _______ _____ _____    ______ ____
ROOT
ATOM      1  O   UNL     1      -1.090  14.589  19.857  0.00  0.00    +0.000 OA
ATOM      2  C   UNL     1      -1.586  13.465  19.953  0.00  0.00    +0.000 C 
ATOM      3  N   UNL     1      -1.127  12.393  19.181  0.00  0.00    +0.000 N 
ATOM      4  C   UNL     1       0.076  12.561  18.367  0.00  0.00    +0.000 C 
ATOM      5  C   UNL     1       1.203  11.685  18.924  0.00  0.00    +0.000 C 
ATOM      6  C   UNL     1       0.775  10.207  19.114  0.00  0.00    +0.000 C 
ATOM      7  C   UNL     1      -0.598  10.112  19.809  0.00  0.00    +0.000 C 
ATOM      8  C   UNL     1      -1.631  11.024  19.140  0.00  0.00    +0.000 C 
ENDROOT
BRANCH   2   9
ATOM      9  C   UNL     1      -2.686  13.311  20.956  0.00  0.00    +0.000 A 
ATOM     10  C   UNL     1      -2.340  12.950  22.269  0.00  0.00    +0.000 A 
ATOM     11  C   UNL     1      -3.329  12.737  23.242  0.00  0.00    +0.000 A 
ATOM     12  C   UNL     1      -4.677  12.905  22.901  0.00  0.00    +0.000 A 
ATOM     13  C   UNL     1      -5.036  13.239  21.595  0.00  0.00    +0.000 A 
ATOM     14  C   UNL     1      -4.043  13.398  20.626  0.00  0.00    +0.000 A 
BRANCH  12  15
ATOM     15  N   UNL     1      -5.721  12.698  23.909  0.00  0.00    +0.000 N 
ATOM     16  O   UNL     1      -5.467  11.944  24.857  0.00  0.00    +0.000 OA
ATOM     17  O   UNL     1      -6.793  13.300  23.753  0.00  0.00    +0.000 OA
ENDBRANCH  12  15
ENDBRANCH   2   9
BRANCH   6  18
ATOM     18  O   UNL     1       0.627   9.629  17.811  0.00  0.00    +0.000 OA
ATOM     19  H   UNL     1       1.507   9.376  17.467  0.00  0.00    +0.000 HD
ENDBRANCH   6  18
BRANCH   6  20
ATOM     20  C   UNL     1       1.874   9.460  19.936  0.00  0.00    +0.000 C 
BRANCH  20  21
ATOM     21  N   UNL     1       2.077   8.064  19.553  0.00  0.00    +0.000 N 
ATOM     22  C   UNL     1       2.568   7.766  18.303  0.00  0.00    +0.000 A 
ATOM     23  N   UNL     1       2.632   6.589  17.782  0.00  0.00    +0.000 NA
ATOM     24  C   UNL     1       2.335   5.503  18.618  0.00  0.00    +0.000 A 
ATOM     25  C   UNL     1       2.612   4.215  18.159  0.00  0.00    +0.000 A 
ATOM     26  C   UNL     1       2.693   3.164  19.069  0.00  0.00    +0.000 A 
ATOM     27 CL   UNL     1       3.181   1.607  18.526  0.00  0.00    +0.000 Cl
ATOM     28  C   UNL     1       2.453   3.382  20.428  0.00  0.00    +0.000 A 
ATOM     29  C   UNL     1       2.028   4.638  20.866  0.00  0.00    +0.000 A 
ATOM     30  C   UNL     1       1.956   5.688  19.950  0.00  0.00    +0.000 A 
ATOM     31  C   UNL     1       1.578   7.051  20.361  0.00  0.00    +0.000 A 
ATOM     32  O   UNL     1       0.846   7.241  21.329  0.00  0.00    +0.000 OA
ENDBRANCH  20  21
ENDBRANCH   6  20
TORSDOF 5
ENDMDL
MODEL 5
REMARK VINA RESULT:      -6.9      4.815      8.361
REMARK  Name = 
REMARK  5 active torsions:
REMARK  status: ('A' for Active; 'I' for Inactive)
REMARK    1  A    between atoms: C_2  and  C_3
REMARK    2  A    between atoms: C_6  and  N_7
REMARK    3  A    between atoms: C_15  and  O_16
REMARK    4  A    between atoms: C_15  and  C_17
REMARK    5  A    between atoms: C_17  and  N_18
REMARK                            x       y       z     vdW  Elec       q    Type
REMARK                         _______ _______ _______ _____ _____    ______ ____
ROOT
ATOM      1  O   UNL     1       4.224  17.212  18.272  0.00  0.00    +0.000 OA
ATOM      2  C   UNL     1       4.395  16.172  18.911  0.00  0.00    +0.000 C 
ATOM      3  N   UNL     1       3.382  15.625  19.705  0.00  0.00    +0.000 N 
ATOM      4  C   UNL     1       2.038  16.197  19.646  0.00  0.00    +0.000 C 
ATOM      5  C   UNL     1       1.074  15.189  19.012  0.00  0.00    +0.000 C 
ATOM      6  C   UNL     1       1.133  13.796  19.691  0.00  0.00    +0.000 C 
ATOM      7  C   UNL     1       2.592  13.340  19.896  0.00  0.00    +0.000 C 
ATOM      8  C   UNL     1       3.436  14.437  20.552  0.00  0.00    +0.000 C 
ENDROOT
BRANCH   2   9
ATOM      9  C   UNL     1       5.735  15.522  18.769  0.00  0.00    +0.000 A 
ATOM     10  C   UNL     1       5.921  14.611  17.715  0.00  0.00    +0.000 A 
ATOM     11  C   UNL     1       7.138  13.928  17.560  0.00  0.00    +0.000 A 
ATOM     12  C   UNL     1       8.183  14.172  18.459  0.00  0.00    +0.000 A 
ATOM     13  C   UNL     1       8.005  15.055  19.524  0.00  0.00    +0.000 A 
ATOM     14  C   UNL     1       6.771  15.689  19.694  0.00  0.00    +0.000 A 
BRANCH  12  15
ATOM     15  N   UNL     1       9.464  13.474  18.303  0.00  0.00    +0.000 N 
ATOM     16  O   UNL     1       9.455  12.368  17.750  0.00  0.00    +0.000 OA
ATOM     17  O   UNL     1      10.479  14.043  18.730  0.00  0.00    +0.000 OA
ENDBRANCH  12  15
ENDBRANCH   2   9
BRANCH   6  18
ATOM     18  O   UNL     1       0.546  13.923  20.992  0.00  0.00    +0.000 OA
ATOM     19  H   UNL     1      -0.243  14.499  20.936  0.00  0.00    +0.000 HD
ENDBRANCH   6  18
BRANCH   6  20
ATOM     20  C   UNL     1       0.342  12.770  18.818  0.00  0.00    +0.000 C 
BRANCH  20  21
ATOM     21  N   UNL     1       0.878  11.411  18.841  0.00  0.00    +0.000 N 
ATOM     22  C   UNL     1       1.756  11.008  17.862  0.00  0.00    +0.000 A 
ATOM     23  N   UNL     1       2.164   9.801  17.669  0.00  0.00    +0.000 NA
ATOM     24  C   UNL     1       1.822   8.848  18.638  0.00  0.00    +0.000 A 
ATOM     25  C   UNL     1       2.432   7.595  18.584  0.00  0.00    +0.000 A 
ATOM     26  C   UNL     1       2.416   6.773  19.708  0.00  0.00    +0.000 A 
ATOM     27 CL   UNL     1       3.295   5.294  19.691  0.00  0.00    +0.000 Cl
ATOM     28  C   UNL     1       1.757   7.175  20.872  0.00  0.00    +0.000 A 
ATOM     29  C   UNL     1       1.020   8.362  20.878  0.00  0.00    +0.000 A 
ATOM     30  C   UNL     1       1.044   9.182  19.750  0.00  0.00    +0.000 A 
ATOM     31  C   UNL     1       0.341  10.476  19.716  0.00  0.00    +0.000 A 
ATOM     32  O   UNL     1      -0.663  10.669  20.397  0.00  0.00    +0.000 OA
ENDBRANCH  20  21
ENDBRANCH   6  20
TORSDOF 5
ENDMDL
MODEL 6
REMARK VINA RESULT:      -6.9      4.100     10.560
REMARK  Name = 
REMARK  5 active torsions:
REMARK  status: ('A' for Active; 'I' for Inactive)
REMARK    1  A    between atoms: C_2  and  C_3
REMARK    2  A    between atoms: C_6  and  N_7
REMARK    3  A    between atoms: C_15  and  O_16
REMARK    4  A    between atoms: C_15  and  C_17
REMARK    5  A    between atoms: C_17  and  N_18
REMARK                            x       y       z     vdW  Elec       q    Type
REMARK                         _______ _______ _______ _____ _____    ______ ____
ROOT
ATOM      1  O   UNL     1       4.188   5.374  19.944  0.00  0.00    +0.000 OA
ATOM      2  C   UNL     1       3.716   5.846  18.907  0.00  0.00    +0.000 C 
ATOM      3  N   UNL     1       2.499   6.534  18.902  0.00  0.00    +0.000 N 
ATOM      4  C   UNL     1       1.853   6.853  20.174  0.00  0.00    +0.000 C 
ATOM      5  C   UNL     1       1.867   8.370  20.395  0.00  0.00    +0.000 C 
ATOM      6  C   UNL     1       1.297   9.156  19.187  0.00  0.00    +0.000 C 
ATOM      7  C   UNL     1       1.882   8.634  17.859  0.00  0.00    +0.000 C 
ATOM      8  C   UNL     1       1.787   7.108  17.765  0.00  0.00    +0.000 C 
ENDROOT
BRANCH   2   9
ATOM      9  C   UNL     1       4.531   5.658  17.666  0.00  0.00    +0.000 A 
ATOM     10  C   UNL     1       4.632   4.364  17.128  0.00  0.00    +0.000 A 
ATOM     11  C   UNL     1       5.424   4.114  15.997  0.00  0.00    +0.000 A 
ATOM     12  C   UNL     1       6.109   5.172  15.388  0.00  0.00    +0.000 A 
ATOM     13  C   UNL     1       6.038   6.458  15.925  0.00  0.00    +0.000 A 
ATOM     14  C   UNL     1       5.285   6.682  17.081  0.00  0.00    +0.000 A 
BRANCH  12  15
ATOM     15  N   UNL     1       6.932   4.929  14.200  0.00  0.00    +0.000 N 
ATOM     16  O   UNL     1       6.522   4.104  13.373  0.00  0.00    +0.000 OA
ATOM     17  O   UNL     1       7.985   5.573  14.093  0.00  0.00    +0.000 OA
ENDBRANCH  12  15
ENDBRANCH   2   9
BRANCH   6  18
ATOM     18  O   UNL     1      -0.116   8.921  19.145  0.00  0.00    +0.000 OA
ATOM     19  H   UNL     1      -0.313   8.058  19.561  0.00  0.00    +0.000 HD
ENDBRANCH   6  18
BRANCH   6  20
ATOM     20  C   UNL     1       1.605  10.676  19.377  0.00  0.00    +0.000 C 
BRANCH  20  21
ATOM     21  N   UNL     1       0.464  11.478  19.813  0.00  0.00    +0.000 N 
ATOM     22  C   UNL     1      -0.141  12.338  18.926  0.00  0.00    +0.000 A 
ATOM     23  N   UNL     1      -1.035  13.218  19.223  0.00  0.00    +0.000 NA
ATOM     24  C   UNL     1      -1.558  13.182  20.524  0.00  0.00    +0.000 A 
ATOM     25  C   UNL     1      -2.679  13.962  20.811  0.00  0.00    +0.000 A 
ATOM     26  C   UNL     1      -3.442  13.678  21.941  0.00  0.00    +0.000 A 
ATOM     27 CL   UNL     1      -4.906  14.539  22.215  0.00  0.00    +0.000 Cl
ATOM     28  C   UNL     1      -3.068  12.650  22.810  0.00  0.00    +0.000 A 
ATOM     29  C   UNL     1      -1.865  11.970  22.605  0.00  0.00    +0.000 A 
ATOM     30  C   UNL     1      -1.109  12.256  21.468  0.00  0.00    +0.000 A 
ATOM     31  C   UNL     1       0.134  11.528  21.161  0.00  0.00    +0.000 A 
ATOM     32  O   UNL     1       0.823  11.045  22.055  0.00  0.00    +0.000 OA
ENDBRANCH  20  21
ENDBRANCH   6  20
TORSDOF 5
ENDMDL
MODEL 7
REMARK VINA RESULT:      -6.7      4.527      7.704
REMARK  Name = 
REMARK  5 active torsions:
REMARK  status: ('A' for Active; 'I' for Inactive)
REMARK    1  A    between atoms: C_2  and  C_3
REMARK    2  A    between atoms: C_6  and  N_7
REMARK    3  A    between atoms: C_15  and  O_16
REMARK    4  A    between atoms: C_15  and  C_17
REMARK    5  A    between atoms: C_17  and  N_18
REMARK                            x       y       z     vdW  Elec       q    Type
REMARK                         _______ _______ _______ _____ _____    ______ ____
ROOT
ATOM      1  O   UNL     1       3.027  16.991  18.179  0.00  0.00    +0.000 OA
ATOM      2  C   UNL     1       3.330  16.030  18.890  0.00  0.00    +0.000 C 
ATOM      3  N   UNL     1       2.378  15.364  19.667  0.00  0.00    +0.000 N 
ATOM      4  C   UNL     1       0.963  15.698  19.507  0.00  0.00    +0.000 C 
ATOM      5  C   UNL     1       0.218  14.508  18.893  0.00  0.00    +0.000 C 
ATOM      6  C   UNL     1       0.467  13.184  19.660  0.00  0.00    +0.000 C 
ATOM      7  C   UNL     1       1.967  12.993  19.964  0.00  0.00    +0.000 C 
ATOM      8  C   UNL     1       2.578  14.251  20.589  0.00  0.00    +0.000 C 
ENDROOT
BRANCH   2   9
ATOM      9  C   UNL     1       4.765  15.609  18.854  0.00  0.00    +0.000 A 
ATOM     10  C   UNL     1       5.618  16.071  19.871  0.00  0.00    +0.000 A 
ATOM     11  C   UNL     1       6.985  15.756  19.863  0.00  0.00    +0.000 A 
ATOM     12  C   UNL     1       7.501  14.956  18.837  0.00  0.00    +0.000 A 
ATOM     13  C   UNL     1       6.672  14.510  17.807  0.00  0.00    +0.000 A 
ATOM     14  C   UNL     1       5.323  14.874  17.802  0.00  0.00    +0.000 A 
BRANCH  12  15
ATOM     15  N   UNL     1       8.926  14.608  18.821  0.00  0.00    +0.000 N 
ATOM     16  O   UNL     1       9.735  15.502  18.548  0.00  0.00    +0.000 OA
ATOM     17  O   UNL     1       9.231  13.437  19.093  0.00  0.00    +0.000 OA
ENDBRANCH  12  15
ENDBRANCH   2   9
BRANCH   6  18
ATOM     18  O   UNL     1      -0.208  13.281  20.921  0.00  0.00    +0.000 OA
ATOM     19  H   UNL     1      -1.052  13.759  20.800  0.00  0.00    +0.000 HD
ENDBRANCH   6  18
BRANCH   6  20
ATOM     20  C   UNL     1      -0.092  11.994  18.817  0.00  0.00    +0.000 C 
BRANCH  20  21
ATOM     21  N   UNL     1       0.420  10.681  19.204  0.00  0.00    +0.000 N 
ATOM     22  C   UNL     1       0.044  10.133  20.409  0.00  0.00    +0.000 A 
ATOM     23  N   UNL     1       0.550   9.074  20.943  0.00  0.00    +0.000 NA
ATOM     24  C   UNL     1       1.435   8.323  20.157  0.00  0.00    +0.000 A 
ATOM     25  C   UNL     1       1.821   7.062  20.611  0.00  0.00    +0.000 A 
ATOM     26  C   UNL     1       2.374   6.148  19.717  0.00  0.00    +0.000 A 
ATOM     27 CL   UNL     1       2.711   4.545  20.241  0.00  0.00    +0.000 Cl
ATOM     28  C   UNL     1       2.585   6.502  18.382  0.00  0.00    +0.000 A 
ATOM     29  C   UNL     1       2.339   7.811  17.962  0.00  0.00    +0.000 A 
ATOM     30  C   UNL     1       1.781   8.719  18.862  0.00  0.00    +0.000 A 
ATOM     31  C   UNL     1       1.438  10.095  18.464  0.00  0.00    +0.000 A 
ATOM     32  O   UNL     1       2.048  10.665  17.563  0.00  0.00    +0.000 OA
ENDBRANCH  20  21
ENDBRANCH   6  20
TORSDOF 5
ENDMDL
MODEL 8
REMARK VINA RESULT:      -6.7      4.103     10.502
REMARK  Name = 
REMARK  5 active torsions:
REMARK  status: ('A' for Active; 'I' for Inactive)
REMARK    1  A    between atoms: C_2  and  C_3
REMARK    2  A    between atoms: C_6  and  N_7
REMARK    3  A    between atoms: C_15  and  O_16
REMARK    4  A    between atoms: C_15  and  C_17
REMARK    5  A    between atoms: C_17  and  N_18
REMARK                            x       y       z     vdW  Elec       q    Type
REMARK                         _______ _______ _______ _____ _____    ______ ____
ROOT
ATOM      1  O   UNL     1       3.403   4.596  20.166  0.00  0.00    +0.000 OA
ATOM      2  C   UNL     1       3.165   5.354  19.223  0.00  0.00    +0.000 C 
ATOM      3  N   UNL     1       2.075   6.230  19.245  0.00  0.00    +0.000 N 
ATOM      4  C   UNL     1       1.301   6.378  20.476  0.00  0.00    +0.000 C 
ATOM      5  C   UNL     1       1.503   7.785  21.049  0.00  0.00    +0.000 C 
ATOM      6  C   UNL     1       1.239   8.900  20.004  0.00  0.00    +0.000 C 
ATOM      7  C   UNL     1       1.933   8.579  18.664  0.00  0.00    +0.000 C 
ATOM      8  C   UNL     1       1.631   7.150  18.203  0.00  0.00    +0.000 C 
ENDROOT
BRANCH   2   9
ATOM      9  C   UNL     1       4.118   5.297  18.072  0.00  0.00    +0.000 A 
ATOM     10  C   UNL     1       3.987   4.240  17.155  0.00  0.00    +0.000 A 
ATOM     11  C   UNL     1       4.884   4.100  16.084  0.00  0.00    +0.000 A 
ATOM     12  C   UNL     1       5.912   5.037  15.920  0.00  0.00    +0.000 A 
ATOM     13  C   UNL     1       6.069   6.077  16.836  0.00  0.00    +0.000 A 
ATOM     14  C   UNL     1       5.198   6.174  17.925  0.00  0.00    +0.000 A 
BRANCH  12  15
ATOM     15  N   UNL     1       6.849   4.911  14.800  0.00  0.00    +0.000 N 
ATOM     16  O   UNL     1       7.841   5.651  14.791  0.00  0.00    +0.000 OA
ATOM     17  O   UNL     1       6.594   4.062  13.934  0.00  0.00    +0.000 OA
ENDBRANCH  12  15
ENDBRANCH   2   9
BRANCH   6  18
ATOM     18  O   UNL     1      -0.171   8.931  19.751  0.00  0.00    +0.000 OA
ATOM     19  H   UNL     1      -0.327   9.170  18.816  0.00  0.00    +0.000 HD
ENDBRANCH   6  18
BRANCH   6  20
ATOM     20  C   UNL     1       1.734  10.265  20.580  0.00  0.00    +0.000 C 
BRANCH  20  21
ATOM     21  N   UNL     1       0.669  11.216  20.892  0.00  0.00    +0.000 N 
ATOM     22  C   UNL     1       0.475  12.310  20.081  0.00  0.00    +0.000 A 
ATOM     23  N   UNL     1      -0.305  13.304  20.336  0.00  0.00    +0.000 NA
ATOM     24  C   UNL     1      -1.155  13.182  21.444  0.00  0.00    +0.000 A 
ATOM     25  C   UNL     1      -2.165  14.129  21.615  0.00  0.00    +0.000 A 
ATOM     26  C   UNL     1      -3.239  13.845  22.455  0.00  0.00    +0.000 A 
ATOM     27 CL   UNL     1      -4.557  14.946  22.551  0.00  0.00    +0.000 Cl
ATOM     28  C   UNL     1      -3.287  12.640  23.161  0.00  0.00    +0.000 A 
ATOM     29  C   UNL     1      -2.205  11.759  23.107  0.00  0.00    +0.000 A 
ATOM     30  C   UNL     1      -1.136  12.048  22.259  0.00  0.00    +0.000 A 
ATOM     31  C   UNL     1       0.005  11.128  22.108  0.00  0.00    +0.000 A 
ATOM     32  O   UNL     1       0.338  10.377  23.021  0.00  0.00    +0.000 OA
ENDBRANCH  20  21
ENDBRANCH   6  20
TORSDOF 5
ENDMDL
MODEL 9
REMARK VINA RESULT:      -6.7      1.339      1.793
REMARK  Name = 
REMARK  5 active torsions:
REMARK  status: ('A' for Active; 'I' for Inactive)
REMARK    1  A    between atoms: C_2  and  C_3
REMARK    2  A    between atoms: C_6  and  N_7
REMARK    3  A    between atoms: C_15  and  O_16
REMARK    4  A    between atoms: C_15  and  C_17
REMARK    5  A    between atoms: C_17  and  N_18
REMARK                            x       y       z     vdW  Elec       q    Type
REMARK                         _______ _______ _______ _____ _____    ______ ____
ROOT
ATOM      1  O   UNL     1      -1.995  15.200  20.685  0.00  0.00    +0.000 OA
ATOM      2  C   UNL     1      -2.375  14.033  20.570  0.00  0.00    +0.000 C 
ATOM      3  N   UNL     1      -1.758  13.146  19.682  0.00  0.00    +0.000 N 
ATOM      4  C   UNL     1      -0.531  13.553  19.001  0.00  0.00    +0.000 C 
ATOM      5  C   UNL     1       0.645  12.710  19.505  0.00  0.00    +0.000 C 
ATOM      6  C   UNL     1       0.364  11.187  19.433  0.00  0.00    +0.000 C 
ATOM      7  C   UNL     1      -1.033  10.854  19.996  0.00  0.00    +0.000 C 
ATOM      8  C   UNL     1      -2.112  11.760  19.395  0.00  0.00    +0.000 C 
ENDROOT
BRANCH   2   9
ATOM      9  C   UNL     1      -3.513  13.619  21.449  0.00  0.00    +0.000 A 
ATOM     10  C   UNL     1      -4.821  13.863  20.997  0.00  0.00    +0.000 A 
ATOM     11  C   UNL     1      -5.930  13.548  21.797  0.00  0.00    +0.000 A 
ATOM     12  C   UNL     1      -5.728  12.967  23.055  0.00  0.00    +0.000 A 
ATOM     13  C   UNL     1      -4.435  12.742  23.527  0.00  0.00    +0.000 A 
ATOM     14  C   UNL     1      -3.340  13.107  22.739  0.00  0.00    +0.000 A 
BRANCH  12  15
ATOM     15  N   UNL     1      -6.877  12.621  23.898  0.00  0.00    +0.000 N 
ATOM     16  O   UNL     1      -7.483  13.545  24.454  0.00  0.00    +0.000 OA
ATOM     17  O   UNL     1      -7.174  11.422  23.994  0.00  0.00    +0.000 OA
ENDBRANCH  12  15
ENDBRANCH   2   9
BRANCH   6  18
ATOM     18  O   UNL     1       0.359  10.812  18.050  0.00  0.00    +0.000 OA
ATOM     19  H   UNL     1      -0.157   9.990  17.939  0.00  0.00    +0.000 HD
ENDBRANCH   6  18
BRANCH   6  20
ATOM     20  C   UNL     1       1.481  10.425  20.216  0.00  0.00    +0.000 C 
BRANCH  20  21
ATOM     21  N   UNL     1       1.793   9.097  19.691  0.00  0.00    +0.000 N 
ATOM     22  C   UNL     1       2.286   8.969  18.414  0.00  0.00    +0.000 A 
ATOM     23  N   UNL     1       2.438   7.859  17.775  0.00  0.00    +0.000 NA
ATOM     24  C   UNL     1       2.249   6.674  18.500  0.00  0.00    +0.000 A 
ATOM     25  C   UNL     1       2.625   5.467  17.911  0.00  0.00    +0.000 A 
ATOM     26  C   UNL     1       2.809   4.340  18.709  0.00  0.00    +0.000 A 
ATOM     27 CL   UNL     1       3.417   2.892  18.006  0.00  0.00    +0.000 Cl
ATOM     28  C   UNL     1       2.576   4.400  20.085  0.00  0.00    +0.000 A 
ATOM     29  C   UNL     1       2.056   5.566  20.652  0.00  0.00    +0.000 A 
ATOM     30  C   UNL     1       1.879   6.692  19.847  0.00  0.00    +0.000 A 
ATOM     31  C   UNL     1       1.395   7.969  20.397  0.00  0.00    +0.000 A 
ATOM     32  O   UNL     1       0.668   7.999  21.386  0.00  0.00    +0.000 OA
ENDBRANCH  20  21
ENDBRANCH   6  20
TORSDOF 5
ENDMDL
