MODEL 1
REMARK VINA RESULT:      -8.5      0.000      0.000
REMARK  Name = 
REMARK  8 active torsions:
REMARK  status: ('A' for Active; 'I' for Inactive)
REMARK    1  A    between atoms: C_2  and  C_3
REMARK    2  A    between atoms: C_3  and  N_4
REMARK    3  A    between atoms: N_4  and  C_17
REMARK    4  A    between atoms: C_5  and  C_7
REMARK    5  A    between atoms: C_7  and  C_8
REMARK    6  A    between atoms: C_8  and  C_9
REMARK    7  A    between atoms: N_25  and  C_26
REMARK    8  A    between atoms: C_26  and  C_27
REMARK                            x       y       z     vdW  Elec       q    Type
REMARK                         _______ _______ _______ _____ _____    ______ ____
ROOT
ATOM      1  N   UNL     1       5.560   5.287  16.047  0.00  0.00    +0.000 N 
ATOM      2  C   UNL     1       4.912   6.547  16.166  0.00  0.00    +0.000 C 
ATOM      3  O   UNL     1       4.741   7.348  15.245  0.00  0.00    +0.000 OA
ENDROOT
BRANCH   1   4
ATOM      4  C   UNL     1       6.078   4.862  14.761  0.00  0.00    +0.000 A 
ATOM      5  C   UNL     1       7.342   5.283  14.310  0.00  0.00    +0.000 A 
ATOM      6  C   UNL     1       7.862   4.870  13.079  0.00  0.00    +0.000 A 
ATOM      7  C   UNL     1       7.113   4.041  12.261  0.00  0.00    +0.000 A 
ATOM      8  F   UNL     1       7.627   3.653  11.086  0.00  0.00    +0.000 F 
ATOM      9  C   UNL     1       5.848   3.630  12.661  0.00  0.00    +0.000 A 
ATOM     10 CL   UNL     1       4.902   2.607  11.648  0.00  0.00    +0.000 Cl
ATOM     11  C   UNL     1       5.332   4.037  13.898  0.00  0.00    +0.000 A 
ENDBRANCH   1   4
BRANCH   1  12
ATOM     12  C   UNL     1       5.978   4.521  17.254  0.00  0.00    +0.000 C 
BRANCH  12  14
ATOM     13  O   UNL     1       4.148   2.950  17.276  0.00  0.00    +0.000 OA
ATOM     14  C   UNL     1       5.012   3.530  17.935  0.00  0.00    +0.000 C 
ATOM     15  N   UNL     1       5.169   3.311  19.276  0.00  0.00    +0.000 N 
ATOM     16  H   UNL     1       5.968   3.692  19.765  0.00  0.00    +0.000 HD
BRANCH  15  17
ATOM     17  C   UNL     1       4.299   2.420  20.015  0.00  0.00    +0.000 C 
BRANCH  17  18
ATOM     18  C   UNL     1       2.974   3.070  20.162  0.00  0.00    +0.000 A 
ATOM     19  C   UNL     1       2.555   4.261  20.717  0.00  0.00    +0.000 A 
ATOM     20  C   UNL     1       1.150   4.307  20.551  0.00  0.00    +0.000 A 
ATOM     21  C   UNL     1       0.800   3.143  19.909  0.00  0.00    +0.000 A 
ATOM     22  O   UNL     1       1.900   2.386  19.667  0.00  0.00    +0.000 OA
ENDBRANCH  17  18
ENDBRANCH  15  17
ENDBRANCH  12  14
ENDBRANCH   1  12
BRANCH   2  23
ATOM     23  C   UNL     1       4.447   6.935  17.552  0.00  0.00    +0.000 C 
BRANCH  23  24
ATOM     24  C   UNL     1       2.984   6.610  17.877  0.00  0.00    +0.000 C 
BRANCH  24  25
ATOM     25  C   UNL     1       2.301   7.915  18.257  0.00  0.00    +0.000 C 
ATOM     26  O   UNL     1       2.231   8.832  17.438  0.00  0.00    +0.000 OA
ATOM     27  N   UNL     1       1.822   7.950  19.546  0.00  0.00    +0.000 N 
ATOM     28  C   UNL     1       1.218   9.088  20.015  0.00  0.00    +0.000 A 
ATOM     29  N   UNL     1       0.831  10.140  19.339  0.00  0.00    +0.000 NA
ATOM     30  C   UNL     1       0.359  11.103  20.200  0.00  0.00    +0.000 A 
ATOM     31  C   UNL     1       0.385  10.759  21.535  0.00  0.00    +0.000 A 
ATOM     32  S   UNL     1       0.972   9.150  21.702  0.00  0.00    +0.000 S 
ATOM     33  H   UNL     1       2.011   7.213  20.207  0.00  0.00    +0.000 HD
ENDBRANCH  24  25
ENDBRANCH  23  24
ENDBRANCH   2  23
TORSDOF 8
ENDMDL
MODEL 2
REMARK VINA RESULT:      -7.9      4.773      7.306
REMARK  Name = 
REMARK  8 active torsions:
REMARK  status: ('A' for Active; 'I' for Inactive)
REMARK    1  A    between atoms: C_2  and  C_3
REMARK    2  A    between atoms: C_3  and  N_4
REMARK    3  A    between atoms: N_4  and  C_17
REMARK    4  A    between atoms: C_5  and  C_7
REMARK    5  A    between atoms: C_7  and  C_8
REMARK    6  A    between atoms: C_8  and  C_9
REMARK    7  A    between atoms: N_25  and  C_26
REMARK    8  A    between atoms: C_26  and  C_27
REMARK                            x       y       z     vdW  Elec       q    Type
REMARK                         _______ _______ _______ _____ _____    ______ ____
ROOT
ATOM      1  N   UNL     1       5.206   4.945  17.733  0.00  0.00    +0.000 N 
ATOM      2  C   UNL     1       6.406   5.223  18.443  0.00  0.00    +0.000 C 
ATOM      3  O   UNL     1       6.717   4.737  19.532  0.00  0.00    +0.000 OA
ENDROOT
BRANCH   1   4
ATOM      4  C   UNL     1       4.237   4.020  18.290  0.00  0.00    +0.000 A 
ATOM      5  C   UNL     1       3.876   2.845  17.607  0.00  0.00    +0.000 A 
ATOM      6  C   UNL     1       2.954   1.936  18.138  0.00  0.00    +0.000 A 
ATOM      7  C   UNL     1       2.356   2.200  19.359  0.00  0.00    +0.000 A 
ATOM      8  F   UNL     1       1.478   1.317  19.855  0.00  0.00    +0.000 F 
ATOM      9  C   UNL     1       2.667   3.366  20.047  0.00  0.00    +0.000 A 
ATOM     10 CL   UNL     1       1.922   3.710  21.562  0.00  0.00    +0.000 Cl
ATOM     11  C   UNL     1       3.597   4.271  19.518  0.00  0.00    +0.000 A 
ENDBRANCH   1   4
BRANCH   1  12
ATOM     12  C   UNL     1       4.781   5.788  16.581  0.00  0.00    +0.000 C 
BRANCH  12  14
ATOM     13  O   UNL     1       5.451   6.641  14.427  0.00  0.00    +0.000 OA
ATOM     14  C   UNL     1       5.517   5.708  15.228  0.00  0.00    +0.000 C 
ATOM     15  N   UNL     1       6.251   4.583  14.971  0.00  0.00    +0.000 N 
ATOM     16  H   UNL     1       6.401   3.895  15.697  0.00  0.00    +0.000 HD
BRANCH  15  17
ATOM     17  C   UNL     1       6.958   4.397  13.721  0.00  0.00    +0.000 C 
BRANCH  17  18
ATOM     18  C   UNL     1       6.074   3.663  12.784  0.00  0.00    +0.000 A 
ATOM     19  C   UNL     1       4.752   3.804  12.414  0.00  0.00    +0.000 A 
ATOM     20  C   UNL     1       4.488   2.779  11.474  0.00  0.00    +0.000 A 
ATOM     21  C   UNL     1       5.661   2.077  11.332  0.00  0.00    +0.000 A 
ATOM     22  O   UNL     1       6.631   2.605  12.121  0.00  0.00    +0.000 OA
ENDBRANCH  17  18
ENDBRANCH  15  17
ENDBRANCH  12  14
ENDBRANCH   1  12
BRANCH   2  23
ATOM     23  C   UNL     1       7.338   6.236  17.815  0.00  0.00    +0.000 C 
BRANCH  23  24
ATOM     24  C   UNL     1       8.246   6.997  18.789  0.00  0.00    +0.000 C 
BRANCH  24  25
ATOM     25  C   UNL     1       8.315   8.440  18.315  0.00  0.00    +0.000 C 
ATOM     26  O   UNL     1       7.739   8.773  17.278  0.00  0.00    +0.000 OA
ATOM     27  N   UNL     1       9.062   9.267  19.121  0.00  0.00    +0.000 N 
ATOM     28  C   UNL     1       9.226  10.584  18.775  0.00  0.00    +0.000 A 
ATOM     29  N   UNL     1       8.596  11.267  17.854  0.00  0.00    +0.000 NA
ATOM     30  C   UNL     1       9.128  12.532  17.762  0.00  0.00    +0.000 A 
ATOM     31  C   UNL     1      10.161  12.798  18.635  0.00  0.00    +0.000 A 
ATOM     32  S   UNL     1      10.433  11.426  19.639  0.00  0.00    +0.000 S 
ATOM     33  H   UNL     1       9.605   8.913  19.893  0.00  0.00    +0.000 HD
ENDBRANCH  24  25
ENDBRANCH  23  24
ENDBRANCH   2  23
TORSDOF 8
ENDMDL
MODEL 3
REMARK VINA RESULT:      -7.8      4.711      7.373
REMARK  Name = 
REMARK  8 active torsions:
REMARK  status: ('A' for Active; 'I' for Inactive)
REMARK    1  A    between atoms: C_2  and  C_3
REMARK    2  A    between atoms: C_3  and  N_4
REMARK    3  A    between atoms: N_4  and  C_17
REMARK    4  A    between atoms: C_5  and  C_7
REMARK    5  A    between atoms: C_7  and  C_8
REMARK    6  A    between atoms: C_8  and  C_9
REMARK    7  A    between atoms: N_25  and  C_26
REMARK    8  A    between atoms: C_26  and  C_27
REMARK                            x       y       z     vdW  Elec       q    Type
REMARK                         _______ _______ _______ _____ _____    ______ ____
ROOT
ATOM      1  N   UNL     1       5.091   4.912  17.715  0.00  0.00    +0.000 N 
ATOM      2  C   UNL     1       6.136   5.313  18.591  0.00  0.00    +0.000 C 
ATOM      3  O   UNL     1       6.099   5.244  19.821  0.00  0.00    +0.000 OA
ENDROOT
BRANCH   1   4
ATOM      4  C   UNL     1       3.862   4.368  18.261  0.00  0.00    +0.000 A 
ATOM      5  C   UNL     1       2.668   4.380  17.517  0.00  0.00    +0.000 A 
ATOM      6  C   UNL     1       1.478   3.846  18.024  0.00  0.00    +0.000 A 
ATOM      7  C   UNL     1       1.456   3.309  19.300  0.00  0.00    +0.000 A 
ATOM      8  F   UNL     1       0.308   2.799  19.769  0.00  0.00    +0.000 F 
ATOM      9  C   UNL     1       2.610   3.308  20.073  0.00  0.00    +0.000 A 
ATOM     10 CL   UNL     1       2.592   2.652  21.666  0.00  0.00    +0.000 Cl
ATOM     11  C   UNL     1       3.803   3.835  19.562  0.00  0.00    +0.000 A 
ENDBRANCH   1   4
BRANCH   1  12
ATOM     12  C   UNL     1       5.104   5.298  16.276  0.00  0.00    +0.000 C 
BRANCH  12  14
ATOM     13  O   UNL     1       6.368   3.399  15.495  0.00  0.00    +0.000 OA
ATOM     14  C   UNL     1       5.994   4.549  15.264  0.00  0.00    +0.000 C 
ATOM     15  N   UNL     1       6.328   5.201  14.109  0.00  0.00    +0.000 N 
ATOM     16  H   UNL     1       5.900   6.088  13.882  0.00  0.00    +0.000 HD
BRANCH  15  17
ATOM     17  C   UNL     1       7.181   4.597  13.106  0.00  0.00    +0.000 C 
BRANCH  17  18
ATOM     18  C   UNL     1       6.386   3.598  12.352  0.00  0.00    +0.000 A 
ATOM     19  C   UNL     1       6.691   2.389  11.759  0.00  0.00    +0.000 A 
ATOM     20  C   UNL     1       5.490   1.912  11.182  0.00  0.00    +0.000 A 
ATOM     21  C   UNL     1       4.530   2.858  11.455  0.00  0.00    +0.000 A 
ATOM     22  O   UNL     1       5.062   3.884  12.166  0.00  0.00    +0.000 OA
ENDBRANCH  17  18
ENDBRANCH  15  17
ENDBRANCH  12  14
ENDBRANCH   1  12
BRANCH   2  23
ATOM     23  C   UNL     1       7.362   5.916  17.942  0.00  0.00    +0.000 C 
BRANCH  23  24
ATOM     24  C   UNL     1       8.264   6.744  18.865  0.00  0.00    +0.000 C 
BRANCH  24  25
ATOM     25  C   UNL     1       8.253   8.175  18.350  0.00  0.00    +0.000 C 
ATOM     26  O   UNL     1       7.640   8.450  17.318  0.00  0.00    +0.000 OA
ATOM     27  N   UNL     1       8.977   9.059  19.115  0.00  0.00    +0.000 N 
ATOM     28  C   UNL     1       9.070  10.372  18.730  0.00  0.00    +0.000 A 
ATOM     29  N   UNL     1       8.387  10.998  17.805  0.00  0.00    +0.000 NA
ATOM     30  C   UNL     1       8.855  12.284  17.666  0.00  0.00    +0.000 A 
ATOM     31  C   UNL     1       9.893  12.623  18.507  0.00  0.00    +0.000 A 
ATOM     32  S   UNL     1      10.253  11.296  19.541  0.00  0.00    +0.000 S 
ATOM     33  H   UNL     1       9.554   8.754  19.884  0.00  0.00    +0.000 HD
ENDBRANCH  24  25
ENDBRANCH  23  24
ENDBRANCH   2  23
TORSDOF 8
ENDMDL
MODEL 4
REMARK VINA RESULT:      -7.8      3.409      6.008
REMARK  Name = 
REMARK  8 active torsions:
REMARK  status: ('A' for Active; 'I' for Inactive)
REMARK    1  A    between atoms: C_2  and  C_3
REMARK    2  A    between atoms: C_3  and  N_4
REMARK    3  A    between atoms: N_4  and  C_17
REMARK    4  A    between atoms: C_5  and  C_7
REMARK    5  A    between atoms: C_7  and  C_8
REMARK    6  A    between atoms: C_8  and  C_9
REMARK    7  A    between atoms: N_25  and  C_26
REMARK    8  A    between atoms: C_26  and  C_27
REMARK                            x       y       z     vdW  Elec       q    Type
REMARK                         _______ _______ _______ _____ _____    ______ ____
ROOT
ATOM      1  N   UNL     1       3.380   6.238  18.425  0.00  0.00    +0.000 N 
ATOM      2  C   UNL     1       2.370   6.915  19.162  0.00  0.00    +0.000 C 
ATOM      3  O   UNL     1       1.500   6.370  19.843  0.00  0.00    +0.000 OA
ENDROOT
BRANCH   1   4
ATOM      4  C   UNL     1       3.436   4.788  18.445  0.00  0.00    +0.000 A 
ATOM      5  C   UNL     1       2.813   4.022  17.443  0.00  0.00    +0.000 A 
ATOM      6  C   UNL     1       2.870   2.624  17.440  0.00  0.00    +0.000 A 
ATOM      7  C   UNL     1       3.537   1.963  18.458  0.00  0.00    +0.000 A 
ATOM      8  F   UNL     1       3.584   0.624  18.438  0.00  0.00    +0.000 F 
ATOM      9  C   UNL     1       4.138   2.687  19.480  0.00  0.00    +0.000 A 
ATOM     10 CL   UNL     1       4.961   1.875  20.757  0.00  0.00    +0.000 Cl
ATOM     11  C   UNL     1       4.087   4.087  19.477  0.00  0.00    +0.000 A 
ENDBRANCH   1   4
BRANCH   1  12
ATOM     12  C   UNL     1       4.200   6.953  17.408  0.00  0.00    +0.000 C 
BRANCH  12  14
ATOM     13  O   UNL     1       6.535   6.479  17.776  0.00  0.00    +0.000 OA
ATOM     14  C   UNL     1       5.586   6.420  16.993  0.00  0.00    +0.000 C 
ATOM     15  N   UNL     1       5.709   5.871  15.747  0.00  0.00    +0.000 N 
ATOM     16  H   UNL     1       4.889   5.711  15.177  0.00  0.00    +0.000 HD
BRANCH  15  17
ATOM     17  C   UNL     1       6.973   5.366  15.252  0.00  0.00    +0.000 C 
BRANCH  17  18
ATOM     18  C   UNL     1       6.725   4.637  13.985  0.00  0.00    +0.000 A 
ATOM     19  C   UNL     1       5.783   3.711  13.588  0.00  0.00    +0.000 A 
ATOM     20  C   UNL     1       6.085   3.383  12.244  0.00  0.00    +0.000 A 
ATOM     21  C   UNL     1       7.191   4.127  11.906  0.00  0.00    +0.000 A 
ATOM     22  O   UNL     1       7.587   4.893  12.954  0.00  0.00    +0.000 OA
ENDBRANCH  17  18
ENDBRANCH  15  17
ENDBRANCH  12  14
ENDBRANCH   1  12
BRANCH   2  23
ATOM     23  C   UNL     1       2.353   8.423  19.046  0.00  0.00    +0.000 C 
BRANCH  23  24
ATOM     24  C   UNL     1       1.577   8.989  17.850  0.00  0.00    +0.000 C 
BRANCH  24  25
ATOM     25  C   UNL     1       0.420   9.806  18.403  0.00  0.00    +0.000 C 
ATOM     26  O   UNL     1       0.442  10.186  19.574  0.00  0.00    +0.000 OA
ATOM     27  N   UNL     1      -0.593  10.037  17.502  0.00  0.00    +0.000 N 
ATOM     28  C   UNL     1      -1.707  10.733  17.897  0.00  0.00    +0.000 A 
ATOM     29  N   UNL     1      -1.891  11.416  18.998  0.00  0.00    +0.000 NA
ATOM     30  C   UNL     1      -3.185  11.880  19.051  0.00  0.00    +0.000 A 
ATOM     31  C   UNL     1      -3.971  11.548  17.970  0.00  0.00    +0.000 A 
ATOM     32  S   UNL     1      -3.034  10.668  16.825  0.00  0.00    +0.000 S 
ATOM     33  H   UNL     1      -0.610   9.603  16.592  0.00  0.00    +0.000 HD
ENDBRANCH  24  25
ENDBRANCH  23  24
ENDBRANCH   2  23
TORSDOF 8
ENDMDL
MODEL 5
REMARK VINA RESULT:      -7.7      4.734      7.178
REMARK  Name = 
REMARK  8 active torsions:
REMARK  status: ('A' for Active; 'I' for Inactive)
REMARK    1  A    between atoms: C_2  and  C_3
REMARK    2  A    between atoms: C_3  and  N_4
REMARK    3  A    between atoms: N_4  and  C_17
REMARK    4  A    between atoms: C_5  and  C_7
REMARK    5  A    between atoms: C_7  and  C_8
REMARK    6  A    between atoms: C_8  and  C_9
REMARK    7  A    between atoms: N_25  and  C_26
REMARK    8  A    between atoms: C_26  and  C_27
REMARK                            x       y       z     vdW  Elec       q    Type
REMARK                         _______ _______ _______ _____ _____    ______ ____
ROOT
ATOM      1  N   UNL     1       4.885   5.468  17.714  0.00  0.00    +0.000 N 
ATOM      2  C   UNL     1       6.285   5.320  17.916  0.00  0.00    +0.000 C 
ATOM      3  O   UNL     1       6.828   4.353  18.451  0.00  0.00    +0.000 OA
ENDROOT
BRANCH   1   4
ATOM      4  C   UNL     1       3.980   4.423  18.153  0.00  0.00    +0.000 A 
ATOM      5  C   UNL     1       3.226   3.678  17.228  0.00  0.00    +0.000 A 
ATOM      6  C   UNL     1       2.360   2.657  17.635  0.00  0.00    +0.000 A 
ATOM      7  C   UNL     1       2.215   2.377  18.983  0.00  0.00    +0.000 A 
ATOM      8  F   UNL     1       1.383   1.394  19.356  0.00  0.00    +0.000 F 
ATOM      9  C   UNL     1       2.922   3.113  19.926  0.00  0.00    +0.000 A 
ATOM     10 CL   UNL     1       2.742   2.781  21.606  0.00  0.00    +0.000 Cl
ATOM     11  C   UNL     1       3.795   4.129  19.517  0.00  0.00    +0.000 A 
ENDBRANCH   1   4
BRANCH   1  12
ATOM     12  C   UNL     1       4.298   6.782  17.329  0.00  0.00    +0.000 C 
BRANCH  12  14
ATOM     13  O   UNL     1       2.824   6.954  19.230  0.00  0.00    +0.000 OA
ATOM     14  C   UNL     1       3.104   7.372  18.105  0.00  0.00    +0.000 C 
ATOM     15  N   UNL     1       2.392   8.376  17.508  0.00  0.00    +0.000 N 
ATOM     16  H   UNL     1       2.722   8.793  16.648  0.00  0.00    +0.000 HD
BRANCH  15  17
ATOM     17  C   UNL     1       1.238   8.979  18.141  0.00  0.00    +0.000 C 
BRANCH  17  18
ATOM     18  C   UNL     1       1.525  10.415  18.374  0.00  0.00    +0.000 A 
ATOM     19  C   UNL     1       0.977  11.373  19.201  0.00  0.00    +0.000 A 
ATOM     20  C   UNL     1       1.690  12.571  18.955  0.00  0.00    +0.000 A 
ATOM     21  C   UNL     1       2.626  12.270  17.993  0.00  0.00    +0.000 A 
ATOM     22  O   UNL     1       2.535  10.964  17.635  0.00  0.00    +0.000 OA
ENDBRANCH  17  18
ENDBRANCH  15  17
ENDBRANCH  12  14
ENDBRANCH   1  12
BRANCH   2  23
ATOM     23  C   UNL     1       7.152   6.479  17.474  0.00  0.00    +0.000 C 
BRANCH  23  24
ATOM     24  C   UNL     1       8.048   7.090  18.559  0.00  0.00    +0.000 C 
BRANCH  24  25
ATOM     25  C   UNL     1       8.245   8.557  18.213  0.00  0.00    +0.000 C 
ATOM     26  O   UNL     1       7.752   9.017  17.182  0.00  0.00    +0.000 OA
ATOM     27  N   UNL     1       9.006   9.257  19.121  0.00  0.00    +0.000 N 
ATOM     28  C   UNL     1       9.282  10.581  18.897  0.00  0.00    +0.000 A 
ATOM     29  N   UNL     1       8.753  11.383  18.008  0.00  0.00    +0.000 NA
ATOM     30  C   UNL     1       9.379  12.608  18.049  0.00  0.00    +0.000 A 
ATOM     31  C   UNL     1      10.380  12.722  18.990  0.00  0.00    +0.000 A 
ATOM     32  S   UNL     1      10.498  11.257  19.885  0.00  0.00    +0.000 S 
ATOM     33  H   UNL     1       9.480   8.802  19.885  0.00  0.00    +0.000 HD
ENDBRANCH  24  25
ENDBRANCH  23  24
ENDBRANCH   2  23
TORSDOF 8
ENDMDL
MODEL 6
REMARK VINA RESULT:      -7.7      4.950      7.398
REMARK  Name = 
REMARK  8 active torsions:
REMARK  status: ('A' for Active; 'I' for Inactive)
REMARK    1  A    between atoms: C_2  and  C_3
REMARK    2  A    between atoms: C_3  and  N_4
REMARK    3  A    between atoms: N_4  and  C_17
REMARK    4  A    between atoms: C_5  and  C_7
REMARK    5  A    between atoms: C_7  and  C_8
REMARK    6  A    between atoms: C_8  and  C_9
REMARK    7  A    between atoms: N_25  and  C_26
REMARK    8  A    between atoms: C_26  and  C_27
REMARK                            x       y       z     vdW  Elec       q    Type
REMARK                         _______ _______ _______ _____ _____    ______ ____
ROOT
ATOM      1  N   UNL     1       5.952   4.871  17.477  0.00  0.00    +0.000 N 
ATOM      2  C   UNL     1       6.060   6.245  17.824  0.00  0.00    +0.000 C 
ATOM      3  O   UNL     1       5.202   6.898  18.422  0.00  0.00    +0.000 OA
ENDROOT
BRANCH   1   4
ATOM      4  C   UNL     1       4.757   4.130  17.834  0.00  0.00    +0.000 A 
ATOM      5  C   UNL     1       3.765   3.846  16.878  0.00  0.00    +0.000 A 
ATOM      6  C   UNL     1       2.614   3.120  17.203  0.00  0.00    +0.000 A 
ATOM      7  C   UNL     1       2.423   2.682  18.503  0.00  0.00    +0.000 A 
ATOM      8  F   UNL     1       1.316   1.985  18.796  0.00  0.00    +0.000 F 
ATOM      9  C   UNL     1       3.368   2.970  19.479  0.00  0.00    +0.000 A 
ATOM     10 CL   UNL     1       3.137   2.439  21.101  0.00  0.00    +0.000 Cl
ATOM     11  C   UNL     1       4.524   3.690  19.150  0.00  0.00    +0.000 A 
ENDBRANCH   1   4
BRANCH   1  12
ATOM     12  C   UNL     1       6.897   4.245  16.510  0.00  0.00    +0.000 C 
BRANCH  12  14
ATOM     13  O   UNL     1       7.664   5.385  14.529  0.00  0.00    +0.000 OA
ATOM     14  C   UNL     1       6.846   4.601  15.011  0.00  0.00    +0.000 C 
ATOM     15  N   UNL     1       5.881   4.003  14.249  0.00  0.00    +0.000 N 
ATOM     16  H   UNL     1       5.310   3.263  14.637  0.00  0.00    +0.000 HD
BRANCH  15  17
ATOM     17  C   UNL     1       5.731   4.288  12.838  0.00  0.00    +0.000 C 
BRANCH  17  18
ATOM     18  C   UNL     1       6.093   3.073  12.070  0.00  0.00    +0.000 A 
ATOM     19  C   UNL     1       5.373   1.996  11.596  0.00  0.00    +0.000 A 
ATOM     20  C   UNL     1       6.300   1.153  10.938  0.00  0.00    +0.000 A 
ATOM     21  C   UNL     1       7.525   1.765  11.053  0.00  0.00    +0.000 A 
ATOM     22  O   UNL     1       7.411   2.931  11.736  0.00  0.00    +0.000 OA
ENDBRANCH  17  18
ENDBRANCH  15  17
ENDBRANCH  12  14
ENDBRANCH   1  12
BRANCH   2  23
ATOM     23  C   UNL     1       7.316   6.955  17.370  0.00  0.00    +0.000 C 
BRANCH  23  24
ATOM     24  C   UNL     1       8.215   7.496  18.489  0.00  0.00    +0.000 C 
BRANCH  24  25
ATOM     25  C   UNL     1       8.360   8.994  18.273  0.00  0.00    +0.000 C 
ATOM     26  O   UNL     1       7.712   9.551  17.385  0.00  0.00    +0.000 OA
ATOM     27  N   UNL     1       9.255   9.606  19.119  0.00  0.00    +0.000 N 
ATOM     28  C   UNL     1       9.496  10.950  18.996  0.00  0.00    +0.000 A 
ATOM     29  N   UNL     1       8.836  11.832  18.290  0.00  0.00    +0.000 NA
ATOM     30  C   UNL     1       9.463  13.055  18.362  0.00  0.00    +0.000 A 
ATOM     31  C   UNL     1      10.599  13.085  19.142  0.00  0.00    +0.000 A 
ATOM     32  S   UNL     1      10.853  11.536  19.849  0.00  0.00    +0.000 S 
ATOM     33  H   UNL     1       9.841   9.080  19.749  0.00  0.00    +0.000 HD
ENDBRANCH  24  25
ENDBRANCH  23  24
ENDBRANCH   2  23
TORSDOF 8
ENDMDL
MODEL 7
REMARK VINA RESULT:      -7.7      4.703      6.834
REMARK  Name = 
REMARK  8 active torsions:
REMARK  status: ('A' for Active; 'I' for Inactive)
REMARK    1  A    between atoms: C_2  and  C_3
REMARK    2  A    between atoms: C_3  and  N_4
REMARK    3  A    between atoms: N_4  and  C_17
REMARK    4  A    between atoms: C_5  and  C_7
REMARK    5  A    between atoms: C_7  and  C_8
REMARK    6  A    between atoms: C_8  and  C_9
REMARK    7  A    between atoms: N_25  and  C_26
REMARK    8  A    between atoms: C_26  and  C_27
REMARK                            x       y       z     vdW  Elec       q    Type
REMARK                         _______ _______ _______ _____ _____    ______ ____
ROOT
ATOM      1  N   UNL     1       4.973   5.547  17.781  0.00  0.00    +0.000 N 
ATOM      2  C   UNL     1       6.364   5.297  17.941  0.00  0.00    +0.000 C 
ATOM      3  O   UNL     1       6.851   4.293  18.461  0.00  0.00    +0.000 OA
ENDROOT
BRANCH   1   4
ATOM      4  C   UNL     1       4.008   4.570  18.249  0.00  0.00    +0.000 A 
ATOM      5  C   UNL     1       3.407   3.659  17.363  0.00  0.00    +0.000 A 
ATOM      6  C   UNL     1       2.485   2.702  17.802  0.00  0.00    +0.000 A 
ATOM      7  C   UNL     1       2.130   2.654  19.139  0.00  0.00    +0.000 A 
ATOM      8  F   UNL     1       1.248   1.729  19.543  0.00  0.00    +0.000 F 
ATOM      9  C   UNL     1       2.682   3.559  20.037  0.00  0.00    +0.000 A 
ATOM     10 CL   UNL     1       2.240   3.516  21.702  0.00  0.00    +0.000 Cl
ATOM     11  C   UNL     1       3.611   4.511  19.598  0.00  0.00    +0.000 A 
ENDBRANCH   1   4
BRANCH   1  12
ATOM     12  C   UNL     1       4.472   6.900  17.411  0.00  0.00    +0.000 C 
BRANCH  12  14
ATOM     13  O   UNL     1       2.108   6.467  17.602  0.00  0.00    +0.000 OA
ATOM     14  C   UNL     1       3.009   7.303  17.684  0.00  0.00    +0.000 C 
ATOM     15  N   UNL     1       2.763   8.602  18.034  0.00  0.00    +0.000 N 
ATOM     16  H   UNL     1       3.530   9.232  18.227  0.00  0.00    +0.000 HD
BRANCH  15  17
ATOM     17  C   UNL     1       1.422   9.088  18.285  0.00  0.00    +0.000 C 
BRANCH  17  18
ATOM     18  C   UNL     1       1.215   9.163  19.751  0.00  0.00    +0.000 A 
ATOM     19  C   UNL     1       1.396   8.267  20.785  0.00  0.00    +0.000 A 
ATOM     20  C   UNL     1       1.008   8.939  21.969  0.00  0.00    +0.000 A 
ATOM     21  C   UNL     1       0.614  10.199  21.585  0.00  0.00    +0.000 A 
ATOM     22  O   UNL     1       0.736  10.346  20.241  0.00  0.00    +0.000 OA
ENDBRANCH  17  18
ENDBRANCH  15  17
ENDBRANCH  12  14
ENDBRANCH   1  12
BRANCH   2  23
ATOM     23  C   UNL     1       7.299   6.389  17.471  0.00  0.00    +0.000 C 
BRANCH  23  24
ATOM     24  C   UNL     1       8.103   7.095  18.570  0.00  0.00    +0.000 C 
BRANCH  24  25
ATOM     25  C   UNL     1       8.215   8.561  18.183  0.00  0.00    +0.000 C 
ATOM     26  O   UNL     1       7.617   8.981  17.192  0.00  0.00    +0.000 OA
ATOM     27  N   UNL     1       9.025   9.305  19.008  0.00  0.00    +0.000 N 
ATOM     28  C   UNL     1       9.231  10.634  18.738  0.00  0.00    +0.000 A 
ATOM     29  N   UNL     1       8.596  11.398  17.886  0.00  0.00    +0.000 NA
ATOM     30  C   UNL     1       9.177  12.645  17.852  0.00  0.00    +0.000 A 
ATOM     31  C   UNL     1      10.251  12.814  18.698  0.00  0.00    +0.000 A 
ATOM     32  S   UNL     1      10.502  11.373  19.605  0.00  0.00    +0.000 S 
ATOM     33  H   UNL     1       9.581   8.883  19.736  0.00  0.00    +0.000 HD
ENDBRANCH  24  25
ENDBRANCH  23  24
ENDBRANCH   2  23
TORSDOF 8
ENDMDL
MODEL 8
REMARK VINA RESULT:      -7.6      4.941      7.324
REMARK  Name = 
REMARK  8 active torsions:
REMARK  status: ('A' for Active; 'I' for Inactive)
REMARK    1  A    between atoms: C_2  and  C_3
REMARK    2  A    between atoms: C_3  and  N_4
REMARK    3  A    between atoms: N_4  and  C_17
REMARK    4  A    between atoms: C_5  and  C_7
REMARK    5  A    between atoms: C_7  and  C_8
REMARK    6  A    between atoms: C_8  and  C_9
REMARK    7  A    between atoms: N_25  and  C_26
REMARK    8  A    between atoms: C_26  and  C_27
REMARK                            x       y       z     vdW  Elec       q    Type
REMARK                         _______ _______ _______ _____ _____    ______ ____
ROOT
ATOM      1  N   UNL     1       5.658   5.269  17.594  0.00  0.00    +0.000 N 
ATOM      2  C   UNL     1       6.624   5.678  18.554  0.00  0.00    +0.000 C 
ATOM      3  O   UNL     1       6.587   5.417  19.757  0.00  0.00    +0.000 OA
ENDROOT
BRANCH   1   4
ATOM      4  C   UNL     1       4.518   4.476  18.014  0.00  0.00    +0.000 A 
ATOM      5  C   UNL     1       4.286   3.196  17.480  0.00  0.00    +0.000 A 
ATOM      6  C   UNL     1       3.199   2.414  17.885  0.00  0.00    +0.000 A 
ATOM      7  C   UNL     1       2.307   2.910  18.820  0.00  0.00    +0.000 A 
ATOM      8  F   UNL     1       1.273   2.146  19.199  0.00  0.00    +0.000 F 
ATOM      9  C   UNL     1       2.489   4.183  19.347  0.00  0.00    +0.000 A 
ATOM     10 CL   UNL     1       1.380   4.815  20.503  0.00  0.00    +0.000 Cl
ATOM     11  C   UNL     1       3.582   4.962  18.947  0.00  0.00    +0.000 A 
ENDBRANCH   1   4
BRANCH   1  12
ATOM     12  C   UNL     1       5.627   5.868  16.231  0.00  0.00    +0.000 C 
BRANCH  12  14
ATOM     13  O   UNL     1       7.561   5.618  14.813  0.00  0.00    +0.000 OA
ATOM     14  C   UNL     1       6.419   5.234  15.070  0.00  0.00    +0.000 C 
ATOM     15  N   UNL     1       5.817   4.230  14.364  0.00  0.00    +0.000 N 
ATOM     16  H   UNL     1       4.938   3.841  14.679  0.00  0.00    +0.000 HD
BRANCH  15  17
ATOM     17  C   UNL     1       6.464   3.587  13.240  0.00  0.00    +0.000 C 
BRANCH  17  18
ATOM     18  C   UNL     1       5.433   3.255  12.228  0.00  0.00    +0.000 A 
ATOM     19  C   UNL     1       4.318   3.915  11.753  0.00  0.00    +0.000 A 
ATOM     20  C   UNL     1       3.730   3.063  10.787  0.00  0.00    +0.000 A 
ATOM     21  C   UNL     1       4.520   1.939  10.733  0.00  0.00    +0.000 A 
ATOM     22  O   UNL     1       5.557   2.046  11.603  0.00  0.00    +0.000 OA
ENDBRANCH  17  18
ENDBRANCH  15  17
ENDBRANCH  12  14
ENDBRANCH   1  12
BRANCH   2  23
ATOM     23  C   UNL     1       7.754   6.544  18.041  0.00  0.00    +0.000 C 
BRANCH  23  24
ATOM     24  C   UNL     1       7.358   7.955  17.589  0.00  0.00    +0.000 C 
BRANCH  24  25
ATOM     25  C   UNL     1       8.326   8.930  18.240  0.00  0.00    +0.000 C 
ATOM     26  O   UNL     1       9.043   8.555  19.169  0.00  0.00    +0.000 OA
ATOM     27  N   UNL     1       8.292  10.200  17.713  0.00  0.00    +0.000 N 
ATOM     28  C   UNL     1       9.097  11.176  18.243  0.00  0.00    +0.000 A 
ATOM     29  N   UNL     1      10.085  11.044  19.090  0.00  0.00    +0.000 NA
ATOM     30  C   UNL     1      10.569  12.282  19.444  0.00  0.00    +0.000 A 
ATOM     31  C   UNL     1       9.939  13.350  18.842  0.00  0.00    +0.000 A 
ATOM     32  S   UNL     1       8.736  12.772  17.756  0.00  0.00    +0.000 S 
ATOM     33  H   UNL     1       7.603  10.479  17.032  0.00  0.00    +0.000 HD
ENDBRANCH  24  25
ENDBRANCH  23  24
ENDBRANCH   2  23
TORSDOF 8
ENDMDL
MODEL 9
REMARK VINA RESULT:      -7.6      4.895      7.350
REMARK  Name = 
REMARK  8 active torsions:
REMARK  status: ('A' for Active; 'I' for Inactive)
REMARK    1  A    between atoms: C_2  and  C_3
REMARK    2  A    between atoms: C_3  and  N_4
REMARK    3  A    between atoms: N_4  and  C_17
REMARK    4  A    between atoms: C_5  and  C_7
REMARK    5  A    between atoms: C_7  and  C_8
REMARK    6  A    between atoms: C_8  and  C_9
REMARK    7  A    between atoms: N_25  and  C_26
REMARK    8  A    between atoms: C_26  and  C_27
REMARK                            x       y       z     vdW  Elec       q    Type
REMARK                         _______ _______ _______ _____ _____    ______ ____
ROOT
ATOM      1  N   UNL     1       5.566   5.452  17.287  0.00  0.00    +0.000 N 
ATOM      2  C   UNL     1       6.412   5.976  18.303  0.00  0.00    +0.000 C 
ATOM      3  O   UNL     1       6.215   5.877  19.515  0.00  0.00    +0.000 OA
ENDROOT
BRANCH   1   4
ATOM      4  C   UNL     1       4.361   4.732  17.654  0.00  0.00    +0.000 A 
ATOM      5  C   UNL     1       3.118   5.387  17.731  0.00  0.00    +0.000 A 
ATOM      6  C   UNL     1       1.945   4.704  18.070  0.00  0.00    +0.000 A 
ATOM      7  C   UNL     1       1.997   3.352  18.361  0.00  0.00    +0.000 A 
ATOM      8  F   UNL     1       0.863   2.713  18.680  0.00  0.00    +0.000 F 
ATOM      9  C   UNL     1       3.213   2.680  18.323  0.00  0.00    +0.000 A 
ATOM     10 CL   UNL     1       3.293   0.999  18.693  0.00  0.00    +0.000 Cl
ATOM     11  C   UNL     1       4.386   3.363  17.976  0.00  0.00    +0.000 A 
ENDBRANCH   1   4
BRANCH   1  12
ATOM     12  C   UNL     1       5.725   5.865  15.865  0.00  0.00    +0.000 C 
BRANCH  12  14
ATOM     13  O   UNL     1       7.565   4.378  15.397  0.00  0.00    +0.000 OA
ATOM     14  C   UNL     1       6.704   5.126  14.931  0.00  0.00    +0.000 C 
ATOM     15  N   UNL     1       6.564   5.318  13.584  0.00  0.00    +0.000 N 
ATOM     16  H   UNL     1       5.769   5.826  13.221  0.00  0.00    +0.000 HD
BRANCH  15  17
ATOM     17  C   UNL     1       7.449   4.692  12.624  0.00  0.00    +0.000 C 
BRANCH  17  18
ATOM     18  C   UNL     1       6.768   3.500  12.063  0.00  0.00    +0.000 A 
ATOM     19  C   UNL     1       5.450   3.096  12.005  0.00  0.00    +0.000 A 
ATOM     20  C   UNL     1       5.443   1.846  11.340  0.00  0.00    +0.000 A 
ATOM     21  C   UNL     1       6.754   1.566  11.037  0.00  0.00    +0.000 A 
ATOM     22  O   UNL     1       7.566   2.563  11.469  0.00  0.00    +0.000 OA
ENDBRANCH  17  18
ENDBRANCH  15  17
ENDBRANCH  12  14
ENDBRANCH   1  12
BRANCH   2  23
ATOM     23  C   UNL     1       7.621   6.755  17.832  0.00  0.00    +0.000 C 
BRANCH  23  24
ATOM     24  C   UNL     1       8.405   7.490  18.926  0.00  0.00    +0.000 C 
BRANCH  24  25
ATOM     25  C   UNL     1       8.516   8.947  18.506  0.00  0.00    +0.000 C 
ATOM     26  O   UNL     1       7.942   9.338  17.489  0.00  0.00    +0.000 OA
ATOM     27  N   UNL     1       9.297   9.718  19.335  0.00  0.00    +0.000 N 
ATOM     28  C   UNL     1       9.500  11.042  19.037  0.00  0.00    +0.000 A 
ATOM     29  N   UNL     1       8.884  11.779  18.150  0.00  0.00    +0.000 NA
ATOM     30  C   UNL     1       9.456  13.030  18.100  0.00  0.00    +0.000 A 
ATOM     31  C   UNL     1      10.505  13.228  18.971  0.00  0.00    +0.000 A 
ATOM     32  S   UNL     1      10.742  11.812  19.920  0.00  0.00    +0.000 S 
ATOM     33  H   UNL     1       9.836   9.319  20.087  0.00  0.00    +0.000 HD
ENDBRANCH  24  25
ENDBRANCH  23  24
ENDBRANCH   2  23
TORSDOF 8
ENDMDL
