MODEL 1
REMARK VINA RESULT:      -9.2      0.000      0.000
REMARK  Name = 
REMARK  8 active torsions:
REMARK  status: ('A' for Active; 'I' for Inactive)
REMARK    1  A    between atoms: C_1  and  C_2
REMARK    2  A    between atoms: C_4  and  C_5
REMARK    3  A    between atoms: C_5  and  C_6
REMARK    4  A    between atoms: C_6  and  C_7
REMARK    5  A    between atoms: C_7  and  O_9
REMARK    6  A    between atoms: C_11  and  C_12
REMARK    7  A    between atoms: C_13  and  C_14
REMARK    8  A    between atoms: C_19  and  C_20
REMARK                            x       y       z     vdW  Elec       q    Type
REMARK                         _______ _______ _______ _____ _____    ______ ____
ROOT
ATOM      1  C   UNL     1       1.525   8.179  20.156  0.00  0.00    +0.000 A 
ATOM      2  N   UNL     1       1.401   8.133  21.473  0.00  0.00    +0.000 NA
ATOM      3  C   UNL     1       0.534   9.136  21.823  0.00  0.00    +0.000 A 
ATOM      4  C   UNL     1       0.027   9.502  23.080  0.00  0.00    +0.000 A 
ATOM      5  C   UNL     1      -0.853  10.598  23.164  0.00  0.00    +0.000 A 
ATOM      6  C   UNL     1      -1.207  11.315  22.010  0.00  0.00    +0.000 A 
ATOM      7  C   UNL     1      -0.717  10.941  20.747  0.00  0.00    +0.000 A 
ATOM      8  C   UNL     1       0.137   9.844  20.704  0.00  0.00    +0.000 A 
ATOM      9  N   UNL     1       0.733   9.191  19.661  0.00  0.00    +0.000 N 
ATOM     10  H   UNL     1       0.583   9.408  18.690  0.00  0.00    +0.000 HD
ENDROOT
BRANCH   6  11
ATOM     11  C   UNL     1      -2.149  12.467  22.035  0.00  0.00    +0.000 C 
ATOM     12  O   UNL     1      -1.709  13.550  21.662  0.00  0.00    +0.000 OA
ATOM     13  N   UNL     1      -3.395  12.209  22.570  0.00  0.00    +0.000 N 
ATOM     14  C   UNL     1      -4.380  13.200  22.741  0.00  0.00    +0.000 A 
ATOM     15  C   UNL     1      -5.443  12.917  23.586  0.00  0.00    +0.000 A 
ATOM     16  C   UNL     1      -6.384  13.920  23.833  0.00  0.00    +0.000 A 
ATOM     17  C   UNL     1      -6.255  15.164  23.202  0.00  0.00    +0.000 A 
ATOM     18  C   UNL     1      -7.168  16.212  23.425  0.00  0.00    +0.000 A 
ATOM     19  C   UNL     1      -7.013  17.431  22.763  0.00  0.00    +0.000 A 
ATOM     20  C   UNL     1      -5.951  17.602  21.882  0.00  0.00    +0.000 A 
ATOM     21  C   UNL     1      -5.042  16.561  21.675  0.00  0.00    +0.000 A 
ATOM     22  C   UNL     1      -5.173  15.338  22.326  0.00  0.00    +0.000 A 
ATOM     23  N   UNL     1      -4.263  14.381  22.108  0.00  0.00    +0.000 NA
ATOM     24  H   UNL     1      -3.563  11.316  23.004  0.00  0.00    +0.000 HD
ENDBRANCH   6  11
BRANCH   1  32
ATOM     25  C   UNL     1       1.862   5.237  20.852  0.00  0.00    +0.000 C 
ATOM     26  C   UNL     1       2.489   5.889  19.645  0.00  0.00    +0.000 A 
ATOM     27  C   UNL     1       3.262   5.058  18.808  0.00  0.00    +0.000 A 
ATOM     28  C   UNL     1       3.838   5.536  17.629  0.00  0.00    +0.000 A 
ATOM     29  C   UNL     1       3.664   6.881  17.301  0.00  0.00    +0.000 A 
ATOM     30  C   UNL     1       2.921   7.748  18.125  0.00  0.00    +0.000 A 
ATOM     31  C   UNL     1       2.799   9.189  17.690  0.00  0.00    +0.000 C 
ATOM     32  C   UNL     1       2.320   7.259  19.315  0.00  0.00    +0.000 A 
BRANCH  28  33
ATOM     33  C   UNL     1       4.649   4.624  16.735  0.00  0.00    +0.000 C 
BRANCH  33  34
ATOM     34  C   UNL     1       5.463   5.395  15.695  0.00  0.00    +0.000 C 
BRANCH  34  35
ATOM     35  C   UNL     1       6.937   5.092  15.811  0.00  0.00    +0.000 C 
ATOM     36  O   UNL     1       7.470   4.517  16.745  0.00  0.00    +0.000 OA
BRANCH  35  37
ATOM     37  O   UNL     1       7.634   5.525  14.734  0.00  0.00    +0.000 OA
ATOM     38  H   UNL     1       7.726   4.856  14.029  0.00  0.00    +0.000 HD
ENDBRANCH  35  37
ENDBRANCH  34  35
ENDBRANCH  33  34
ENDBRANCH  28  33
ENDBRANCH   1  32
TORSDOF 6
ENDMDL
MODEL 2
REMARK VINA RESULT:      -9.1      1.092      1.175
REMARK  Name = 
REMARK  8 active torsions:
REMARK  status: ('A' for Active; 'I' for Inactive)
REMARK    1  A    between atoms: C_1  and  C_2
REMARK    2  A    between atoms: C_4  and  C_5
REMARK    3  A    between atoms: C_5  and  C_6
REMARK    4  A    between atoms: C_6  and  C_7
REMARK    5  A    between atoms: C_7  and  O_9
REMARK    6  A    between atoms: C_11  and  C_12
REMARK    7  A    between atoms: C_13  and  C_14
REMARK    8  A    between atoms: C_19  and  C_20
REMARK                            x       y       z     vdW  Elec       q    Type
REMARK                         _______ _______ _______ _____ _____    ______ ____
ROOT
ATOM      1  C   UNL     1       1.526   8.177  20.159  0.00  0.00    +0.000 A 
ATOM      2  N   UNL     1       1.441   8.126  21.479  0.00  0.00    +0.000 NA
ATOM      3  C   UNL     1       0.557   9.103  21.856  0.00  0.00    +0.000 A 
ATOM      4  C   UNL     1       0.076   9.453  23.128  0.00  0.00    +0.000 A 
ATOM      5  C   UNL     1      -0.833  10.523  23.239  0.00  0.00    +0.000 A 
ATOM      6  C   UNL     1      -1.241  11.230  22.098  0.00  0.00    +0.000 A 
ATOM      7  C   UNL     1      -0.777  10.871  20.820  0.00  0.00    +0.000 A 
ATOM      8  C   UNL     1       0.106   9.800  20.750  0.00  0.00    +0.000 A 
ATOM      9  N   UNL     1       0.690   9.166  19.689  0.00  0.00    +0.000 N 
ATOM     10  H   UNL     1       0.506   9.379  18.723  0.00  0.00    +0.000 HD
ENDROOT
BRANCH   6  11
ATOM     11  C   UNL     1      -2.215  12.354  22.152  0.00  0.00    +0.000 C 
ATOM     12  O   UNL     1      -2.714  12.706  21.088  0.00  0.00    +0.000 OA
ATOM     13  N   UNL     1      -2.378  12.945  23.389  0.00  0.00    +0.000 N 
ATOM     14  C   UNL     1      -3.199  14.068  23.604  0.00  0.00    +0.000 A 
ATOM     15  C   UNL     1      -3.027  14.779  24.783  0.00  0.00    +0.000 A 
ATOM     16  C   UNL     1      -3.775  15.944  24.973  0.00  0.00    +0.000 A 
ATOM     17  C   UNL     1      -4.697  16.346  23.998  0.00  0.00    +0.000 A 
ATOM     18  C   UNL     1      -5.466  17.516  24.135  0.00  0.00    +0.000 A 
ATOM     19  C   UNL     1      -6.386  17.872  23.147  0.00  0.00    +0.000 A 
ATOM     20  C   UNL     1      -6.537  17.061  22.027  0.00  0.00    +0.000 A 
ATOM     21  C   UNL     1      -5.761  15.906  21.893  0.00  0.00    +0.000 A 
ATOM     22  C   UNL     1      -4.835  15.533  22.862  0.00  0.00    +0.000 A 
ATOM     23  N   UNL     1      -4.102  14.428  22.675  0.00  0.00    +0.000 NA
ATOM     24  H   UNL     1      -1.771  12.671  24.144  0.00  0.00    +0.000 HD
ENDBRANCH   6  11
BRANCH   1  32
ATOM     25  C   UNL     1       1.857   5.215  20.769  0.00  0.00    +0.000 C 
ATOM     26  C   UNL     1       2.488   5.901  19.584  0.00  0.00    +0.000 A 
ATOM     27  C   UNL     1       3.263   5.095  18.724  0.00  0.00    +0.000 A 
ATOM     28  C   UNL     1       3.843   5.607  17.562  0.00  0.00    +0.000 A 
ATOM     29  C   UNL     1       3.672   6.961  17.274  0.00  0.00    +0.000 A 
ATOM     30  C   UNL     1       2.928   7.804  18.121  0.00  0.00    +0.000 A 
ATOM     31  C   UNL     1       2.809   9.258  17.729  0.00  0.00    +0.000 C 
ATOM     32  C   UNL     1       2.322   7.281  19.294  0.00  0.00    +0.000 A 
BRANCH  28  33
ATOM     33  C   UNL     1       4.656   4.721  16.644  0.00  0.00    +0.000 C 
BRANCH  33  34
ATOM     34  C   UNL     1       5.585   5.520  15.729  0.00  0.00    +0.000 C 
BRANCH  34  35
ATOM     35  C   UNL     1       7.018   5.445  16.194  0.00  0.00    +0.000 C 
ATOM     36  O   UNL     1       7.700   4.434  16.228  0.00  0.00    +0.000 OA
BRANCH  35  37
ATOM     37  O   UNL     1       7.497   6.653  16.575  0.00  0.00    +0.000 OA
ATOM     38  H   UNL     1       8.471   6.705  16.590  0.00  0.00    +0.000 HD
ENDBRANCH  35  37
ENDBRANCH  34  35
ENDBRANCH  33  34
ENDBRANCH  28  33
ENDBRANCH   1  32
TORSDOF 6
ENDMDL
MODEL 3
REMARK VINA RESULT:      -9.0      2.048      3.081
REMARK  Name = 
REMARK  8 active torsions:
REMARK  status: ('A' for Active; 'I' for Inactive)
REMARK    1  A    between atoms: C_1  and  C_2
REMARK    2  A    between atoms: C_4  and  C_5
REMARK    3  A    between atoms: C_5  and  C_6
REMARK    4  A    between atoms: C_6  and  C_7
REMARK    5  A    between atoms: C_7  and  O_9
REMARK    6  A    between atoms: C_11  and  C_12
REMARK    7  A    between atoms: C_13  and  C_14
REMARK    8  A    between atoms: C_19  and  C_20
REMARK                            x       y       z     vdW  Elec       q    Type
REMARK                         _______ _______ _______ _____ _____    ______ ____
ROOT
ATOM      1  C   UNL     1       2.925   6.913  18.560  0.00  0.00    +0.000 A 
ATOM      2  N   UNL     1       2.622   6.653  19.822  0.00  0.00    +0.000 NA
ATOM      3  C   UNL     1       1.841   7.690  20.262  0.00  0.00    +0.000 A 
ATOM      4  C   UNL     1       1.219   7.896  21.504  0.00  0.00    +0.000 A 
ATOM      5  C   UNL     1       0.470   9.073  21.700  0.00  0.00    +0.000 A 
ATOM      6  C   UNL     1       0.360  10.025  20.675  0.00  0.00    +0.000 A 
ATOM      7  C   UNL     1       0.966   9.814  19.424  0.00  0.00    +0.000 A 
ATOM      8  C   UNL     1       1.682   8.633  19.263  0.00  0.00    +0.000 A 
ATOM      9  N   UNL     1       2.331   8.098  18.186  0.00  0.00    +0.000 N 
ATOM     10  H   UNL     1       2.337   8.501  17.264  0.00  0.00    +0.000 HD
ENDROOT
BRANCH   6  11
ATOM     11  C   UNL     1      -0.434  11.276  20.818  0.00  0.00    +0.000 C 
ATOM     12  O   UNL     1      -0.116  12.219  20.101  0.00  0.00    +0.000 OA
ATOM     13  N   UNL     1      -1.386  11.268  21.818  0.00  0.00    +0.000 N 
ATOM     14  C   UNL     1      -2.172  12.390  22.142  0.00  0.00    +0.000 A 
ATOM     15  C   UNL     1      -2.836  12.385  23.360  0.00  0.00    +0.000 A 
ATOM     16  C   UNL     1      -3.551  13.525  23.734  0.00  0.00    +0.000 A 
ATOM     17  C   UNL     1      -3.611  14.624  22.867  0.00  0.00    +0.000 A 
ATOM     18  C   UNL     1      -4.307  15.801  23.200  0.00  0.00    +0.000 A 
ATOM     19  C   UNL     1      -4.355  16.867  22.299  0.00  0.00    +0.000 A 
ATOM     20  C   UNL     1      -3.712  16.756  21.071  0.00  0.00    +0.000 A 
ATOM     21  C   UNL     1      -3.013  15.588  20.753  0.00  0.00    +0.000 A 
ATOM     22  C   UNL     1      -2.947  14.515  21.635  0.00  0.00    +0.000 A 
ATOM     23  N   UNL     1      -2.246  13.427  21.290  0.00  0.00    +0.000 NA
ATOM     24  H   UNL     1      -1.421  10.486  22.452  0.00  0.00    +0.000 HD
ENDBRANCH   6  11
BRANCH   1  32
ATOM     25  C   UNL     1       5.634   7.763  17.464  0.00  0.00    +0.000 C 
ATOM     26  C   UNL     1       4.967   6.453  17.127  0.00  0.00    +0.000 A 
ATOM     27  C   UNL     1       5.669   5.592  16.258  0.00  0.00    +0.000 A 
ATOM     28  C   UNL     1       5.181   4.327  15.924  0.00  0.00    +0.000 A 
ATOM     29  C   UNL     1       3.948   3.932  16.446  0.00  0.00    +0.000 A 
ATOM     30  C   UNL     1       3.206   4.773  17.295  0.00  0.00    +0.000 A 
ATOM     31  C   UNL     1       1.878   4.259  17.799  0.00  0.00    +0.000 C 
ATOM     32  C   UNL     1       3.710   6.053  17.649  0.00  0.00    +0.000 A 
BRANCH  28  33
ATOM     33  C   UNL     1       5.958   3.412  15.005  0.00  0.00    +0.000 C 
BRANCH  33  34
ATOM     34  C   UNL     1       6.357   4.096  13.696  0.00  0.00    +0.000 C 
BRANCH  34  35
ATOM     35  C   UNL     1       5.823   3.351  12.498  0.00  0.00    +0.000 C 
ATOM     36  O   UNL     1       4.705   3.473  12.027  0.00  0.00    +0.000 OA
BRANCH  35  37
ATOM     37  O   UNL     1       6.743   2.509  11.967  0.00  0.00    +0.000 OA
ATOM     38  H   UNL     1       7.066   2.782  11.088  0.00  0.00    +0.000 HD
ENDBRANCH  35  37
ENDBRANCH  34  35
ENDBRANCH  33  34
ENDBRANCH  28  33
ENDBRANCH   1  32
TORSDOF 6
ENDMDL
MODEL 4
REMARK VINA RESULT:      -9.0      2.508     12.469
REMARK  Name = 
REMARK  8 active torsions:
REMARK  status: ('A' for Active; 'I' for Inactive)
REMARK    1  A    between atoms: C_1  and  C_2
REMARK    2  A    between atoms: C_4  and  C_5
REMARK    3  A    between atoms: C_5  and  C_6
REMARK    4  A    between atoms: C_6  and  C_7
REMARK    5  A    between atoms: C_7  and  O_9
REMARK    6  A    between atoms: C_11  and  C_12
REMARK    7  A    between atoms: C_13  and  C_14
REMARK    8  A    between atoms: C_19  and  C_20
REMARK                            x       y       z     vdW  Elec       q    Type
REMARK                         _______ _______ _______ _____ _____    ______ ____
ROOT
ATOM      1  C   UNL     1      -1.503  12.217  21.176  0.00  0.00    +0.000 A 
ATOM      2  N   UNL     1      -1.247  11.280  22.075  0.00  0.00    +0.000 NA
ATOM      3  C   UNL     1      -0.391  10.388  21.483  0.00  0.00    +0.000 A 
ATOM      4  C   UNL     1       0.223   9.236  22.000  0.00  0.00    +0.000 A 
ATOM      5  C   UNL     1       1.063   8.480  21.160  0.00  0.00    +0.000 A 
ATOM      6  C   UNL     1       1.272   8.868  19.828  0.00  0.00    +0.000 A 
ATOM      7  C   UNL     1       0.674  10.030  19.311  0.00  0.00    +0.000 A 
ATOM      8  C   UNL     1      -0.135  10.759  20.176  0.00  0.00    +0.000 A 
ATOM      9  N   UNL     1      -0.805  11.940  20.022  0.00  0.00    +0.000 N 
ATOM     10  H   UNL     1      -0.760  12.520  19.200  0.00  0.00    +0.000 HD
ENDROOT
BRANCH   6  11
ATOM     11  C   UNL     1       2.165   8.120  18.901  0.00  0.00    +0.000 C 
ATOM     12  O   UNL     1       2.418   8.653  17.825  0.00  0.00    +0.000 OA
ATOM     13  N   UNL     1       2.535   6.857  19.317  0.00  0.00    +0.000 N 
ATOM     14  C   UNL     1       3.311   5.984  18.532  0.00  0.00    +0.000 A 
ATOM     15  C   UNL     1       3.335   4.642  18.886  0.00  0.00    +0.000 A 
ATOM     16  C   UNL     1       4.031   3.750  18.067  0.00  0.00    +0.000 A 
ATOM     17  C   UNL     1       4.712   4.226  16.940  0.00  0.00    +0.000 A 
ATOM     18  C   UNL     1       5.419   3.368  16.077  0.00  0.00    +0.000 A 
ATOM     19  C   UNL     1       6.098   3.886  14.973  0.00  0.00    +0.000 A 
ATOM     20  C   UNL     1       6.073   5.256  14.733  0.00  0.00    +0.000 A 
ATOM     21  C   UNL     1       5.359   6.100  15.589  0.00  0.00    +0.000 A 
ATOM     22  C   UNL     1       4.671   5.607  16.693  0.00  0.00    +0.000 A 
ATOM     23  N   UNL     1       3.985   6.456  17.469  0.00  0.00    +0.000 NA
ATOM     24  H   UNL     1       2.110   6.472  20.145  0.00  0.00    +0.000 HD
ENDBRANCH   6  11
BRANCH   1  32
ATOM     25  C   UNL     1      -0.540  14.609  22.790  0.00  0.00    +0.000 C 
ATOM     26  C   UNL     1      -1.897  14.531  22.137  0.00  0.00    +0.000 A 
ATOM     27  C   UNL     1      -2.740  15.650  22.296  0.00  0.00    +0.000 A 
ATOM     28  C   UNL     1      -3.994  15.718  21.685  0.00  0.00    +0.000 A 
ATOM     29  C   UNL     1      -4.424  14.628  20.928  0.00  0.00    +0.000 A 
ATOM     30  C   UNL     1      -3.622  13.482  20.768  0.00  0.00    +0.000 A 
ATOM     31  C   UNL     1      -4.181  12.350  19.938  0.00  0.00    +0.000 C 
ATOM     32  C   UNL     1      -2.340  13.419  21.374  0.00  0.00    +0.000 A 
BRANCH  28  33
ATOM     33  C   UNL     1      -4.876  16.935  21.853  0.00  0.00    +0.000 C 
BRANCH  33  34
ATOM     34  C   UNL     1      -6.144  16.635  22.653  0.00  0.00    +0.000 C 
BRANCH  34  35
ATOM     35  C   UNL     1      -5.822  16.248  24.075  0.00  0.00    +0.000 C 
ATOM     36  O   UNL     1      -5.359  16.991  24.924  0.00  0.00    +0.000 OA
BRANCH  35  37
ATOM     37  O   UNL     1      -6.117  14.951  24.332  0.00  0.00    +0.000 OA
ATOM     38  H   UNL     1      -5.385  14.454  24.743  0.00  0.00    +0.000 HD
ENDBRANCH  35  37
ENDBRANCH  34  35
ENDBRANCH  33  34
ENDBRANCH  28  33
ENDBRANCH   1  32
TORSDOF 6
ENDMDL
MODEL 5
REMARK VINA RESULT:      -9.0      0.387      1.527
REMARK  Name = 
REMARK  8 active torsions:
REMARK  status: ('A' for Active; 'I' for Inactive)
REMARK    1  A    between atoms: C_1  and  C_2
REMARK    2  A    between atoms: C_4  and  C_5
REMARK    3  A    between atoms: C_5  and  C_6
REMARK    4  A    between atoms: C_6  and  C_7
REMARK    5  A    between atoms: C_7  and  O_9
REMARK    6  A    between atoms: C_11  and  C_12
REMARK    7  A    between atoms: C_13  and  C_14
REMARK    8  A    between atoms: C_19  and  C_20
REMARK                            x       y       z     vdW  Elec       q    Type
REMARK                         _______ _______ _______ _____ _____    ______ ____
ROOT
ATOM      1  C   UNL     1       1.468   8.258  20.148  0.00  0.00    +0.000 A 
ATOM      2  N   UNL     1       1.315   8.161  21.459  0.00  0.00    +0.000 NA
ATOM      3  C   UNL     1       0.454   9.160  21.831  0.00  0.00    +0.000 A 
ATOM      4  C   UNL     1      -0.075   9.484  23.091  0.00  0.00    +0.000 A 
ATOM      5  C   UNL     1      -0.944  10.587  23.200  0.00  0.00    +0.000 A 
ATOM      6  C   UNL     1      -1.264  11.354  22.069  0.00  0.00    +0.000 A 
ATOM      7  C   UNL     1      -0.751  11.023  20.802  0.00  0.00    +0.000 A 
ATOM      8  C   UNL     1       0.089   9.918  20.733  0.00  0.00    +0.000 A 
ATOM      9  N   UNL     1       0.699   9.299  19.678  0.00  0.00    +0.000 N 
ATOM     10  H   UNL     1       0.573   9.556  18.713  0.00  0.00    +0.000 HD
ENDROOT
BRANCH   6  11
ATOM     11  C   UNL     1      -2.192  12.517  22.120  0.00  0.00    +0.000 C 
ATOM     12  O   UNL     1      -1.721  13.613  21.836  0.00  0.00    +0.000 OA
ATOM     13  N   UNL     1      -3.465  12.245  22.578  0.00  0.00    +0.000 N 
ATOM     14  C   UNL     1      -4.445  13.239  22.763  0.00  0.00    +0.000 A 
ATOM     15  C   UNL     1      -5.551  12.920  23.537  0.00  0.00    +0.000 A 
ATOM     16  C   UNL     1      -6.491  13.920  23.800  0.00  0.00    +0.000 A 
ATOM     17  C   UNL     1      -6.316  15.199  23.255  0.00  0.00    +0.000 A 
ATOM     18  C   UNL     1      -7.226  16.245  23.498  0.00  0.00    +0.000 A 
ATOM     19  C   UNL     1      -7.024  17.500  22.921  0.00  0.00    +0.000 A 
ATOM     20  C   UNL     1      -5.918  17.709  22.104  0.00  0.00    +0.000 A 
ATOM     21  C   UNL     1      -5.013  16.668  21.876  0.00  0.00    +0.000 A 
ATOM     22  C   UNL     1      -5.191  15.410  22.443  0.00  0.00    +0.000 A 
ATOM     23  N   UNL     1      -4.283  14.454  22.210  0.00  0.00    +0.000 NA
ATOM     24  H   UNL     1      -3.665  11.330  22.947  0.00  0.00    +0.000 HD
ENDBRANCH   6  11
BRANCH   1  32
ATOM     25  C   UNL     1       2.868   9.250  17.635  0.00  0.00    +0.000 C 
ATOM     26  C   UNL     1       2.911   7.819  18.108  0.00  0.00    +0.000 A 
ATOM     27  C   UNL     1       3.659   6.916  17.324  0.00  0.00    +0.000 A 
ATOM     28  C   UNL     1       3.823   5.580  17.696  0.00  0.00    +0.000 A 
ATOM     29  C   UNL     1       3.197   5.134  18.861  0.00  0.00    +0.000 A 
ATOM     30  C   UNL     1       2.421   5.998  19.656  0.00  0.00    +0.000 A 
ATOM     31  C   UNL     1       1.776   5.417  20.892  0.00  0.00    +0.000 C 
ATOM     32  C   UNL     1       2.269   7.361  19.288  0.00  0.00    +0.000 A 
BRANCH  28  33
ATOM     33  C   UNL     1       4.643   4.632  16.850  0.00  0.00    +0.000 C 
BRANCH  33  34
ATOM     34  C   UNL     1       5.586   5.365  15.895  0.00  0.00    +0.000 C 
BRANCH  34  35
ATOM     35  C   UNL     1       6.994   5.413  16.435  0.00  0.00    +0.000 C 
ATOM     36  O   UNL     1       7.631   4.454  16.837  0.00  0.00    +0.000 OA
BRANCH  35  37
ATOM     37  O   UNL     1       7.505   6.667  16.420  0.00  0.00    +0.000 OA
ATOM     38  H   UNL     1       6.948   7.325  16.878  0.00  0.00    +0.000 HD
ENDBRANCH  35  37
ENDBRANCH  34  35
ENDBRANCH  33  34
ENDBRANCH  28  33
ENDBRANCH   1  32
TORSDOF 6
ENDMDL
MODEL 6
REMARK VINA RESULT:      -9.0      2.668      3.893
REMARK  Name = 
REMARK  8 active torsions:
REMARK  status: ('A' for Active; 'I' for Inactive)
REMARK    1  A    between atoms: C_1  and  C_2
REMARK    2  A    between atoms: C_4  and  C_5
REMARK    3  A    between atoms: C_5  and  C_6
REMARK    4  A    between atoms: C_6  and  C_7
REMARK    5  A    between atoms: C_7  and  O_9
REMARK    6  A    between atoms: C_11  and  C_12
REMARK    7  A    between atoms: C_13  and  C_14
REMARK    8  A    between atoms: C_19  and  C_20
REMARK                            x       y       z     vdW  Elec       q    Type
REMARK                         _______ _______ _______ _____ _____    ______ ____
ROOT
ATOM      1  C   UNL     1       2.932   6.980  18.446  0.00  0.00    +0.000 A 
ATOM      2  N   UNL     1       2.570   6.775  19.703  0.00  0.00    +0.000 NA
ATOM      3  C   UNL     1       1.837   7.867  20.086  0.00  0.00    +0.000 A 
ATOM      4  C   UNL     1       1.185   8.146  21.298  0.00  0.00    +0.000 A 
ATOM      5  C   UNL     1       0.500   9.369  21.435  0.00  0.00    +0.000 A 
ATOM      6  C   UNL     1       0.482  10.295  20.381  0.00  0.00    +0.000 A 
ATOM      7  C   UNL     1       1.117  10.013  19.159  0.00  0.00    +0.000 A 
ATOM      8  C   UNL     1       1.768   8.788  19.057  0.00  0.00    +0.000 A 
ATOM      9  N   UNL     1       2.421   8.185  18.019  0.00  0.00    +0.000 N 
ATOM     10  H   UNL     1       2.483   8.560  17.087  0.00  0.00    +0.000 HD
ENDROOT
BRANCH   6  11
ATOM     11  C   UNL     1      -0.243  11.593  20.461  0.00  0.00    +0.000 C 
ATOM     12  O   UNL     1      -1.363  11.572  20.961  0.00  0.00    +0.000 OA
ATOM     13  N   UNL     1       0.391  12.668  19.870  0.00  0.00    +0.000 N 
ATOM     14  C   UNL     1      -0.185  13.949  19.786  0.00  0.00    +0.000 A 
ATOM     15  C   UNL     1       0.371  14.851  18.889  0.00  0.00    +0.000 A 
ATOM     16  C   UNL     1      -0.241  16.097  18.732  0.00  0.00    +0.000 A 
ATOM     17  C   UNL     1      -1.367  16.420  19.499  0.00  0.00    +0.000 A 
ATOM     18  C   UNL     1      -2.028  17.657  19.371  0.00  0.00    +0.000 A 
ATOM     19  C   UNL     1      -3.138  17.946  20.166  0.00  0.00    +0.000 A 
ATOM     20  C   UNL     1      -3.586  17.004  21.087  0.00  0.00    +0.000 A 
ATOM     21  C   UNL     1      -2.931  15.774  21.199  0.00  0.00    +0.000 A 
ATOM     22  C   UNL     1      -1.826  15.461  20.415  0.00  0.00    +0.000 A 
ATOM     23  N   UNL     1      -1.248  14.260  20.548  0.00  0.00    +0.000 NA
ATOM     24  H   UNL     1       1.229  12.506  19.337  0.00  0.00    +0.000 HD
ENDBRANCH   6  11
BRANCH   1  32
ATOM     25  C   UNL     1       1.880   4.219  17.716  0.00  0.00    +0.000 C 
ATOM     26  C   UNL     1       3.213   4.756  17.258  0.00  0.00    +0.000 A 
ATOM     27  C   UNL     1       3.988   3.909  16.438  0.00  0.00    +0.000 A 
ATOM     28  C   UNL     1       5.210   4.322  15.902  0.00  0.00    +0.000 A 
ATOM     29  C   UNL     1       5.679   5.597  16.222  0.00  0.00    +0.000 A 
ATOM     30  C   UNL     1       4.947   6.461  17.057  0.00  0.00    +0.000 A 
ATOM     31  C   UNL     1       5.544   7.816  17.353  0.00  0.00    +0.000 C 
ATOM     32  C   UNL     1       3.696   6.049  17.589  0.00  0.00    +0.000 A 
BRANCH  28  33
ATOM     33  C   UNL     1       6.017   3.405  15.011  0.00  0.00    +0.000 C 
BRANCH  33  34
ATOM     34  C   UNL     1       6.378   4.054  13.675  0.00  0.00    +0.000 C 
BRANCH  34  35
ATOM     35  C   UNL     1       5.783   3.298  12.513  0.00  0.00    +0.000 C 
ATOM     36  O   UNL     1       4.684   3.501  12.025  0.00  0.00    +0.000 OA
BRANCH  35  37
ATOM     37  O   UNL     1       6.620   2.345  12.040  0.00  0.00    +0.000 OA
ATOM     38  H   UNL     1       7.484   2.319  12.493  0.00  0.00    +0.000 HD
ENDBRANCH  35  37
ENDBRANCH  34  35
ENDBRANCH  33  34
ENDBRANCH  28  33
ENDBRANCH   1  32
TORSDOF 6
ENDMDL
MODEL 7
REMARK VINA RESULT:      -8.9      1.229      2.017
REMARK  Name = 
REMARK  8 active torsions:
REMARK  status: ('A' for Active; 'I' for Inactive)
REMARK    1  A    between atoms: C_1  and  C_2
REMARK    2  A    between atoms: C_4  and  C_5
REMARK    3  A    between atoms: C_5  and  C_6
REMARK    4  A    between atoms: C_6  and  C_7
REMARK    5  A    between atoms: C_7  and  O_9
REMARK    6  A    between atoms: C_11  and  C_12
REMARK    7  A    between atoms: C_13  and  C_14
REMARK    8  A    between atoms: C_19  and  C_20
REMARK                            x       y       z     vdW  Elec       q    Type
REMARK                         _______ _______ _______ _____ _____    ______ ____
ROOT
ATOM      1  C   UNL     1       1.452   8.393  20.129  0.00  0.00    +0.000 A 
ATOM      2  N   UNL     1       1.403   8.271  21.446  0.00  0.00    +0.000 NA
ATOM      3  C   UNL     1       0.488   9.187  21.894  0.00  0.00    +0.000 A 
ATOM      4  C   UNL     1       0.026   9.451  23.193  0.00  0.00    +0.000 A 
ATOM      5  C   UNL     1      -0.925  10.472  23.382  0.00  0.00    +0.000 A 
ATOM      6  C   UNL     1      -1.392  11.218  22.289  0.00  0.00    +0.000 A 
ATOM      7  C   UNL     1      -0.947  10.946  20.984  0.00  0.00    +0.000 A 
ATOM      8  C   UNL     1      -0.021   9.920  20.837  0.00  0.00    +0.000 A 
ATOM      9  N   UNL     1       0.563   9.367  19.731  0.00  0.00    +0.000 N 
ATOM     10  H   UNL     1       0.344   9.621  18.782  0.00  0.00    +0.000 HD
ENDROOT
BRANCH   6  11
ATOM     11  C   UNL     1      -2.412  12.294  22.425  0.00  0.00    +0.000 C 
ATOM     12  O   UNL     1      -3.149  12.483  21.463  0.00  0.00    +0.000 OA
ATOM     13  N   UNL     1      -2.351  13.031  23.590  0.00  0.00    +0.000 N 
ATOM     14  C   UNL     1      -3.187  14.134  23.848  0.00  0.00    +0.000 A 
ATOM     15  C   UNL     1      -2.821  14.999  24.870  0.00  0.00    +0.000 A 
ATOM     16  C   UNL     1      -3.594  16.143  25.083  0.00  0.00    +0.000 A 
ATOM     17  C   UNL     1      -4.728  16.373  24.294  0.00  0.00    +0.000 A 
ATOM     18  C   UNL     1      -5.534  17.515  24.460  0.00  0.00    +0.000 A 
ATOM     19  C   UNL     1      -6.666  17.698  23.664  0.00  0.00    +0.000 A 
ATOM     20  C   UNL     1      -6.992  16.742  22.707  0.00  0.00    +0.000 A 
ATOM     21  C   UNL     1      -6.180  15.617  22.541  0.00  0.00    +0.000 A 
ATOM     22  C   UNL     1      -5.045  15.415  23.319  0.00  0.00    +0.000 A 
ATOM     23  N   UNL     1      -4.290  14.330  23.105  0.00  0.00    +0.000 NA
ATOM     24  H   UNL     1      -1.579  12.885  24.220  0.00  0.00    +0.000 HD
ENDBRANCH   6  11
BRANCH   1  32
ATOM     25  C   UNL     1       2.792   9.592  17.674  0.00  0.00    +0.000 C 
ATOM     26  C   UNL     1       2.878   8.132  18.046  0.00  0.00    +0.000 A 
ATOM     27  C   UNL     1       3.636   7.305  17.193  0.00  0.00    +0.000 A 
ATOM     28  C   UNL     1       3.839   5.952  17.470  0.00  0.00    +0.000 A 
ATOM     29  C   UNL     1       3.240   5.410  18.609  0.00  0.00    +0.000 A 
ATOM     30  C   UNL     1       2.454   6.197  19.471  0.00  0.00    +0.000 A 
ATOM     31  C   UNL     1       1.839   5.516  20.671  0.00  0.00    +0.000 C 
ATOM     32  C   UNL     1       2.262   7.578  19.199  0.00  0.00    +0.000 A 
BRANCH  28  33
ATOM     33  C   UNL     1       4.670   5.085  16.551  0.00  0.00    +0.000 C 
BRANCH  33  34
ATOM     34  C   UNL     1       5.728   4.278  17.305  0.00  0.00    +0.000 C 
BRANCH  34  35
ATOM     35  C   UNL     1       7.124   4.710  16.931  0.00  0.00    +0.000 C 
ATOM     36  O   UNL     1       8.156   4.254  17.395  0.00  0.00    +0.000 OA
BRANCH  35  37
ATOM     37  O   UNL     1       7.123   5.682  15.988  0.00  0.00    +0.000 OA
ATOM     38  H   UNL     1       7.961   5.749  15.490  0.00  0.00    +0.000 HD
ENDBRANCH  35  37
ENDBRANCH  34  35
ENDBRANCH  33  34
ENDBRANCH  28  33
ENDBRANCH   1  32
TORSDOF 6
ENDMDL
MODEL 8
REMARK VINA RESULT:      -8.9      2.527     12.496
REMARK  Name = 
REMARK  8 active torsions:
REMARK  status: ('A' for Active; 'I' for Inactive)
REMARK    1  A    between atoms: C_1  and  C_2
REMARK    2  A    between atoms: C_4  and  C_5
REMARK    3  A    between atoms: C_5  and  C_6
REMARK    4  A    between atoms: C_6  and  C_7
REMARK    5  A    between atoms: C_7  and  O_9
REMARK    6  A    between atoms: C_11  and  C_12
REMARK    7  A    between atoms: C_13  and  C_14
REMARK    8  A    between atoms: C_19  and  C_20
REMARK                            x       y       z     vdW  Elec       q    Type
REMARK                         _______ _______ _______ _____ _____    ______ ____
ROOT
ATOM      1  C   UNL     1      -1.638  12.066  21.258  0.00  0.00    +0.000 A 
ATOM      2  N   UNL     1      -1.268  11.196  22.185  0.00  0.00    +0.000 NA
ATOM      3  C   UNL     1      -0.388  10.332  21.586  0.00  0.00    +0.000 A 
ATOM      4  C   UNL     1       0.331   9.251  22.120  0.00  0.00    +0.000 A 
ATOM      5  C   UNL     1       1.171   8.508  21.269  0.00  0.00    +0.000 A 
ATOM      6  C   UNL     1       1.277   8.839  19.910  0.00  0.00    +0.000 A 
ATOM      7  C   UNL     1       0.574   9.931  19.374  0.00  0.00    +0.000 A 
ATOM      8  C   UNL     1      -0.233  10.650  20.249  0.00  0.00    +0.000 A 
ATOM      9  N   UNL     1      -0.989  11.775  20.079  0.00  0.00    +0.000 N 
ATOM     10  H   UNL     1      -1.031  12.314  19.229  0.00  0.00    +0.000 HD
ENDROOT
BRANCH   6  11
ATOM     11  C   UNL     1       2.165   8.103  18.968  0.00  0.00    +0.000 C 
ATOM     12  O   UNL     1       2.385   8.635  17.884  0.00  0.00    +0.000 OA
ATOM     13  N   UNL     1       2.568   6.849  19.383  0.00  0.00    +0.000 N 
ATOM     14  C   UNL     1       3.344   5.987  18.585  0.00  0.00    +0.000 A 
ATOM     15  C   UNL     1       3.401   4.648  18.946  0.00  0.00    +0.000 A 
ATOM     16  C   UNL     1       4.097   3.765  18.117  0.00  0.00    +0.000 A 
ATOM     17  C   UNL     1       4.745   4.248  16.973  0.00  0.00    +0.000 A 
ATOM     18  C   UNL     1       5.450   3.399  16.100  0.00  0.00    +0.000 A 
ATOM     19  C   UNL     1       6.096   3.924  14.979  0.00  0.00    +0.000 A 
ATOM     20  C   UNL     1       6.039   5.291  14.733  0.00  0.00    +0.000 A 
ATOM     21  C   UNL     1       5.327   6.126  15.599  0.00  0.00    +0.000 A 
ATOM     22  C   UNL     1       4.672   5.626  16.720  0.00  0.00    +0.000 A 
ATOM     23  N   UNL     1       3.987   6.466  17.506  0.00  0.00    +0.000 NA
ATOM     24  H   UNL     1       2.167   6.461  20.221  0.00  0.00    +0.000 HD
ENDBRANCH   6  11
BRANCH   1  32
ATOM     25  C   UNL     1      -4.276  12.319  19.762  0.00  0.00    +0.000 C 
ATOM     26  C   UNL     1      -3.766  13.347  20.741  0.00  0.00    +0.000 A 
ATOM     27  C   UNL     1      -4.586  14.473  20.959  0.00  0.00    +0.000 A 
ATOM     28  C   UNL     1      -4.249  15.459  21.889  0.00  0.00    +0.000 A 
ATOM     29  C   UNL     1      -3.049  15.329  22.589  0.00  0.00    +0.000 A 
ATOM     30  C   UNL     1      -2.191  14.233  22.380  0.00  0.00    +0.000 A 
ATOM     31  C   UNL     1      -0.909  14.188  23.178  0.00  0.00    +0.000 C 
ATOM     32  C   UNL     1      -2.542  13.221  21.448  0.00  0.00    +0.000 A 
BRANCH  28  33
ATOM     33  C   UNL     1      -5.151  16.650  22.121  0.00  0.00    +0.000 C 
BRANCH  33  34
ATOM     34  C   UNL     1      -5.892  16.573  23.456  0.00  0.00    +0.000 C 
BRANCH  34  35
ATOM     35  C   UNL     1      -7.005  15.556  23.413  0.00  0.00    +0.000 C 
ATOM     36  O   UNL     1      -7.906  15.525  22.591  0.00  0.00    +0.000 OA
BRANCH  35  37
ATOM     37  O   UNL     1      -6.899  14.639  24.404  0.00  0.00    +0.000 OA
ATOM     38  H   UNL     1      -6.094  14.737  24.947  0.00  0.00    +0.000 HD
ENDBRANCH  35  37
ENDBRANCH  34  35
ENDBRANCH  33  34
ENDBRANCH  28  33
ENDBRANCH   1  32
TORSDOF 6
ENDMDL
MODEL 9
REMARK VINA RESULT:      -8.9      2.484     12.213
REMARK  Name = 
REMARK  8 active torsions:
REMARK  status: ('A' for Active; 'I' for Inactive)
REMARK    1  A    between atoms: C_1  and  C_2
REMARK    2  A    between atoms: C_4  and  C_5
REMARK    3  A    between atoms: C_5  and  C_6
REMARK    4  A    between atoms: C_6  and  C_7
REMARK    5  A    between atoms: C_7  and  O_9
REMARK    6  A    between atoms: C_11  and  C_12
REMARK    7  A    between atoms: C_13  and  C_14
REMARK    8  A    between atoms: C_19  and  C_20
REMARK                            x       y       z     vdW  Elec       q    Type
REMARK                         _______ _______ _______ _____ _____    ______ ____
ROOT
ATOM      1  C   UNL     1      -2.074  12.364  22.165  0.00  0.00    +0.000 A 
ATOM      2  N   UNL     1      -1.664  11.503  23.083  0.00  0.00    +0.000 NA
ATOM      3  C   UNL     1      -0.791  10.648  22.461  0.00  0.00    +0.000 A 
ATOM      4  C   UNL     1      -0.042   9.579  22.977  0.00  0.00    +0.000 A 
ATOM      5  C   UNL     1       0.782   8.844  22.103  0.00  0.00    +0.000 A 
ATOM      6  C   UNL     1       0.842   9.170  20.740  0.00  0.00    +0.000 A 
ATOM      7  C   UNL     1       0.108  10.251  20.222  0.00  0.00    +0.000 A 
ATOM      8  C   UNL     1      -0.681  10.963  21.119  0.00  0.00    +0.000 A 
ATOM      9  N   UNL     1      -1.458  12.077  20.967  0.00  0.00    +0.000 N 
ATOM     10  H   UNL     1      -1.533  12.611  20.117  0.00  0.00    +0.000 HD
ENDROOT
BRANCH   6  11
ATOM     11  C   UNL     1       1.710   8.442  19.774  0.00  0.00    +0.000 C 
ATOM     12  O   UNL     1       1.951   9.007  18.712  0.00  0.00    +0.000 OA
ATOM     13  N   UNL     1       2.073   7.162  20.144  0.00  0.00    +0.000 N 
ATOM     14  C   UNL     1       2.825   6.306  19.317  0.00  0.00    +0.000 A 
ATOM     15  C   UNL     1       2.838   4.954  19.628  0.00  0.00    +0.000 A 
ATOM     16  C   UNL     1       3.510   4.080  18.769  0.00  0.00    +0.000 A 
ATOM     17  C   UNL     1       4.177   4.585  17.646  0.00  0.00    +0.000 A 
ATOM     18  C   UNL     1       4.859   3.747  16.744  0.00  0.00    +0.000 A 
ATOM     19  C   UNL     1       5.525   4.292  15.645  0.00  0.00    +0.000 A 
ATOM     20  C   UNL     1       5.512   5.669  15.449  0.00  0.00    +0.000 A 
ATOM     21  C   UNL     1       4.823   6.493  16.344  0.00  0.00    +0.000 A 
ATOM     22  C   UNL     1       4.148   5.973  17.443  0.00  0.00    +0.000 A 
ATOM     23  N   UNL     1       3.486   6.805  18.258  0.00  0.00    +0.000 NA
ATOM     24  H   UNL     1       1.657   6.756  20.965  0.00  0.00    +0.000 HD
ENDBRANCH   6  11
BRANCH   1  32
ATOM     25  C   UNL     1      -1.219  14.855  23.689  0.00  0.00    +0.000 C 
ATOM     26  C   UNL     1      -2.594  14.665  23.099  0.00  0.00    +0.000 A 
ATOM     27  C   UNL     1      -3.509  15.723  23.275  0.00  0.00    +0.000 A 
ATOM     28  C   UNL     1      -4.790  15.687  22.719  0.00  0.00    +0.000 A 
ATOM     29  C   UNL     1      -5.172  14.551  22.003  0.00  0.00    +0.000 A 
ATOM     30  C   UNL     1      -4.296  13.464  21.829  0.00  0.00    +0.000 A 
ATOM     31  C   UNL     1      -4.806  12.276  21.046  0.00  0.00    +0.000 C 
ATOM     32  C   UNL     1      -2.987  13.507  22.378  0.00  0.00    +0.000 A 
BRANCH  28  33
ATOM     33  C   UNL     1      -5.751  16.840  22.904  0.00  0.00    +0.000 C 
BRANCH  33  34
ATOM     34  C   UNL     1      -6.402  17.276  21.590  0.00  0.00    +0.000 C 
BRANCH  34  35
ATOM     35  C   UNL     1      -5.374  17.748  20.593  0.00  0.00    +0.000 C 
ATOM     36  O   UNL     1      -4.555  18.631  20.783  0.00  0.00    +0.000 OA
BRANCH  35  37
ATOM     37  O   UNL     1      -5.443  17.065  19.425  0.00  0.00    +0.000 OA
ATOM     38  H   UNL     1      -6.153  17.372  18.830  0.00  0.00    +0.000 HD
ENDBRANCH  35  37
ENDBRANCH  34  35
ENDBRANCH  33  34
ENDBRANCH  28  33
ENDBRANCH   1  32
TORSDOF 6
ENDMDL
