MODEL 1
REMARK VINA RESULT:      -7.5      0.000      0.000
REMARK  Name = 
REMARK  9 active torsions:
REMARK  status: ('A' for Active; 'I' for Inactive)
REMARK    1  A    between atoms: C_1  and  C_2
REMARK    2  A    between atoms: C_2  and  C_3
REMARK    3  A    between atoms: C_3  and  C_4
REMARK    4  A    between atoms: C_3  and  N_15
REMARK    5  A    between atoms: N_8  and  C_9
REMARK    6  A    between atoms: C_9  and  C_10
REMARK    7  A    between atoms: C_25  and  C_26
REMARK    8  A    between atoms: C_26  and  O_28
REMARK    9  A    between atoms: O_28  and  C_29
REMARK                            x       y       z     vdW  Elec       q    Type
REMARK                         _______ _______ _______ _____ _____    ______ ____
ROOT
ATOM      1  N   UNL     1      -0.095  11.309  21.378  0.00  0.00    +0.000 NA
ATOM      2  C   UNL     1      -0.274   9.859  21.610  0.00  0.00    +0.000 C 
ATOM      3  C   UNL     1      -0.149   8.959  20.373  0.00  0.00    +0.000 C 
ATOM      4  N   UNL     1       1.045   9.280  19.591  0.00  0.00    +0.000 N 
ATOM      5  C   UNL     1       1.891   8.274  19.269  0.00  0.00    +0.000 A 
ATOM      6  N   UNL     1       1.983   7.163  19.958  0.00  0.00    +0.000 NA
ATOM      7  C   UNL     1       2.930   6.326  19.414  0.00  0.00    +0.000 A 
ATOM      8  C   UNL     1       3.288   5.063  19.920  0.00  0.00    +0.000 A 
ATOM      9  C   UNL     1       4.241   4.292  19.242  0.00  0.00    +0.000 A 
ATOM     10  C   UNL     1       4.865   4.782  18.101  0.00  0.00    +0.000 A 
ATOM     11  C   UNL     1       4.554   6.060  17.611  0.00  0.00    +0.000 A 
ATOM     12  C   UNL     1       3.563   6.807  18.270  0.00  0.00    +0.000 A 
ATOM     13  S   UNL     1       2.893   8.339  17.880  0.00  0.00    +0.000 S 
ATOM     14  C   UNL     1       1.435  10.678  19.404  0.00  0.00    +0.000 C 
ATOM     15  C   UNL     1       1.182  11.522  20.670  0.00  0.00    +0.000 C 
ENDROOT
BRANCH  11  16
ATOM     16  C   UNL     1       5.266   6.665  16.467  0.00  0.00    +0.000 C 
ATOM     17  O   UNL     1       5.095   6.306  15.310  0.00  0.00    +0.000 OA
BRANCH  16  18
ATOM     18  O   UNL     1       6.164   7.577  16.901  0.00  0.00    +0.000 OA
ATOM     19  C   UNL     1       7.406   6.994  17.325  0.00  0.00    +0.000 C 
ENDBRANCH  16  18
ENDBRANCH  11  16
BRANCH   1  20
ATOM     20  C   UNL     1      -1.254  12.025  20.799  0.00  0.00    +0.000 C 
BRANCH  20  21
ATOM     21  C   UNL     1      -2.342  12.114  21.842  0.00  0.00    +0.000 A 
ATOM     22  N   UNL     1      -2.253  11.774  23.115  0.00  0.00    +0.000 NA
ATOM     23  N   UNL     1      -3.460  12.064  23.684  0.00  0.00    +0.000 NA
ATOM     24  N   UNL     1      -4.286  12.597  22.799  0.00  0.00    +0.000 NA
ATOM     25  N   UNL     1      -3.597  12.624  21.638  0.00  0.00    +0.000 N 
BRANCH  25  26
ATOM     26  C   UNL     1      -4.200  13.194  20.450  0.00  0.00    +0.000 C 
BRANCH  26  27
ATOM     27  C   UNL     1      -5.334  12.335  19.974  0.00  0.00    +0.000 A 
ATOM     28  C   UNL     1      -6.496  12.001  20.645  0.00  0.00    +0.000 A 
ATOM     29  C   UNL     1      -7.301  11.083  19.911  0.00  0.00    +0.000 A 
ATOM     30  C   UNL     1      -6.748  10.778  18.688  0.00  0.00    +0.000 A 
ATOM     31  S   UNL     1      -5.284  11.615  18.418  0.00  0.00    +0.000 S 
ENDBRANCH  26  27
ENDBRANCH  25  26
ENDBRANCH  20  21
BRANCH  20  33
ATOM     32  C   UNL     1      -1.453  12.312  18.241  0.00  0.00    +0.000 C 
ATOM     33  C   UNL     1      -1.836  11.490  19.466  0.00  0.00    +0.000 C 
ENDBRANCH  20  33
ENDBRANCH   1  20
TORSDOF 7
ENDMDL
MODEL 2
REMARK VINA RESULT:      -7.4      4.274     10.095
REMARK  Name = 
REMARK  9 active torsions:
REMARK  status: ('A' for Active; 'I' for Inactive)
REMARK    1  A    between atoms: C_1  and  C_2
REMARK    2  A    between atoms: C_2  and  C_3
REMARK    3  A    between atoms: C_3  and  C_4
REMARK    4  A    between atoms: C_3  and  N_15
REMARK    5  A    between atoms: N_8  and  C_9
REMARK    6  A    between atoms: C_9  and  C_10
REMARK    7  A    between atoms: C_25  and  C_26
REMARK    8  A    between atoms: C_26  and  O_28
REMARK    9  A    between atoms: O_28  and  C_29
REMARK                            x       y       z     vdW  Elec       q    Type
REMARK                         _______ _______ _______ _____ _____    ______ ____
ROOT
ATOM      1  N   UNL     1       2.866   6.612  19.438  0.00  0.00    +0.000 NA
ATOM      2  C   UNL     1       2.787   7.615  18.354  0.00  0.00    +0.000 C 
ATOM      3  C   UNL     1       1.462   8.381  18.241  0.00  0.00    +0.000 C 
ATOM      4  N   UNL     1       1.023   8.894  19.539  0.00  0.00    +0.000 N 
ATOM      5  C   UNL     1       0.711  10.207  19.640  0.00  0.00    +0.000 A 
ATOM      6  N   UNL     1       1.190  11.123  18.835  0.00  0.00    +0.000 NA
ATOM      7  C   UNL     1       0.716  12.370  19.176  0.00  0.00    +0.000 A 
ATOM      8  C   UNL     1       1.047  13.572  18.526  0.00  0.00    +0.000 A 
ATOM      9  C   UNL     1       0.459  14.771  18.948  0.00  0.00    +0.000 A 
ATOM     10  C   UNL     1      -0.415  14.787  20.029  0.00  0.00    +0.000 A 
ATOM     11  C   UNL     1      -0.718  13.603  20.719  0.00  0.00    +0.000 A 
ATOM     12  C   UNL     1      -0.161  12.398  20.258  0.00  0.00    +0.000 A 
ATOM     13  S   UNL     1      -0.398  10.789  20.809  0.00  0.00    +0.000 S 
ATOM     14  C   UNL     1       1.182   8.065  20.736  0.00  0.00    +0.000 C 
ATOM     15  C   UNL     1       2.497   7.260  20.711  0.00  0.00    +0.000 C 
ENDROOT
BRANCH  11  16
ATOM     16  C   UNL     1      -1.555  13.586  21.936  0.00  0.00    +0.000 C 
ATOM     17  O   UNL     1      -1.107  13.348  23.049  0.00  0.00    +0.000 OA
BRANCH  16  18
ATOM     18  O   UNL     1      -2.854  13.778  21.617  0.00  0.00    +0.000 OA
ATOM     19  C   UNL     1      -3.714  12.727  22.084  0.00  0.00    +0.000 C 
ENDBRANCH  16  18
ENDBRANCH  11  16
BRANCH   1  20
ATOM     20  C   UNL     1       2.195   5.319  19.181  0.00  0.00    +0.000 C 
BRANCH  20  21
ATOM     21  C   UNL     1       3.139   4.198  19.546  0.00  0.00    +0.000 A 
ATOM     22  N   UNL     1       2.812   2.983  19.945  0.00  0.00    +0.000 NA
ATOM     23  N   UNL     1       3.981   2.300  20.121  0.00  0.00    +0.000 NA
ATOM     24  N   UNL     1       5.023   3.056  19.819  0.00  0.00    +0.000 NA
ATOM     25  N   UNL     1       4.505   4.253  19.467  0.00  0.00    +0.000 N 
BRANCH  25  26
ATOM     26  C   UNL     1       5.381   5.322  19.031  0.00  0.00    +0.000 C 
BRANCH  26  27
ATOM     27  C   UNL     1       5.756   5.137  17.590  0.00  0.00    +0.000 A 
ATOM     28  C   UNL     1       4.972   5.339  16.468  0.00  0.00    +0.000 A 
ATOM     29  C   UNL     1       5.640   4.968  15.267  0.00  0.00    +0.000 A 
ATOM     30  C   UNL     1       6.925   4.534  15.504  0.00  0.00    +0.000 A 
ATOM     31  S   UNL     1       7.327   4.602  17.163  0.00  0.00    +0.000 S 
ENDBRANCH  26  27
ENDBRANCH  25  26
ENDBRANCH  20  21
BRANCH  20  33
ATOM     32  C   UNL     1       1.904   3.703  17.188  0.00  0.00    +0.000 C 
ATOM     33  C   UNL     1       1.610   5.082  17.766  0.00  0.00    +0.000 C 
ENDBRANCH  20  33
ENDBRANCH   1  20
TORSDOF 7
ENDMDL
MODEL 3
REMARK VINA RESULT:      -7.4      1.757      2.163
REMARK  Name = 
REMARK  9 active torsions:
REMARK  status: ('A' for Active; 'I' for Inactive)
REMARK    1  A    between atoms: C_1  and  C_2
REMARK    2  A    between atoms: C_2  and  C_3
REMARK    3  A    between atoms: C_3  and  C_4
REMARK    4  A    between atoms: C_3  and  N_15
REMARK    5  A    between atoms: N_8  and  C_9
REMARK    6  A    between atoms: C_9  and  C_10
REMARK    7  A    between atoms: C_25  and  C_26
REMARK    8  A    between atoms: C_26  and  O_28
REMARK    9  A    between atoms: O_28  and  C_29
REMARK                            x       y       z     vdW  Elec       q    Type
REMARK                         _______ _______ _______ _____ _____    ______ ____
ROOT
ATOM      1  N   UNL     1       0.036  12.086  20.400  0.00  0.00    +0.000 NA
ATOM      2  C   UNL     1      -0.284  10.711  20.840  0.00  0.00    +0.000 C 
ATOM      3  C   UNL     1      -0.188   9.621  19.764  0.00  0.00    +0.000 C 
ATOM      4  N   UNL     1       1.063   9.714  19.012  0.00  0.00    +0.000 N 
ATOM      5  C   UNL     1       1.827   8.603  18.896  0.00  0.00    +0.000 A 
ATOM      6  N   UNL     1       1.787   7.611  19.751  0.00  0.00    +0.000 NA
ATOM      7  C   UNL     1       2.677   6.622  19.395  0.00  0.00    +0.000 A 
ATOM      8  C   UNL     1       2.896   5.429  20.107  0.00  0.00    +0.000 A 
ATOM      9  C   UNL     1       3.803   4.485  19.611  0.00  0.00    +0.000 A 
ATOM     10  C   UNL     1       4.518   4.736  18.446  0.00  0.00    +0.000 A 
ATOM     11  C   UNL     1       4.347   5.942  17.750  0.00  0.00    +0.000 A 
ATOM     12  C   UNL     1       3.400   6.864  18.229  0.00  0.00    +0.000 A 
ATOM     13  S   UNL     1       2.890   8.366  17.573  0.00  0.00    +0.000 S 
ATOM     14  C   UNL     1       1.586  11.029  18.637  0.00  0.00    +0.000 C 
ATOM     15  C   UNL     1       1.357  12.079  19.742  0.00  0.00    +0.000 C 
ENDROOT
BRANCH  11  16
ATOM     16  C   UNL     1       5.161   6.300  16.570  0.00  0.00    +0.000 C 
ATOM     17  O   UNL     1       5.046   5.741  15.488  0.00  0.00    +0.000 OA
BRANCH  16  18
ATOM     18  O   UNL     1       6.074   7.241  16.896  0.00  0.00    +0.000 OA
ATOM     19  C   UNL     1       7.318   6.690  17.355  0.00  0.00    +0.000 C 
ENDBRANCH  16  18
ENDBRANCH  11  16
BRANCH   1  20
ATOM     20  C   UNL     1      -1.026  12.797  19.654  0.00  0.00    +0.000 C 
BRANCH  20  21
ATOM     21  C   UNL     1      -1.501  13.970  20.478  0.00  0.00    +0.000 A 
ATOM     22  N   UNL     1      -1.324  15.251  20.213  0.00  0.00    +0.000 NA
ATOM     23  N   UNL     1      -1.956  15.948  21.203  0.00  0.00    +0.000 NA
ATOM     24  N   UNL     1      -2.539  15.128  22.062  0.00  0.00    +0.000 NA
ATOM     25  N   UNL     1      -2.250  13.885  21.622  0.00  0.00    +0.000 N 
BRANCH  25  26
ATOM     26  C   UNL     1      -2.777  12.728  22.319  0.00  0.00    +0.000 C 
BRANCH  26  27
ATOM     27  C   UNL     1      -4.276  12.773  22.350  0.00  0.00    +0.000 A 
ATOM     28  C   UNL     1      -5.160  12.596  21.301  0.00  0.00    +0.000 A 
ATOM     29  C   UNL     1      -6.513  12.806  21.691  0.00  0.00    +0.000 A 
ATOM     30  C   UNL     1      -6.624  13.094  23.033  0.00  0.00    +0.000 A 
ATOM     31  S   UNL     1      -5.106  13.085  23.817  0.00  0.00    +0.000 S 
ENDBRANCH  26  27
ENDBRANCH  25  26
ENDBRANCH  20  21
BRANCH  20  33
ATOM     32  C   UNL     1      -2.227  11.661  17.670  0.00  0.00    +0.000 C 
ATOM     33  C   UNL     1      -2.238  11.965  19.163  0.00  0.00    +0.000 C 
ENDBRANCH  20  33
ENDBRANCH   1  20
TORSDOF 7
ENDMDL
MODEL 4
REMARK VINA RESULT:      -7.3      2.571      3.209
REMARK  Name = 
REMARK  9 active torsions:
REMARK  status: ('A' for Active; 'I' for Inactive)
REMARK    1  A    between atoms: C_1  and  C_2
REMARK    2  A    between atoms: C_2  and  C_3
REMARK    3  A    between atoms: C_3  and  C_4
REMARK    4  A    between atoms: C_3  and  N_15
REMARK    5  A    between atoms: N_8  and  C_9
REMARK    6  A    between atoms: C_9  and  C_10
REMARK    7  A    between atoms: C_25  and  C_26
REMARK    8  A    between atoms: C_26  and  O_28
REMARK    9  A    between atoms: O_28  and  C_29
REMARK                            x       y       z     vdW  Elec       q    Type
REMARK                         _______ _______ _______ _____ _____    ______ ____
ROOT
ATOM      1  N   UNL     1       0.593  11.978  20.051  0.00  0.00    +0.000 NA
ATOM      2  C   UNL     1       0.230  10.645  20.580  0.00  0.00    +0.000 C 
ATOM      3  C   UNL     1       0.225   9.496  19.563  0.00  0.00    +0.000 C 
ATOM      4  N   UNL     1       1.443   9.488  18.752  0.00  0.00    +0.000 N 
ATOM      5  C   UNL     1       2.149   8.337  18.664  0.00  0.00    +0.000 A 
ATOM      6  N   UNL     1       2.103   7.394  19.573  0.00  0.00    +0.000 NA
ATOM      7  C   UNL     1       2.929   6.346  19.234  0.00  0.00    +0.000 A 
ATOM      8  C   UNL     1       3.126   5.184  20.000  0.00  0.00    +0.000 A 
ATOM      9  C   UNL     1       3.964   4.171  19.517  0.00  0.00    +0.000 A 
ATOM     10  C   UNL     1       4.635   4.325  18.309  0.00  0.00    +0.000 A 
ATOM     11  C   UNL     1       4.487   5.500  17.556  0.00  0.00    +0.000 A 
ATOM     12  C   UNL     1       3.607   6.490  18.025  0.00  0.00    +0.000 A 
ATOM     13  S   UNL     1       3.137   7.978  17.310  0.00  0.00    +0.000 S 
ATOM     14  C   UNL     1       2.008  10.754  18.282  0.00  0.00    +0.000 C 
ATOM     15  C   UNL     1       1.879  11.871  19.337  0.00  0.00    +0.000 C 
ENDROOT
BRANCH  11  16
ATOM     16  C   UNL     1       5.260   5.754  16.323  0.00  0.00    +0.000 C 
ATOM     17  O   UNL     1       5.219   5.017  15.348  0.00  0.00    +0.000 OA
BRANCH  16  18
ATOM     18  O   UNL     1       6.054   6.837  16.480  0.00  0.00    +0.000 OA
ATOM     19  C   UNL     1       7.240   6.564  17.241  0.00  0.00    +0.000 C 
ENDBRANCH  16  18
ENDBRANCH  11  16
BRANCH   1  20
ATOM     20  C   UNL     1      -0.469  12.698  19.315  0.00  0.00    +0.000 C 
BRANCH  20  21
ATOM     21  C   UNL     1      -0.353  14.175  19.610  0.00  0.00    +0.000 A 
ATOM     22  N   UNL     1      -0.463  15.168  18.747  0.00  0.00    +0.000 NA
ATOM     23  N   UNL     1      -0.330  16.325  19.461  0.00  0.00    +0.000 NA
ATOM     24  N   UNL     1      -0.162  16.071  20.749  0.00  0.00    +0.000 NA
ATOM     25  N   UNL     1      -0.165  14.724  20.850  0.00  0.00    +0.000 N 
BRANCH  25  26
ATOM     26  C   UNL     1      -0.043  14.095  22.150  0.00  0.00    +0.000 C 
BRANCH  26  27
ATOM     27  C   UNL     1      -1.386  13.640  22.640  0.00  0.00    +0.000 A 
ATOM     28  C   UNL     1      -1.734  12.408  23.164  0.00  0.00    +0.000 A 
ATOM     29  C   UNL     1      -3.129  12.309  23.433  0.00  0.00    +0.000 A 
ATOM     30  C   UNL     1      -3.794  13.480  23.146  0.00  0.00    +0.000 A 
ATOM     31  S   UNL     1      -2.735  14.696  22.582  0.00  0.00    +0.000 S 
ENDBRANCH  26  27
ENDBRANCH  25  26
ENDBRANCH  20  21
BRANCH  20  33
ATOM     32  C   UNL     1      -2.593  11.670  18.266  0.00  0.00    +0.000 C 
ATOM     33  C   UNL     1      -1.932  12.228  19.520  0.00  0.00    +0.000 C 
ENDBRANCH  20  33
ENDBRANCH   1  20
TORSDOF 7
ENDMDL
MODEL 5
REMARK VINA RESULT:      -7.3      4.630     10.003
REMARK  Name = 
REMARK  9 active torsions:
REMARK  status: ('A' for Active; 'I' for Inactive)
REMARK    1  A    between atoms: C_1  and  C_2
REMARK    2  A    between atoms: C_2  and  C_3
REMARK    3  A    between atoms: C_3  and  C_4
REMARK    4  A    between atoms: C_3  and  N_15
REMARK    5  A    between atoms: N_8  and  C_9
REMARK    6  A    between atoms: C_9  and  C_10
REMARK    7  A    between atoms: C_25  and  C_26
REMARK    8  A    between atoms: C_26  and  O_28
REMARK    9  A    between atoms: O_28  and  C_29
REMARK                            x       y       z     vdW  Elec       q    Type
REMARK                         _______ _______ _______ _____ _____    ______ ____
ROOT
ATOM      1  N   UNL     1       2.982   6.517  19.526  0.00  0.00    +0.000 NA
ATOM      2  C   UNL     1       3.149   7.493  18.428  0.00  0.00    +0.000 C 
ATOM      3  C   UNL     1       1.916   8.341  18.087  0.00  0.00    +0.000 C 
ATOM      4  N   UNL     1       1.307   8.915  19.288  0.00  0.00    +0.000 N 
ATOM      5  C   UNL     1       1.073  10.247  19.315  0.00  0.00    +0.000 A 
ATOM      6  N   UNL     1       1.738  11.109  18.586  0.00  0.00    +0.000 NA
ATOM      7  C   UNL     1       1.301  12.393  18.825  0.00  0.00    +0.000 A 
ATOM      8  C   UNL     1       1.816  13.554  18.220  0.00  0.00    +0.000 A 
ATOM      9  C   UNL     1       1.250  14.799  18.522  0.00  0.00    +0.000 A 
ATOM     10  C   UNL     1       0.214  14.900  19.444  0.00  0.00    +0.000 A 
ATOM     11  C   UNL     1      -0.278  13.757  20.092  0.00  0.00    +0.000 A 
ATOM     12  C   UNL     1       0.264  12.506  19.748  0.00  0.00    +0.000 A 
ATOM     13  S   UNL     1      -0.169  10.931  20.277  0.00  0.00    +0.000 S 
ATOM     14  C   UNL     1       1.212   8.110  20.506  0.00  0.00    +0.000 C 
ATOM     15  C   UNL     1       2.455   7.221  20.711  0.00  0.00    +0.000 C 
ENDROOT
BRANCH  11  16
ATOM     16  C   UNL     1      -1.301  13.826  21.155  0.00  0.00    +0.000 C 
ATOM     17  O   UNL     1      -2.499  13.714  20.935  0.00  0.00    +0.000 OA
BRANCH  16  18
ATOM     18  O   UNL     1      -0.725  14.112  22.344  0.00  0.00    +0.000 OA
ATOM     19  C   UNL     1      -1.484  13.645  23.470  0.00  0.00    +0.000 C 
ENDBRANCH  16  18
ENDBRANCH  11  16
BRANCH   1  20
ATOM     20  C   UNL     1       2.275   5.263  19.182  0.00  0.00    +0.000 C 
BRANCH  20  21
ATOM     21  C   UNL     1       3.097   4.091  19.663  0.00  0.00    +0.000 A 
ATOM     22  N   UNL     1       2.890   3.367  20.747  0.00  0.00    +0.000 NA
ATOM     23  N   UNL     1       3.849   2.395  20.759  0.00  0.00    +0.000 NA
ATOM     24  N   UNL     1       4.631   2.486  19.696  0.00  0.00    +0.000 NA
ATOM     25  N   UNL     1       4.173   3.554  19.007  0.00  0.00    +0.000 N 
BRANCH  25  26
ATOM     26  C   UNL     1       4.787   3.920  17.746  0.00  0.00    +0.000 C 
BRANCH  26  27
ATOM     27  C   UNL     1       5.906   4.893  17.971  0.00  0.00    +0.000 A 
ATOM     28  C   UNL     1       6.649   5.094  19.120  0.00  0.00    +0.000 A 
ATOM     29  C   UNL     1       7.567   6.175  18.990  0.00  0.00    +0.000 A 
ATOM     30  C   UNL     1       7.526   6.737  17.734  0.00  0.00    +0.000 A 
ATOM     31  S   UNL     1       6.407   5.947  16.714  0.00  0.00    +0.000 S 
ENDBRANCH  26  27
ENDBRANCH  25  26
ENDBRANCH  20  21
BRANCH  20  33
ATOM     32  C   UNL     1       1.106   3.757  17.440  0.00  0.00    +0.000 C 
ATOM     33  C   UNL     1       1.863   5.054  17.702  0.00  0.00    +0.000 C 
ENDBRANCH  20  33
ENDBRANCH   1  20
TORSDOF 7
ENDMDL
MODEL 6
REMARK VINA RESULT:      -7.3      2.225      2.911
REMARK  Name = 
REMARK  9 active torsions:
REMARK  status: ('A' for Active; 'I' for Inactive)
REMARK    1  A    between atoms: C_1  and  C_2
REMARK    2  A    between atoms: C_2  and  C_3
REMARK    3  A    between atoms: C_3  and  C_4
REMARK    4  A    between atoms: C_3  and  N_15
REMARK    5  A    between atoms: N_8  and  C_9
REMARK    6  A    between atoms: C_9  and  C_10
REMARK    7  A    between atoms: C_25  and  C_26
REMARK    8  A    between atoms: C_26  and  O_28
REMARK    9  A    between atoms: O_28  and  C_29
REMARK                            x       y       z     vdW  Elec       q    Type
REMARK                         _______ _______ _______ _____ _____    ______ ____
ROOT
ATOM      1  N   UNL     1      -0.039  10.475  22.470  0.00  0.00    +0.000 NA
ATOM      2  C   UNL     1      -0.409   9.066  22.724  0.00  0.00    +0.000 C 
ATOM      3  C   UNL     1      -0.408   8.139  21.502  0.00  0.00    +0.000 C 
ATOM      4  N   UNL     1       0.816   8.285  20.714  0.00  0.00    +0.000 N 
ATOM      5  C   UNL     1       1.519   7.170  20.407  0.00  0.00    +0.000 A 
ATOM      6  N   UNL     1       1.464   6.068  21.114  0.00  0.00    +0.000 NA
ATOM      7  C   UNL     1       2.290   5.103  20.582  0.00  0.00    +0.000 A 
ATOM      8  C   UNL     1       2.477   3.812  21.107  0.00  0.00    +0.000 A 
ATOM      9  C   UNL     1       3.317   2.910  20.441  0.00  0.00    +0.000 A 
ATOM     10  C   UNL     1       3.998   3.295  19.292  0.00  0.00    +0.000 A 
ATOM     11  C   UNL     1       3.859   4.595  18.783  0.00  0.00    +0.000 A 
ATOM     12  C   UNL     1       2.978   5.478  19.430  0.00  0.00    +0.000 A 
ATOM     13  S   UNL     1       2.518   7.080  19.017  0.00  0.00    +0.000 S 
ATOM     14  C   UNL     1       1.388   9.616  20.506  0.00  0.00    +0.000 C 
ATOM     15  C   UNL     1       1.254  10.505  21.758  0.00  0.00    +0.000 C 
ENDROOT
BRANCH  11  16
ATOM     16  C   UNL     1       4.643   5.083  17.629  0.00  0.00    +0.000 C 
ATOM     17  O   UNL     1       4.455   4.695  16.485  0.00  0.00    +0.000 OA
BRANCH  16  18
ATOM     18  O   UNL     1       5.619   5.921  18.045  0.00  0.00    +0.000 OA
ATOM     19  C   UNL     1       6.901   5.285  18.161  0.00  0.00    +0.000 C 
ENDBRANCH  16  18
ENDBRANCH  11  16
BRANCH   1  20
ATOM     20  C   UNL     1      -1.093  11.330  21.881  0.00  0.00    +0.000 C 
BRANCH  20  21
ATOM     21  C   UNL     1      -0.522  12.054  20.684  0.00  0.00    +0.000 A 
ATOM     22  N   UNL     1       0.253  13.122  20.698  0.00  0.00    +0.000 NA
ATOM     23  N   UNL     1       0.559  13.401  19.396  0.00  0.00    +0.000 NA
ATOM     24  N   UNL     1       0.010  12.517  18.579  0.00  0.00    +0.000 NA
ATOM     25  N   UNL     1      -0.679  11.673  19.378  0.00  0.00    +0.000 N 
BRANCH  25  26
ATOM     26  C   UNL     1      -1.379  10.542  18.804  0.00  0.00    +0.000 C 
BRANCH  26  27
ATOM     27  C   UNL     1      -2.604  11.001  18.069  0.00  0.00    +0.000 A 
ATOM     28  C   UNL     1      -3.732  11.614  18.584  0.00  0.00    +0.000 A 
ATOM     29  C   UNL     1      -4.735  11.819  17.595  0.00  0.00    +0.000 A 
ATOM     30  C   UNL     1      -4.327  11.395  16.351  0.00  0.00    +0.000 A 
ATOM     31  S   UNL     1      -2.734  10.780  16.374  0.00  0.00    +0.000 S 
ENDBRANCH  26  27
ENDBRANCH  25  26
ENDBRANCH  20  21
BRANCH  20  33
ATOM     32  C   UNL     1      -3.271  12.588  22.466  0.00  0.00    +0.000 C 
ATOM     33  C   UNL     1      -1.810  12.335  22.819  0.00  0.00    +0.000 C 
ENDBRANCH  20  33
ENDBRANCH   1  20
TORSDOF 7
ENDMDL
MODEL 7
REMARK VINA RESULT:      -7.3      2.039      2.936
REMARK  Name = 
REMARK  9 active torsions:
REMARK  status: ('A' for Active; 'I' for Inactive)
REMARK    1  A    between atoms: C_1  and  C_2
REMARK    2  A    between atoms: C_2  and  C_3
REMARK    3  A    between atoms: C_3  and  C_4
REMARK    4  A    between atoms: C_3  and  N_15
REMARK    5  A    between atoms: N_8  and  C_9
REMARK    6  A    between atoms: C_9  and  C_10
REMARK    7  A    between atoms: C_25  and  C_26
REMARK    8  A    between atoms: C_26  and  O_28
REMARK    9  A    between atoms: O_28  and  C_29
REMARK                            x       y       z     vdW  Elec       q    Type
REMARK                         _______ _______ _______ _____ _____    ______ ____
ROOT
ATOM      1  N   UNL     1      -1.091  12.148  19.605  0.00  0.00    +0.000 NA
ATOM      2  C   UNL     1       0.156  12.107  18.812  0.00  0.00    +0.000 C 
ATOM      3  C   UNL     1       1.320  11.319  19.428  0.00  0.00    +0.000 C 
ATOM      4  N   UNL     1       0.890  10.004  19.903  0.00  0.00    +0.000 N 
ATOM      5  C   UNL     1       1.581   8.915  19.492  0.00  0.00    +0.000 A 
ATOM      6  N   UNL     1       2.282   8.883  18.386  0.00  0.00    +0.000 NA
ATOM      7  C   UNL     1       2.866   7.649  18.211  0.00  0.00    +0.000 A 
ATOM      8  C   UNL     1       3.669   7.275  17.119  0.00  0.00    +0.000 A 
ATOM      9  C   UNL     1       4.239   5.997  17.085  0.00  0.00    +0.000 A 
ATOM     10  C   UNL     1       3.983   5.082  18.101  0.00  0.00    +0.000 A 
ATOM     11  C   UNL     1       3.145   5.423  19.173  0.00  0.00    +0.000 A 
ATOM     12  C   UNL     1       2.616   6.724  19.222  0.00  0.00    +0.000 A 
ATOM     13  S   UNL     1       1.648   7.478  20.423  0.00  0.00    +0.000 S 
ATOM     14  C   UNL     1      -0.403   9.864  20.576  0.00  0.00    +0.000 C 
ATOM     15  C   UNL     1      -1.482  10.767  19.946  0.00  0.00    +0.000 C 
ENDROOT
BRANCH  11  16
ATOM     16  C   UNL     1       2.759   4.452  20.217  0.00  0.00    +0.000 C 
ATOM     17  O   UNL     1       2.295   4.787  21.298  0.00  0.00    +0.000 OA
BRANCH  16  18
ATOM     18  O   UNL     1       3.075   3.196  19.832  0.00  0.00    +0.000 OA
ATOM     19  C   UNL     1       1.935   2.328  19.736  0.00  0.00    +0.000 C 
ENDBRANCH  16  18
ENDBRANCH  11  16
BRANCH   1  20
ATOM     20  C   UNL     1      -1.112  13.098  20.740  0.00  0.00    +0.000 C 
BRANCH  20  21
ATOM     21  C   UNL     1      -2.201  12.685  21.702  0.00  0.00    +0.000 A 
ATOM     22  N   UNL     1      -2.043  12.152  22.899  0.00  0.00    +0.000 NA
ATOM     23  N   UNL     1      -3.293  11.984  23.422  0.00  0.00    +0.000 NA
ATOM     24  N   UNL     1      -4.220  12.423  22.586  0.00  0.00    +0.000 NA
ATOM     25  N   UNL     1      -3.545  12.855  21.499  0.00  0.00    +0.000 N 
BRANCH  25  26
ATOM     26  C   UNL     1      -4.263  13.446  20.388  0.00  0.00    +0.000 C 
BRANCH  26  27
ATOM     27  C   UNL     1      -5.272  12.480  19.842  0.00  0.00    +0.000 A 
ATOM     28  C   UNL     1      -6.528  12.183  20.339  0.00  0.00    +0.000 A 
ATOM     29  C   UNL     1      -7.167  11.140  19.608  0.00  0.00    +0.000 A 
ATOM     30  C   UNL     1      -6.397  10.704  18.554  0.00  0.00    +0.000 A 
ATOM     31  S   UNL     1      -4.928  11.568  18.433  0.00  0.00    +0.000 S 
ENDBRANCH  26  27
ENDBRANCH  25  26
ENDBRANCH  20  21
BRANCH  20  33
ATOM     32  C   UNL     1       0.021  15.418  20.705  0.00  0.00    +0.000 C 
ATOM     33  C   UNL     1      -1.236  14.607  20.410  0.00  0.00    +0.000 C 
ENDBRANCH  20  33
ENDBRANCH   1  20
TORSDOF 7
ENDMDL
MODEL 8
REMARK VINA RESULT:      -7.2      3.064      4.197
REMARK  Name = 
REMARK  9 active torsions:
REMARK  status: ('A' for Active; 'I' for Inactive)
REMARK    1  A    between atoms: C_1  and  C_2
REMARK    2  A    between atoms: C_2  and  C_3
REMARK    3  A    between atoms: C_3  and  C_4
REMARK    4  A    between atoms: C_3  and  N_15
REMARK    5  A    between atoms: N_8  and  C_9
REMARK    6  A    between atoms: C_9  and  C_10
REMARK    7  A    between atoms: C_25  and  C_26
REMARK    8  A    between atoms: C_26  and  O_28
REMARK    9  A    between atoms: O_28  and  C_29
REMARK                            x       y       z     vdW  Elec       q    Type
REMARK                         _______ _______ _______ _____ _____    ______ ____
ROOT
ATOM      1  N   UNL     1       0.066  12.123  20.268  0.00  0.00    +0.000 NA
ATOM      2  C   UNL     1      -0.380  10.804  20.766  0.00  0.00    +0.000 C 
ATOM      3  C   UNL     1      -0.286   9.641  19.769  0.00  0.00    +0.000 C 
ATOM      4  N   UNL     1       1.018   9.601  19.107  0.00  0.00    +0.000 N 
ATOM      5  C   UNL     1       1.708   8.437  19.116  0.00  0.00    +0.000 A 
ATOM      6  N   UNL     1       1.539   7.508  20.025  0.00  0.00    +0.000 NA
ATOM      7  C   UNL     1       2.380   6.442  19.798  0.00  0.00    +0.000 A 
ATOM      8  C   UNL     1       2.465   5.287  20.596  0.00  0.00    +0.000 A 
ATOM      9  C   UNL     1       3.335   4.254  20.227  0.00  0.00    +0.000 A 
ATOM     10  C   UNL     1       4.146   4.381  19.105  0.00  0.00    +0.000 A 
ATOM     11  C   UNL     1       4.109   5.547  18.326  0.00  0.00    +0.000 A 
ATOM     12  C   UNL     1       3.198   6.558  18.676  0.00  0.00    +0.000 A 
ATOM     13  S   UNL     1       2.841   8.044  17.893  0.00  0.00    +0.000 S 
ATOM     14  C   UNL     1       1.657  10.851  18.692  0.00  0.00    +0.000 C 
ATOM     15  C   UNL     1       1.425  11.985  19.711  0.00  0.00    +0.000 C 
ENDROOT
BRANCH  11  16
ATOM     16  C   UNL     1       5.025   5.771  17.189  0.00  0.00    +0.000 C 
ATOM     17  O   UNL     1       4.700   5.587  16.025  0.00  0.00    +0.000 OA
BRANCH  16  18
ATOM     18  O   UNL     1       6.256   6.108  17.636  0.00  0.00    +0.000 OA
ATOM     19  C   UNL     1       7.257   5.123  17.340  0.00  0.00    +0.000 C 
ENDBRANCH  16  18
ENDBRANCH  11  16
BRANCH   1  20
ATOM     20  C   UNL     1      -0.889  12.850  19.403  0.00  0.00    +0.000 C 
BRANCH  20  21
ATOM     21  C   UNL     1      -1.312  14.120  20.103  0.00  0.00    +0.000 A 
ATOM     22  N   UNL     1      -2.405  14.304  20.821  0.00  0.00    +0.000 NA
ATOM     23  N   UNL     1      -2.352  15.585  21.293  0.00  0.00    +0.000 NA
ATOM     24  N   UNL     1      -1.242  16.189  20.903  0.00  0.00    +0.000 NA
ATOM     25  N   UNL     1      -0.588  15.281  20.146  0.00  0.00    +0.000 N 
BRANCH  25  26
ATOM     26  C   UNL     1       0.707  15.605  19.583  0.00  0.00    +0.000 C 
BRANCH  26  27
ATOM     27  C   UNL     1       0.574  16.679  18.545  0.00  0.00    +0.000 A 
ATOM     28  C   UNL     1      -0.584  17.191  17.986  0.00  0.00    +0.000 A 
ATOM     29  C   UNL     1      -0.315  18.138  16.957  0.00  0.00    +0.000 A 
ATOM     30  C   UNL     1       1.034  18.350  16.791  0.00  0.00    +0.000 A 
ATOM     31  S   UNL     1       1.967  17.432  17.889  0.00  0.00    +0.000 S 
ENDBRANCH  26  27
ENDBRANCH  25  26
ENDBRANCH  20  21
BRANCH  20  33
ATOM     32  C   UNL     1      -2.089  11.703  17.424  0.00  0.00    +0.000 C 
ATOM     33  C   UNL     1      -2.136  12.078  18.901  0.00  0.00    +0.000 C 
ENDBRANCH  20  33
ENDBRANCH   1  20
TORSDOF 7
ENDMDL
MODEL 9
REMARK VINA RESULT:      -7.2      1.910      2.488
REMARK  Name = 
REMARK  9 active torsions:
REMARK  status: ('A' for Active; 'I' for Inactive)
REMARK    1  A    between atoms: C_1  and  C_2
REMARK    2  A    between atoms: C_2  and  C_3
REMARK    3  A    between atoms: C_3  and  C_4
REMARK    4  A    between atoms: C_3  and  N_15
REMARK    5  A    between atoms: N_8  and  C_9
REMARK    6  A    between atoms: C_9  and  C_10
REMARK    7  A    between atoms: C_25  and  C_26
REMARK    8  A    between atoms: C_26  and  O_28
REMARK    9  A    between atoms: O_28  and  C_29
REMARK                            x       y       z     vdW  Elec       q    Type
REMARK                         _______ _______ _______ _____ _____    ______ ____
ROOT
ATOM      1  N   UNL     1       0.351  11.847  20.085  0.00  0.00    +0.000 NA
ATOM      2  C   UNL     1       0.070  10.493  20.608  0.00  0.00    +0.000 C 
ATOM      3  C   UNL     1       0.131   9.350  19.585  0.00  0.00    +0.000 C 
ATOM      4  N   UNL     1       1.345   9.418  18.772  0.00  0.00    +0.000 N 
ATOM      5  C   UNL     1       2.118   8.311  18.677  0.00  0.00    +0.000 A 
ATOM      6  N   UNL     1       2.130   7.364  19.582  0.00  0.00    +0.000 NA
ATOM      7  C   UNL     1       3.016   6.368  19.236  0.00  0.00    +0.000 A 
ATOM      8  C   UNL     1       3.283   5.216  19.996  0.00  0.00    +0.000 A 
ATOM      9  C   UNL     1       4.179   4.257  19.507  0.00  0.00    +0.000 A 
ATOM     10  C   UNL     1       4.837   4.456  18.298  0.00  0.00    +0.000 A 
ATOM     11  C   UNL     1       4.618   5.623  17.551  0.00  0.00    +0.000 A 
ATOM     12  C   UNL     1       3.682   6.557  18.027  0.00  0.00    +0.000 A 
ATOM     13  S   UNL     1       3.122   8.019  17.320  0.00  0.00    +0.000 S 
ATOM     14  C   UNL     1       1.833  10.718  18.307  0.00  0.00    +0.000 C 
ATOM     15  C   UNL     1       1.640  11.820  19.368  0.00  0.00    +0.000 C 
ENDROOT
BRANCH  11  16
ATOM     16  C   UNL     1       5.371   5.929  16.318  0.00  0.00    +0.000 C 
ATOM     17  O   UNL     1       6.115   6.894  16.214  0.00  0.00    +0.000 OA
BRANCH  16  18
ATOM     18  O   UNL     1       5.045   5.056  15.339  0.00  0.00    +0.000 OA
ATOM     19  C   UNL     1       6.181   4.583  14.598  0.00  0.00    +0.000 C 
ENDBRANCH  16  18
ENDBRANCH  11  16
BRANCH   1  20
ATOM     20  C   UNL     1      -0.753  12.507  19.354  0.00  0.00    +0.000 C 
BRANCH  20  21
ATOM     21  C   UNL     1      -1.185  13.733  20.124  0.00  0.00    +0.000 A 
ATOM     22  N   UNL     1      -1.079  14.991  19.737  0.00  0.00    +0.000 NA
ATOM     23  N   UNL     1      -1.633  15.752  20.726  0.00  0.00    +0.000 NA
ATOM     24  N   UNL     1      -2.100  14.994  21.704  0.00  0.00    +0.000 NA
ATOM     25  N   UNL     1      -1.814  13.725  21.340  0.00  0.00    +0.000 N 
BRANCH  25  26
ATOM     26  C   UNL     1      -2.229  12.619  22.179  0.00  0.00    +0.000 C 
BRANCH  26  27
ATOM     27  C   UNL     1      -3.650  12.804  22.625  0.00  0.00    +0.000 A 
ATOM     28  C   UNL     1      -4.135  12.914  23.915  0.00  0.00    +0.000 A 
ATOM     29  C   UNL     1      -5.557  12.984  23.955  0.00  0.00    +0.000 A 
ATOM     30  C   UNL     1      -6.109  12.968  22.695  0.00  0.00    +0.000 A 
ATOM     31  S   UNL     1      -4.916  12.895  21.473  0.00  0.00    +0.000 S 
ENDBRANCH  26  27
ENDBRANCH  25  26
ENDBRANCH  20  21
BRANCH  20  33
ATOM     32  C   UNL     1      -2.229  11.496  17.492  0.00  0.00    +0.000 C 
ATOM     33  C   UNL     1      -1.989  11.645  18.989  0.00  0.00    +0.000 C 
ENDBRANCH  20  33
ENDBRANCH   1  20
TORSDOF 7
ENDMDL
