MODEL 1
REMARK VINA RESULT:      -8.2      0.000      0.000
REMARK  Name = 
REMARK  6 active torsions:
REMARK  status: ('A' for Active; 'I' for Inactive)
REMARK    1  A    between atoms: C_1  and  O_2
REMARK    2  A    between atoms: O_2  and  C_3
REMARK    3  A    between atoms: C_6  and  S_7
REMARK    4  A    between atoms: S_7  and  N_10
REMARK    5  A    between atoms: C_13  and  C_14
REMARK    6  A    between atoms: C_29  and  C_30
REMARK                            x       y       z     vdW  Elec       q    Type
REMARK                         _______ _______ _______ _____ _____    ______ ____
ROOT
ATOM      1  N   UNL     1      -0.645  10.890  21.402  0.00  0.00    +0.000 NA
ATOM      2  C   UNL     1      -1.116   9.656  20.735  0.00  0.00    +0.000 C 
ATOM      3  C   UNL     1      -0.468   8.428  21.367  0.00  0.00    +0.000 C 
ATOM      4  C   UNL     1       1.061   8.509  21.318  0.00  0.00    +0.000 C 
ATOM      5  C   UNL     1       1.511   9.797  22.011  0.00  0.00    +0.000 C 
ATOM      6  C   UNL     1       0.830  11.047  21.473  0.00  0.00    +0.000 C 
ENDROOT
BRANCH   4   7
ATOM      7  C   UNL     1       1.605   8.388  19.880  0.00  0.00    +0.000 C 
ATOM      8  O   UNL     1       1.553   9.343  19.104  0.00  0.00    +0.000 OA
ATOM      9  N   UNL     1       2.116   7.165  19.474  0.00  0.00    +0.000 N 
ATOM     10  C   UNL     1       2.701   7.047  18.125  0.00  0.00    +0.000 C 
ATOM     11  C   UNL     1       3.475   5.731  17.861  0.00  0.00    +0.000 C 
ATOM     12  C   UNL     1       2.683   4.545  18.356  0.00  0.00    +0.000 A 
ATOM     13  C   UNL     1       2.711   3.290  17.753  0.00  0.00    +0.000 A 
ATOM     14  C   UNL     1       1.843   2.290  18.201  0.00  0.00    +0.000 A 
ATOM     15  C   UNL     1       0.927   2.554  19.221  0.00  0.00    +0.000 A 
ATOM     16  C   UNL     1       0.960   3.776  19.883  0.00  0.00    +0.000 A 
ATOM     17  C   UNL     1       1.892   4.739  19.499  0.00  0.00    +0.000 A 
ATOM     18  C   UNL     1       2.143   5.975  20.306  0.00  0.00    +0.000 C 
ENDBRANCH   4   7
BRANCH   1  19
ATOM     19  S   UNL     1      -1.485  12.322  20.973  0.00  0.00    +0.000 S 
ATOM     20  O   UNL     1      -0.498  13.370  20.781  0.00  0.00    +0.000 OA
ATOM     21  O   UNL     1      -2.593  12.502  21.881  0.00  0.00    +0.000 OA
BRANCH  19  25
ATOM     22  C   UNL     1      -3.262  11.220  16.888  0.00  0.00    +0.000 A 
ATOM     23  C   UNL     1      -1.880  11.339  17.050  0.00  0.00    +0.000 A 
ATOM     24  C   UNL     1      -1.327  11.687  18.286  0.00  0.00    +0.000 A 
ATOM     25  C   UNL     1      -2.171  11.955  19.361  0.00  0.00    +0.000 A 
ATOM     26  C   UNL     1      -3.559  11.858  19.208  0.00  0.00    +0.000 A 
ATOM     27  C   UNL     1      -4.117  11.492  17.972  0.00  0.00    +0.000 A 
ATOM     28  C   UNL     1      -5.613  11.419  17.825  0.00  0.00    +0.000 C 
BRANCH  22  30
ATOM     29  C   UNL     1      -3.024  10.139  14.801  0.00  0.00    +0.000 C 
ATOM     30  O   UNL     1      -3.862  10.850  15.711  0.00  0.00    +0.000 OA
ENDBRANCH  22  30
ENDBRANCH  19  25
ENDBRANCH   1  19
TORSDOF 4
ENDMDL
MODEL 2
REMARK VINA RESULT:      -7.8      2.116      3.324
REMARK  Name = 
REMARK  6 active torsions:
REMARK  status: ('A' for Active; 'I' for Inactive)
REMARK    1  A    between atoms: C_1  and  O_2
REMARK    2  A    between atoms: O_2  and  C_3
REMARK    3  A    between atoms: C_6  and  S_7
REMARK    4  A    between atoms: S_7  and  N_10
REMARK    5  A    between atoms: C_13  and  C_14
REMARK    6  A    between atoms: C_29  and  C_30
REMARK                            x       y       z     vdW  Elec       q    Type
REMARK                         _______ _______ _______ _____ _____    ______ ____
ROOT
ATOM      1  N   UNL     1      -0.610  11.312  20.469  0.00  0.00    +0.000 NA
ATOM      2  C   UNL     1      -1.043   9.964  20.037  0.00  0.00    +0.000 C 
ATOM      3  C   UNL     1      -0.382   8.891  20.896  0.00  0.00    +0.000 C 
ATOM      4  C   UNL     1       1.145   8.997  20.857  0.00  0.00    +0.000 C 
ATOM      5  C   UNL     1       1.556  10.402  21.304  0.00  0.00    +0.000 C 
ATOM      6  C   UNL     1       0.860  11.513  20.532  0.00  0.00    +0.000 C 
ENDROOT
BRANCH   4   7
ATOM      7  C   UNL     1       1.719   8.623  19.475  0.00  0.00    +0.000 C 
ATOM      8  O   UNL     1       1.716   9.436  18.550  0.00  0.00    +0.000 OA
ATOM      9  N   UNL     1       2.200   7.336  19.292  0.00  0.00    +0.000 N 
ATOM     10  C   UNL     1       2.813   6.979  17.999  0.00  0.00    +0.000 C 
ATOM     11  C   UNL     1       3.551   5.616  17.979  0.00  0.00    +0.000 C 
ATOM     12  C   UNL     1       2.710   4.552  18.641  0.00  0.00    +0.000 A 
ATOM     13  C   UNL     1       2.713   3.213  18.256  0.00  0.00    +0.000 A 
ATOM     14  C   UNL     1       1.803   2.326  18.838  0.00  0.00    +0.000 A 
ATOM     15  C   UNL     1       0.872   2.782  19.774  0.00  0.00    +0.000 A 
ATOM     16  C   UNL     1       0.928   4.096  20.224  0.00  0.00    +0.000 A 
ATOM     17  C   UNL     1       1.898   4.955  19.713  0.00  0.00    +0.000 A 
ATOM     18  C   UNL     1       2.169   6.301  20.311  0.00  0.00    +0.000 C 
ENDBRANCH   4   7
BRANCH   1  19
ATOM     19  S   UNL     1      -1.470  12.619  19.768  0.00  0.00    +0.000 S 
ATOM     20  O   UNL     1      -1.820  12.237  18.411  0.00  0.00    +0.000 OA
ATOM     21  O   UNL     1      -0.754  13.845  20.033  0.00  0.00    +0.000 OA
BRANCH  19  25
ATOM     22  C   UNL     1      -5.376  12.611  22.176  0.00  0.00    +0.000 A 
ATOM     23  C   UNL     1      -5.405  12.644  20.781  0.00  0.00    +0.000 A 
ATOM     24  C   UNL     1      -4.221  12.659  20.036  0.00  0.00    +0.000 A 
ATOM     25  C   UNL     1      -2.997  12.681  20.699  0.00  0.00    +0.000 A 
ATOM     26  C   UNL     1      -2.953  12.668  22.098  0.00  0.00    +0.000 A 
ATOM     27  C   UNL     1      -4.139  12.635  22.849  0.00  0.00    +0.000 A 
ATOM     28  C   UNL     1      -4.067  12.646  24.352  0.00  0.00    +0.000 C 
BRANCH  22  30
ATOM     29  C   UNL     1      -7.732  12.750  22.267  0.00  0.00    +0.000 C 
ATOM     30  O   UNL     1      -6.500  12.561  22.961  0.00  0.00    +0.000 OA
ENDBRANCH  22  30
ENDBRANCH  19  25
ENDBRANCH   1  19
TORSDOF 4
ENDMDL
MODEL 3
REMARK VINA RESULT:      -7.8      2.312      3.309
REMARK  Name = 
REMARK  6 active torsions:
REMARK  status: ('A' for Active; 'I' for Inactive)
REMARK    1  A    between atoms: C_1  and  O_2
REMARK    2  A    between atoms: O_2  and  C_3
REMARK    3  A    between atoms: C_6  and  S_7
REMARK    4  A    between atoms: S_7  and  N_10
REMARK    5  A    between atoms: C_13  and  C_14
REMARK    6  A    between atoms: C_29  and  C_30
REMARK                            x       y       z     vdW  Elec       q    Type
REMARK                         _______ _______ _______ _____ _____    ______ ____
ROOT
ATOM      1  N   UNL     1      -0.106  10.919  21.520  0.00  0.00    +0.000 NA
ATOM      2  C   UNL     1      -0.752   9.954  20.602  0.00  0.00    +0.000 C 
ATOM      3  C   UNL     1      -0.522   8.525  21.083  0.00  0.00    +0.000 C 
ATOM      4  C   UNL     1       0.970   8.209  21.222  0.00  0.00    +0.000 C 
ATOM      5  C   UNL     1       1.605   9.227  22.173  0.00  0.00    +0.000 C 
ATOM      6  C   UNL     1       1.334  10.673  21.784  0.00  0.00    +0.000 C 
ENDROOT
BRANCH   4   7
ATOM      7  C   UNL     1       1.682   8.149  19.855  0.00  0.00    +0.000 C 
ATOM      8  O   UNL     1       1.719   9.136  19.120  0.00  0.00    +0.000 OA
ATOM      9  N   UNL     1       2.243   6.944  19.462  0.00  0.00    +0.000 N 
ATOM     10  C   UNL     1       2.986   6.883  18.189  0.00  0.00    +0.000 C 
ATOM     11  C   UNL     1       3.792   5.579  17.964  0.00  0.00    +0.000 C 
ATOM     12  C   UNL     1       2.952   4.373  18.310  0.00  0.00    +0.000 A 
ATOM     13  C   UNL     1       3.058   3.145  17.662  0.00  0.00    +0.000 A 
ATOM     14  C   UNL     1       2.147   2.128  17.961  0.00  0.00    +0.000 A 
ATOM     15  C   UNL     1       1.114   2.349  18.874  0.00  0.00    +0.000 A 
ATOM     16  C   UNL     1       1.062   3.542  19.586  0.00  0.00    +0.000 A 
ATOM     17  C   UNL     1       2.029   4.519  19.358  0.00  0.00    +0.000 A 
ATOM     18  C   UNL     1       2.176   5.720  20.241  0.00  0.00    +0.000 C 
ENDBRANCH   4   7
BRANCH   1  19
ATOM     19  S   UNL     1      -0.501  12.565  21.251  0.00  0.00    +0.000 S 
ATOM     20  O   UNL     1      -0.477  12.794  19.818  0.00  0.00    +0.000 OA
ATOM     21  O   UNL     1       0.280  13.385  22.147  0.00  0.00    +0.000 OA
BRANCH  19  25
ATOM     22  C   UNL     1      -4.862  13.053  22.593  0.00  0.00    +0.000 A 
ATOM     23  C   UNL     1      -3.887  12.631  23.498  0.00  0.00    +0.000 A 
ATOM     24  C   UNL     1      -2.556  12.466  23.098  0.00  0.00    +0.000 A 
ATOM     25  C   UNL     1      -2.210  12.690  21.768  0.00  0.00    +0.000 A 
ATOM     26  C   UNL     1      -3.182  13.096  20.846  0.00  0.00    +0.000 A 
ATOM     27  C   UNL     1      -4.515  13.279  21.248  0.00  0.00    +0.000 A 
ATOM     28  C   UNL     1      -5.547  13.691  20.233  0.00  0.00    +0.000 C 
BRANCH  22  30
ATOM     29  C   UNL     1      -6.650  12.490  24.031  0.00  0.00    +0.000 C 
ATOM     30  O   UNL     1      -6.175  13.265  22.932  0.00  0.00    +0.000 OA
ENDBRANCH  22  30
ENDBRANCH  19  25
ENDBRANCH   1  19
TORSDOF 4
ENDMDL
MODEL 4
REMARK VINA RESULT:      -7.8      2.830      4.476
REMARK  Name = 
REMARK  6 active torsions:
REMARK  status: ('A' for Active; 'I' for Inactive)
REMARK    1  A    between atoms: C_1  and  O_2
REMARK    2  A    between atoms: O_2  and  C_3
REMARK    3  A    between atoms: C_6  and  S_7
REMARK    4  A    between atoms: S_7  and  N_10
REMARK    5  A    between atoms: C_13  and  C_14
REMARK    6  A    between atoms: C_29  and  C_30
REMARK                            x       y       z     vdW  Elec       q    Type
REMARK                         _______ _______ _______ _____ _____    ______ ____
ROOT
ATOM      1  N   UNL     1       0.525  11.747  20.247  0.00  0.00    +0.000 NA
ATOM      2  C   UNL     1       0.189  11.556  18.818  0.00  0.00    +0.000 C 
ATOM      3  C   UNL     1      -0.411  10.171  18.593  0.00  0.00    +0.000 C 
ATOM      4  C   UNL     1       0.532   9.062  19.071  0.00  0.00    +0.000 C 
ATOM      5  C   UNL     1       0.861   9.295  20.548  0.00  0.00    +0.000 C 
ATOM      6  C   UNL     1       1.385  10.692  20.841  0.00  0.00    +0.000 C 
ENDROOT
BRANCH   4   7
ATOM      7  C   UNL     1       1.794   8.953  18.192  0.00  0.00    +0.000 C 
ATOM      8  O   UNL     1       2.122   9.873  17.443  0.00  0.00    +0.000 OA
ATOM      9  N   UNL     1       2.526   7.777  18.242  0.00  0.00    +0.000 N 
ATOM     10  C   UNL     1       3.773   7.677  17.460  0.00  0.00    +0.000 C 
ATOM     11  C   UNL     1       4.649   6.439  17.781  0.00  0.00    +0.000 C 
ATOM     12  C   UNL     1       3.797   5.195  17.849  0.00  0.00    +0.000 A 
ATOM     13  C   UNL     1       4.243   3.931  17.470  0.00  0.00    +0.000 A 
ATOM     14  C   UNL     1       3.343   2.862  17.442  0.00  0.00    +0.000 A 
ATOM     15  C   UNL     1       1.997   3.063  17.756  0.00  0.00    +0.000 A 
ATOM     16  C   UNL     1       1.571   4.302  18.220  0.00  0.00    +0.000 A 
ATOM     17  C   UNL     1       2.490   5.342  18.340  0.00  0.00    +0.000 A 
ATOM     18  C   UNL     1       2.162   6.622  19.045  0.00  0.00    +0.000 C 
ENDBRANCH   4   7
BRANCH   1  19
ATOM     19  S   UNL     1       0.962  13.344  20.690  0.00  0.00    +0.000 S 
ATOM     20  O   UNL     1       0.627  14.216  19.578  0.00  0.00    +0.000 OA
ATOM     21  O   UNL     1       2.296  13.327  21.244  0.00  0.00    +0.000 OA
BRANCH  19  25
ATOM     22  C   UNL     1      -2.036  14.430  23.990  0.00  0.00    +0.000 A 
ATOM     23  C   UNL     1      -0.993  15.300  23.668  0.00  0.00    +0.000 A 
ATOM     24  C   UNL     1      -0.065  14.974  22.673  0.00  0.00    +0.000 A 
ATOM     25  C   UNL     1      -0.163  13.747  22.022  0.00  0.00    +0.000 A 
ATOM     26  C   UNL     1      -1.193  12.857  22.349  0.00  0.00    +0.000 A 
ATOM     27  C   UNL     1      -2.136  13.188  23.335  0.00  0.00    +0.000 A 
ATOM     28  C   UNL     1      -3.219  12.204  23.687  0.00  0.00    +0.000 C 
BRANCH  22  30
ATOM     29  C   UNL     1      -3.380  16.077  25.020  0.00  0.00    +0.000 C 
ATOM     30  O   UNL     1      -2.996  14.706  24.932  0.00  0.00    +0.000 OA
ENDBRANCH  22  30
ENDBRANCH  19  25
ENDBRANCH   1  19
TORSDOF 4
ENDMDL
MODEL 5
REMARK VINA RESULT:      -7.7      2.402      3.350
REMARK  Name = 
REMARK  6 active torsions:
REMARK  status: ('A' for Active; 'I' for Inactive)
REMARK    1  A    between atoms: C_1  and  O_2
REMARK    2  A    between atoms: O_2  and  C_3
REMARK    3  A    between atoms: C_6  and  S_7
REMARK    4  A    between atoms: S_7  and  N_10
REMARK    5  A    between atoms: C_13  and  C_14
REMARK    6  A    between atoms: C_29  and  C_30
REMARK                            x       y       z     vdW  Elec       q    Type
REMARK                         _______ _______ _______ _____ _____    ______ ____
ROOT
ATOM      1  N   UNL     1      -0.144  11.278  21.453  0.00  0.00    +0.000 NA
ATOM      2  C   UNL     1      -0.798  10.466  20.402  0.00  0.00    +0.000 C 
ATOM      3  C   UNL     1      -0.654   8.979  20.712  0.00  0.00    +0.000 C 
ATOM      4  C   UNL     1       0.815   8.573  20.861  0.00  0.00    +0.000 C 
ATOM      5  C   UNL     1       1.459   9.435  21.950  0.00  0.00    +0.000 C 
ATOM      6  C   UNL     1       1.271  10.929  21.732  0.00  0.00    +0.000 C 
ENDROOT
BRANCH   4   7
ATOM      7  C   UNL     1       1.577   8.643  19.522  0.00  0.00    +0.000 C 
ATOM      8  O   UNL     1       1.538   9.658  18.827  0.00  0.00    +0.000 OA
ATOM      9  N   UNL     1       2.273   7.518  19.106  0.00  0.00    +0.000 N 
ATOM     10  C   UNL     1       3.063   7.586  17.861  0.00  0.00    +0.000 C 
ATOM     11  C   UNL     1       4.006   6.381  17.619  0.00  0.00    +0.000 C 
ATOM     12  C   UNL     1       3.283   5.083  17.886  0.00  0.00    +0.000 A 
ATOM     13  C   UNL     1       3.538   3.900  17.197  0.00  0.00    +0.000 A 
ATOM     14  C   UNL     1       2.726   2.784  17.421  0.00  0.00    +0.000 A 
ATOM     15  C   UNL     1       1.645   2.860  18.301  0.00  0.00    +0.000 A 
ATOM     16  C   UNL     1       1.446   4.012  19.055  0.00  0.00    +0.000 A 
ATOM     17  C   UNL     1       2.314   5.091  18.902  0.00  0.00    +0.000 A 
ATOM     18  C   UNL     1       2.305   6.262  19.835  0.00  0.00    +0.000 C 
ENDBRANCH   4   7
BRANCH   1  19
ATOM     19  S   UNL     1      -0.452  12.963  21.375  0.00  0.00    +0.000 S 
ATOM     20  O   UNL     1      -0.299  13.374  19.990  0.00  0.00    +0.000 OA
ATOM     21  O   UNL     1       0.283  13.621  22.430  0.00  0.00    +0.000 OA
BRANCH  19  25
ATOM     22  C   UNL     1      -4.930  13.158  22.357  0.00  0.00    +0.000 A 
ATOM     23  C   UNL     1      -4.466  13.532  21.095  0.00  0.00    +0.000 A 
ATOM     24  C   UNL     1      -3.102  13.489  20.787  0.00  0.00    +0.000 A 
ATOM     25  C   UNL     1      -2.192  13.104  21.768  0.00  0.00    +0.000 A 
ATOM     26  C   UNL     1      -2.642  12.746  23.045  0.00  0.00    +0.000 A 
ATOM     27  C   UNL     1      -4.012  12.771  23.351  0.00  0.00    +0.000 A 
ATOM     28  C   UNL     1      -4.470  12.405  24.738  0.00  0.00    +0.000 C 
BRANCH  22  30
ATOM     29  C   UNL     1      -7.092  12.325  21.894  0.00  0.00    +0.000 C 
ATOM     30  O   UNL     1      -6.257  13.147  22.708  0.00  0.00    +0.000 OA
ENDBRANCH  22  30
ENDBRANCH  19  25
ENDBRANCH   1  19
TORSDOF 4
ENDMDL
MODEL 6
REMARK VINA RESULT:      -7.7      1.957      3.028
REMARK  Name = 
REMARK  6 active torsions:
REMARK  status: ('A' for Active; 'I' for Inactive)
REMARK    1  A    between atoms: C_1  and  O_2
REMARK    2  A    between atoms: O_2  and  C_3
REMARK    3  A    between atoms: C_6  and  S_7
REMARK    4  A    between atoms: S_7  and  N_10
REMARK    5  A    between atoms: C_13  and  C_14
REMARK    6  A    between atoms: C_29  and  C_30
REMARK                            x       y       z     vdW  Elec       q    Type
REMARK                         _______ _______ _______ _____ _____    ______ ____
ROOT
ATOM      1  N   UNL     1      -0.770  11.400  20.294  0.00  0.00    +0.000 NA
ATOM      2  C   UNL     1      -1.151  10.025  19.900  0.00  0.00    +0.000 C 
ATOM      3  C   UNL     1      -0.480   9.003  20.814  0.00  0.00    +0.000 C 
ATOM      4  C   UNL     1       1.044   9.156  20.808  0.00  0.00    +0.000 C 
ATOM      5  C   UNL     1       1.400  10.588  21.215  0.00  0.00    +0.000 C 
ATOM      6  C   UNL     1       0.690  11.649  20.387  0.00  0.00    +0.000 C 
ENDROOT
BRANCH   4   7
ATOM      7  C   UNL     1       1.664   8.753  19.454  0.00  0.00    +0.000 C 
ATOM      8  O   UNL     1       1.669   9.536  18.505  0.00  0.00    +0.000 OA
ATOM      9  N   UNL     1       2.180   7.473  19.327  0.00  0.00    +0.000 N 
ATOM     10  C   UNL     1       2.837   7.089  18.062  0.00  0.00    +0.000 C 
ATOM     11  C   UNL     1       3.606   5.745  18.106  0.00  0.00    +0.000 C 
ATOM     12  C   UNL     1       2.771   4.682  18.779  0.00  0.00    +0.000 A 
ATOM     13  C   UNL     1       2.816   3.332  18.437  0.00  0.00    +0.000 A 
ATOM     14  C   UNL     1       1.910   2.443  19.023  0.00  0.00    +0.000 A 
ATOM     15  C   UNL     1       0.943   2.905  19.918  0.00  0.00    +0.000 A 
ATOM     16  C   UNL     1       0.957   4.234  20.327  0.00  0.00    +0.000 A 
ATOM     17  C   UNL     1       1.921   5.100  19.815  0.00  0.00    +0.000 A 
ATOM     18  C   UNL     1       2.145   6.470  20.377  0.00  0.00    +0.000 C 
ENDBRANCH   4   7
BRANCH   1  19
ATOM     19  S   UNL     1      -1.652  12.654  19.526  0.00  0.00    +0.000 S 
ATOM     20  O   UNL     1      -1.822  12.281  18.134  0.00  0.00    +0.000 OA
ATOM     21  O   UNL     1      -1.068  13.924  19.889  0.00  0.00    +0.000 OA
BRANCH  19  25
ATOM     22  C   UNL     1      -5.833  12.604  21.416  0.00  0.00    +0.000 A 
ATOM     23  C   UNL     1      -4.711  12.906  22.189  0.00  0.00    +0.000 A 
ATOM     24  C   UNL     1      -3.430  12.911  21.628  0.00  0.00    +0.000 A 
ATOM     25  C   UNL     1      -3.270  12.574  20.286  0.00  0.00    +0.000 A 
ATOM     26  C   UNL     1      -4.385  12.251  19.504  0.00  0.00    +0.000 A 
ATOM     27  C   UNL     1      -5.674  12.261  20.060  0.00  0.00    +0.000 A 
ATOM     28  C   UNL     1      -6.855  11.885  19.205  0.00  0.00    +0.000 C 
BRANCH  22  30
ATOM     29  C   UNL     1      -7.240  12.364  23.298  0.00  0.00    +0.000 C 
ATOM     30  O   UNL     1      -7.118  12.615  21.899  0.00  0.00    +0.000 OA
ENDBRANCH  22  30
ENDBRANCH  19  25
ENDBRANCH   1  19
TORSDOF 4
ENDMDL
MODEL 7
REMARK VINA RESULT:      -7.6      2.672      4.373
REMARK  Name = 
REMARK  6 active torsions:
REMARK  status: ('A' for Active; 'I' for Inactive)
REMARK    1  A    between atoms: C_1  and  O_2
REMARK    2  A    between atoms: O_2  and  C_3
REMARK    3  A    between atoms: C_6  and  S_7
REMARK    4  A    between atoms: S_7  and  N_10
REMARK    5  A    between atoms: C_13  and  C_14
REMARK    6  A    between atoms: C_29  and  C_30
REMARK                            x       y       z     vdW  Elec       q    Type
REMARK                         _______ _______ _______ _____ _____    ______ ____
ROOT
ATOM      1  N   UNL     1       0.370  12.419  19.033  0.00  0.00    +0.000 NA
ATOM      2  C   UNL     1       1.775  11.955  19.096  0.00  0.00    +0.000 C 
ATOM      3  C   UNL     1       2.047  10.929  17.999  0.00  0.00    +0.000 C 
ATOM      4  C   UNL     1       1.088   9.738  18.090  0.00  0.00    +0.000 C 
ATOM      5  C   UNL     1      -0.352  10.255  18.026  0.00  0.00    +0.000 C 
ATOM      6  C   UNL     1      -0.652  11.343  19.047  0.00  0.00    +0.000 C 
ENDROOT
BRANCH   4   7
ATOM      7  C   UNL     1       1.352   8.872  19.338  0.00  0.00    +0.000 C 
ATOM      8  O   UNL     1       0.992   9.247  20.453  0.00  0.00    +0.000 OA
ATOM      9  N   UNL     1       2.039   7.679  19.173  0.00  0.00    +0.000 N 
ATOM     10  C   UNL     1       2.244   6.805  20.343  0.00  0.00    +0.000 C 
ATOM     11  C   UNL     1       2.784   5.389  20.015  0.00  0.00    +0.000 C 
ATOM     12  C   UNL     1       3.927   5.476  19.033  0.00  0.00    +0.000 A 
ATOM     13  C   UNL     1       5.005   4.594  19.021  0.00  0.00    +0.000 A 
ATOM     14  C   UNL     1       6.081   4.833  18.161  0.00  0.00    +0.000 A 
ATOM     15  C   UNL     1       6.096   5.965  17.344  0.00  0.00    +0.000 A 
ATOM     16  C   UNL     1       4.982   6.795  17.290  0.00  0.00    +0.000 A 
ATOM     17  C   UNL     1       3.870   6.502  18.077  0.00  0.00    +0.000 A 
ATOM     18  C   UNL     1       2.559   7.206  17.902  0.00  0.00    +0.000 C 
ENDBRANCH   4   7
BRANCH   1  19
ATOM     19  S   UNL     1      -0.004  13.760  20.033  0.00  0.00    +0.000 S 
ATOM     20  O   UNL     1      -0.647  14.761  19.201  0.00  0.00    +0.000 OA
ATOM     21  O   UNL     1       1.156  14.087  20.827  0.00  0.00    +0.000 OA
BRANCH  19  25
ATOM     22  C   UNL     1      -3.224  12.306  22.961  0.00  0.00    +0.000 A 
ATOM     23  C   UNL     1      -1.873  12.081  23.227  0.00  0.00    +0.000 A 
ATOM     24  C   UNL     1      -0.882  12.507  22.336  0.00  0.00    +0.000 A 
ATOM     25  C   UNL     1      -1.255  13.132  21.149  0.00  0.00    +0.000 A 
ATOM     26  C   UNL     1      -2.608  13.347  20.860  0.00  0.00    +0.000 A 
ATOM     27  C   UNL     1      -3.603  12.935  21.761  0.00  0.00    +0.000 A 
ATOM     28  C   UNL     1      -5.052  13.155  21.417  0.00  0.00    +0.000 C 
BRANCH  22  30
ATOM     29  C   UNL     1      -4.327  12.705  25.011  0.00  0.00    +0.000 C 
ATOM     30  O   UNL     1      -4.239  11.941  23.810  0.00  0.00    +0.000 OA
ENDBRANCH  22  30
ENDBRANCH  19  25
ENDBRANCH   1  19
TORSDOF 4
ENDMDL
MODEL 8
REMARK VINA RESULT:      -7.6      0.892      1.670
REMARK  Name = 
REMARK  6 active torsions:
REMARK  status: ('A' for Active; 'I' for Inactive)
REMARK    1  A    between atoms: C_1  and  O_2
REMARK    2  A    between atoms: O_2  and  C_3
REMARK    3  A    between atoms: C_6  and  S_7
REMARK    4  A    between atoms: S_7  and  N_10
REMARK    5  A    between atoms: C_13  and  C_14
REMARK    6  A    between atoms: C_29  and  C_30
REMARK                            x       y       z     vdW  Elec       q    Type
REMARK                         _______ _______ _______ _____ _____    ______ ____
ROOT
ATOM      1  N   UNL     1      -0.314  11.002  21.400  0.00  0.00    +0.000 NA
ATOM      2  C   UNL     1      -0.903   9.884  20.629  0.00  0.00    +0.000 C 
ATOM      3  C   UNL     1      -0.501   8.545  21.242  0.00  0.00    +0.000 C 
ATOM      4  C   UNL     1       1.021   8.394  21.320  0.00  0.00    +0.000 C 
ATOM      5  C   UNL     1       1.594   9.568  22.119  0.00  0.00    +0.000 C 
ATOM      6  C   UNL     1       1.155  10.929  21.599  0.00  0.00    +0.000 C 
ENDROOT
BRANCH   4   7
ATOM      7  C   UNL     1       1.665   8.254  19.926  0.00  0.00    +0.000 C 
ATOM      8  O   UNL     1       1.697   9.208  19.148  0.00  0.00    +0.000 OA
ATOM      9  N   UNL     1       2.170   7.017  19.560  0.00  0.00    +0.000 N 
ATOM     10  C   UNL     1       2.849   6.879  18.258  0.00  0.00    +0.000 C 
ATOM     11  C   UNL     1       3.604   5.541  18.052  0.00  0.00    +0.000 C 
ATOM     12  C   UNL     1       2.745   4.379  18.489  0.00  0.00    +0.000 A 
ATOM     13  C   UNL     1       2.783   3.121  17.890  0.00  0.00    +0.000 A 
ATOM     14  C   UNL     1       1.857   2.147  18.274  0.00  0.00    +0.000 A 
ATOM     15  C   UNL     1       0.876   2.439  19.224  0.00  0.00    +0.000 A 
ATOM     16  C   UNL     1       0.894   3.662  19.886  0.00  0.00    +0.000 A 
ATOM     17  C   UNL     1       1.878   4.598  19.571  0.00  0.00    +0.000 A 
ATOM     18  C   UNL     1       2.103   5.829  20.393  0.00  0.00    +0.000 C 
ENDBRANCH   4   7
BRANCH   1  19
ATOM     19  S   UNL     1      -0.892  12.562  20.986  0.00  0.00    +0.000 S 
ATOM     20  O   UNL     1       0.074  13.163  20.084  0.00  0.00    +0.000 OA
ATOM     21  O   UNL     1      -1.305  13.242  22.191  0.00  0.00    +0.000 OA
BRANCH  19  25
ATOM     22  C   UNL     1      -4.652  11.880  18.446  0.00  0.00    +0.000 A 
ATOM     23  C   UNL     1      -4.760  12.320  19.766  0.00  0.00    +0.000 A 
ATOM     24  C   UNL     1      -3.623  12.520  20.555  0.00  0.00    +0.000 A 
ATOM     25  C   UNL     1      -2.366  12.237  20.025  0.00  0.00    +0.000 A 
ATOM     26  C   UNL     1      -2.244  11.776  18.708  0.00  0.00    +0.000 A 
ATOM     27  C   UNL     1      -3.384  11.592  17.909  0.00  0.00    +0.000 A 
ATOM     28  C   UNL     1      -3.229  11.071  16.505  0.00  0.00    +0.000 C 
BRANCH  22  30
ATOM     29  C   UNL     1      -6.911  11.215  18.247  0.00  0.00    +0.000 C 
ATOM     30  O   UNL     1      -5.728  11.698  17.613  0.00  0.00    +0.000 OA
ENDBRANCH  22  30
ENDBRANCH  19  25
ENDBRANCH   1  19
TORSDOF 4
ENDMDL
MODEL 9
REMARK VINA RESULT:      -7.4      2.664      4.110
REMARK  Name = 
REMARK  6 active torsions:
REMARK  status: ('A' for Active; 'I' for Inactive)
REMARK    1  A    between atoms: C_1  and  O_2
REMARK    2  A    between atoms: O_2  and  C_3
REMARK    3  A    between atoms: C_6  and  S_7
REMARK    4  A    between atoms: S_7  and  N_10
REMARK    5  A    between atoms: C_13  and  C_14
REMARK    6  A    between atoms: C_29  and  C_30
REMARK                            x       y       z     vdW  Elec       q    Type
REMARK                         _______ _______ _______ _____ _____    ______ ____
ROOT
ATOM      1  N   UNL     1      -0.023  12.532  19.924  0.00  0.00    +0.000 NA
ATOM      2  C   UNL     1       1.409  12.165  19.846  0.00  0.00    +0.000 C 
ATOM      3  C   UNL     1       1.670  11.292  18.622  0.00  0.00    +0.000 C 
ATOM      4  C   UNL     1       0.798  10.033  18.631  0.00  0.00    +0.000 C 
ATOM      5  C   UNL     1      -0.673  10.450  18.716  0.00  0.00    +0.000 C 
ATOM      6  C   UNL     1      -0.971  11.391  19.874  0.00  0.00    +0.000 C 
ENDROOT
BRANCH   4   7
ATOM      7  C   UNL     1       1.202   9.052  19.750  0.00  0.00    +0.000 C 
ATOM      8  O   UNL     1       1.001   9.328  20.933  0.00  0.00    +0.000 OA
ATOM      9  N   UNL     1       1.833   7.872  19.389  0.00  0.00    +0.000 N 
ATOM     10  C   UNL     1       2.168   6.890  20.439  0.00  0.00    +0.000 C 
ATOM     11  C   UNL     1       2.625   5.505  19.917  0.00  0.00    +0.000 C 
ATOM     12  C   UNL     1       3.631   5.667  18.803  0.00  0.00    +0.000 A 
ATOM     13  C   UNL     1       4.677   4.777  18.569  0.00  0.00    +0.000 A 
ATOM     14  C   UNL     1       5.636   5.080  17.599  0.00  0.00    +0.000 A 
ATOM     15  C   UNL     1       5.571   6.282  16.892  0.00  0.00    +0.000 A 
ATOM     16  C   UNL     1       4.480   7.128  17.060  0.00  0.00    +0.000 A 
ATOM     17  C   UNL     1       3.474   6.778  17.959  0.00  0.00    +0.000 A 
ATOM     18  C   UNL     1       2.170   7.510  18.023  0.00  0.00    +0.000 C 
ENDBRANCH   4   7
BRANCH   1  19
ATOM     19  S   UNL     1      -0.413  13.721  21.095  0.00  0.00    +0.000 S 
ATOM     20  O   UNL     1      -0.370  15.015  20.438  0.00  0.00    +0.000 OA
ATOM     21  O   UNL     1       0.358  13.469  22.290  0.00  0.00    +0.000 OA
BRANCH  19  25
ATOM     22  C   UNL     1      -4.778  12.720  22.095  0.00  0.00    +0.000 A 
ATOM     23  C   UNL     1      -4.415  13.083  20.797  0.00  0.00    +0.000 A 
ATOM     24  C   UNL     1      -3.090  13.403  20.482  0.00  0.00    +0.000 A 
ATOM     25  C   UNL     1      -2.128  13.395  21.489  0.00  0.00    +0.000 A 
ATOM     26  C   UNL     1      -2.482  13.052  22.799  0.00  0.00    +0.000 A 
ATOM     27  C   UNL     1      -3.808  12.713  23.114  0.00  0.00    +0.000 A 
ATOM     28  C   UNL     1      -4.169  12.372  24.535  0.00  0.00    +0.000 C 
BRANCH  22  30
ATOM     29  C   UNL     1      -7.059  12.641  21.486  0.00  0.00    +0.000 C 
ATOM     30  O   UNL     1      -6.052  12.363  22.458  0.00  0.00    +0.000 OA
ENDBRANCH  22  30
ENDBRANCH  19  25
ENDBRANCH   1  19
TORSDOF 4
ENDMDL
