MODEL 1
REMARK VINA RESULT:      -6.7      0.000      0.000
REMARK  Name = 
REMARK  5 active torsions:
REMARK  status: ('A' for Active; 'I' for Inactive)
REMARK    1  A    between atoms: C_1  and  C_2
REMARK    2  A    between atoms: C_2  and  N_3
REMARK    3  A    between atoms: C_5  and  C_6
REMARK    4  A    between atoms: C_6  and  C_7
REMARK    5  A    between atoms: C_7  and  O_9
REMARK                            x       y       z     vdW  Elec       q    Type
REMARK                         _______ _______ _______ _____ _____    ______ ____
ROOT
ATOM      1  N   UNL     1       4.104   3.715  19.241  0.00  0.00    +0.000 N 
ATOM      2  N   UNL     1       4.838   3.987  18.113  0.00  0.00    +0.000 NA
ATOM      3  C   UNL     1       4.706   5.141  17.533  0.00  0.00    +0.000 A 
ATOM      4  C   UNL     1       3.797   6.198  18.030  0.00  0.00    +0.000 A 
ATOM      5  C   UNL     1       3.596   7.415  17.369  0.00  0.00    +0.000 A 
ATOM      6  C   UNL     1       2.711   8.360  17.896  0.00  0.00    +0.000 A 
ATOM      7  C   UNL     1       2.027   8.098  19.081  0.00  0.00    +0.000 A 
ATOM      8  C   UNL     1       2.222   6.886  19.739  0.00  0.00    +0.000 A 
ATOM      9  C   UNL     1       3.102   5.934  19.207  0.00  0.00    +0.000 A 
ATOM     10  C   UNL     1       3.243   4.619  19.856  0.00  0.00    +0.000 A 
ATOM     11  O   UNL     1       2.592   4.372  20.868  0.00  0.00    +0.000 OA
ENDROOT
BRANCH   1  13
ATOM     12  C   UNL     1       3.568   1.406  18.590  0.00  0.00    +0.000 C 
ATOM     13  C   UNL     1       4.102   2.323  19.683  0.00  0.00    +0.000 C 
ENDBRANCH   1  13
BRANCH   3  14
ATOM     14  C   UNL     1       5.528   5.362  16.281  0.00  0.00    +0.000 C 
BRANCH  14  15
ATOM     15  C   UNL     1       6.615   4.352  16.065  0.00  0.00    +0.000 C 
ATOM     16  O   UNL     1       7.783   4.551  16.365  0.00  0.00    +0.000 OA
BRANCH  15  17
ATOM     17  O   UNL     1       6.200   3.200  15.496  0.00  0.00    +0.000 OA
ATOM     18  H   UNL     1       6.856   2.794  14.894  0.00  0.00    +0.000 HD
ENDBRANCH  15  17
ENDBRANCH  14  15
ENDBRANCH   3  14
TORSDOF 4
ENDMDL
MODEL 2
REMARK VINA RESULT:      -6.7      1.670      3.985
REMARK  Name = 
REMARK  5 active torsions:
REMARK  status: ('A' for Active; 'I' for Inactive)
REMARK    1  A    between atoms: C_1  and  C_2
REMARK    2  A    between atoms: C_2  and  N_3
REMARK    3  A    between atoms: C_5  and  C_6
REMARK    4  A    between atoms: C_6  and  C_7
REMARK    5  A    between atoms: C_7  and  O_9
REMARK                            x       y       z     vdW  Elec       q    Type
REMARK                         _______ _______ _______ _____ _____    ______ ____
ROOT
ATOM      1  N   UNL     1       5.355   4.613  16.213  0.00  0.00    +0.000 N 
ATOM      2  N   UNL     1       4.779   3.584  16.916  0.00  0.00    +0.000 NA
ATOM      3  C   UNL     1       3.855   3.851  17.789  0.00  0.00    +0.000 A 
ATOM      4  C   UNL     1       3.381   5.224  18.071  0.00  0.00    +0.000 A 
ATOM      5  C   UNL     1       2.438   5.525  19.062  0.00  0.00    +0.000 A 
ATOM      6  C   UNL     1       2.048   6.851  19.276  0.00  0.00    +0.000 A 
ATOM      7  C   UNL     1       2.591   7.877  18.505  0.00  0.00    +0.000 A 
ATOM      8  C   UNL     1       3.531   7.581  17.521  0.00  0.00    +0.000 A 
ATOM      9  C   UNL     1       3.930   6.253  17.311  0.00  0.00    +0.000 A 
ATOM     10  C   UNL     1       4.987   5.950  16.330  0.00  0.00    +0.000 A 
ATOM     11  O   UNL     1       5.504   6.866  15.696  0.00  0.00    +0.000 OA
ENDROOT
BRANCH   1  13
ATOM     12  C   UNL     1       6.198   3.868  14.027  0.00  0.00    +0.000 C 
ATOM     13  C   UNL     1       6.554   4.274  15.451  0.00  0.00    +0.000 C 
ENDBRANCH   1  13
BRANCH   3  14
ATOM     14  C   UNL     1       3.282   2.671  18.542  0.00  0.00    +0.000 C 
BRANCH  14  15
ATOM     15  C   UNL     1       3.929   2.405  19.868  0.00  0.00    +0.000 C 
ATOM     16  O   UNL     1       3.331   2.479  20.932  0.00  0.00    +0.000 OA
BRANCH  15  17
ATOM     17  O   UNL     1       5.239   2.087  19.795  0.00  0.00    +0.000 OA
ATOM     18  H   UNL     1       5.743   2.284  20.611  0.00  0.00    +0.000 HD
ENDBRANCH  15  17
ENDBRANCH  14  15
ENDBRANCH   3  14
TORSDOF 4
ENDMDL
MODEL 3
REMARK VINA RESULT:      -6.6      1.739      3.990
REMARK  Name = 
REMARK  5 active torsions:
REMARK  status: ('A' for Active; 'I' for Inactive)
REMARK    1  A    between atoms: C_1  and  C_2
REMARK    2  A    between atoms: C_2  and  N_3
REMARK    3  A    between atoms: C_5  and  C_6
REMARK    4  A    between atoms: C_6  and  C_7
REMARK    5  A    between atoms: C_7  and  O_9
REMARK                            x       y       z     vdW  Elec       q    Type
REMARK                         _______ _______ _______ _____ _____    ______ ____
ROOT
ATOM      1  N   UNL     1       5.457   4.800  16.510  0.00  0.00    +0.000 N 
ATOM      2  N   UNL     1       5.132   3.851  17.448  0.00  0.00    +0.000 NA
ATOM      3  C   UNL     1       4.283   4.150  18.384  0.00  0.00    +0.000 A 
ATOM      4  C   UNL     1       3.633   5.474  18.496  0.00  0.00    +0.000 A 
ATOM      5  C   UNL     1       2.772   5.825  19.543  0.00  0.00    +0.000 A 
ATOM      6  C   UNL     1       2.205   7.102  19.585  0.00  0.00    +0.000 A 
ATOM      7  C   UNL     1       2.490   8.031  18.586  0.00  0.00    +0.000 A 
ATOM      8  C   UNL     1       3.348   7.686  17.545  0.00  0.00    +0.000 A 
ATOM      9  C   UNL     1       3.924   6.409  17.506  0.00  0.00    +0.000 A 
ATOM     10  C   UNL     1       4.898   6.074  16.452  0.00  0.00    +0.000 A 
ATOM     11  O   UNL     1       5.190   6.917  15.609  0.00  0.00    +0.000 OA
ENDROOT
BRANCH   1  13
ATOM     12  C   UNL     1       6.146   3.880  14.337  0.00  0.00    +0.000 C 
ATOM     13  C   UNL     1       6.601   4.490  15.657  0.00  0.00    +0.000 C 
ENDBRANCH   1  13
BRANCH   3  14
ATOM     14  C   UNL     1       3.990   3.063  19.396  0.00  0.00    +0.000 C 
BRANCH  14  15
ATOM     15  C   UNL     1       2.805   2.207  19.065  0.00  0.00    +0.000 C 
ATOM     16  O   UNL     1       1.835   2.094  19.800  0.00  0.00    +0.000 OA
BRANCH  15  17
ATOM     17  O   UNL     1       2.900   1.555  17.886  0.00  0.00    +0.000 OA
ATOM     18  H   UNL     1       2.382   1.962  17.163  0.00  0.00    +0.000 HD
ENDBRANCH  15  17
ENDBRANCH  14  15
ENDBRANCH   3  14
TORSDOF 4
ENDMDL
MODEL 4
REMARK VINA RESULT:      -6.5      2.996      4.309
REMARK  Name = 
REMARK  5 active torsions:
REMARK  status: ('A' for Active; 'I' for Inactive)
REMARK    1  A    between atoms: C_1  and  C_2
REMARK    2  A    between atoms: C_2  and  N_3
REMARK    3  A    between atoms: C_5  and  C_6
REMARK    4  A    between atoms: C_6  and  C_7
REMARK    5  A    between atoms: C_7  and  O_9
REMARK                            x       y       z     vdW  Elec       q    Type
REMARK                         _______ _______ _______ _____ _____    ______ ____
ROOT
ATOM      1  N   UNL     1       6.997   6.218  18.048  0.00  0.00    +0.000 N 
ATOM      2  N   UNL     1       6.666   6.194  16.716  0.00  0.00    +0.000 NA
ATOM      3  C   UNL     1       5.790   5.332  16.296  0.00  0.00    +0.000 A 
ATOM      4  C   UNL     1       5.115   4.363  17.187  0.00  0.00    +0.000 A 
ATOM      5  C   UNL     1       4.224   3.385  16.728  0.00  0.00    +0.000 A 
ATOM      6  C   UNL     1       3.635   2.497  17.633  0.00  0.00    +0.000 A 
ATOM      7  C   UNL     1       3.927   2.580  18.993  0.00  0.00    +0.000 A 
ATOM      8  C   UNL     1       4.815   3.550  19.451  0.00  0.00    +0.000 A 
ATOM      9  C   UNL     1       5.414   4.436  18.545  0.00  0.00    +0.000 A 
ATOM     10  C   UNL     1       6.418   5.404  19.018  0.00  0.00    +0.000 A 
ATOM     11  O   UNL     1       6.716   5.433  20.210  0.00  0.00    +0.000 OA
ENDROOT
BRANCH   1  13
ATOM     12  C   UNL     1       8.055   8.427  17.833  0.00  0.00    +0.000 C 
ATOM     13  C   UNL     1       8.166   7.018  18.403  0.00  0.00    +0.000 C 
ENDBRANCH   1  13
BRANCH   3  14
ATOM     14  C   UNL     1       5.492   5.347  14.812  0.00  0.00    +0.000 C 
BRANCH  14  15
ATOM     15  C   UNL     1       6.564   4.743  13.956  0.00  0.00    +0.000 C 
ATOM     16  O   UNL     1       6.397   3.736  13.285  0.00  0.00    +0.000 OA
BRANCH  15  17
ATOM     17  O   UNL     1       7.745   5.398  13.997  0.00  0.00    +0.000 OA
ATOM     18  H   UNL     1       7.921   5.849  14.848  0.00  0.00    +0.000 HD
ENDBRANCH  15  17
ENDBRANCH  14  15
ENDBRANCH   3  14
TORSDOF 4
ENDMDL
MODEL 5
REMARK VINA RESULT:      -6.4      2.731      3.204
REMARK  Name = 
REMARK  5 active torsions:
REMARK  status: ('A' for Active; 'I' for Inactive)
REMARK    1  A    between atoms: C_1  and  C_2
REMARK    2  A    between atoms: C_2  and  N_3
REMARK    3  A    between atoms: C_5  and  C_6
REMARK    4  A    between atoms: C_6  and  C_7
REMARK    5  A    between atoms: C_7  and  O_9
REMARK                            x       y       z     vdW  Elec       q    Type
REMARK                         _______ _______ _______ _____ _____    ______ ____
ROOT
ATOM      1  N   UNL     1       4.278   3.380  17.606  0.00  0.00    +0.000 N 
ATOM      2  N   UNL     1       4.451   3.869  16.335  0.00  0.00    +0.000 NA
ATOM      3  C   UNL     1       5.351   4.782  16.124  0.00  0.00    +0.000 A 
ATOM      4  C   UNL     1       6.215   5.330  17.193  0.00  0.00    +0.000 A 
ATOM      5  C   UNL     1       7.136   6.364  16.986  0.00  0.00    +0.000 A 
ATOM      6  C   UNL     1       7.909   6.835  18.051  0.00  0.00    +0.000 A 
ATOM      7  C   UNL     1       7.771   6.279  19.321  0.00  0.00    +0.000 A 
ATOM      8  C   UNL     1       6.854   5.253  19.531  0.00  0.00    +0.000 A 
ATOM      9  C   UNL     1       6.072   4.784  18.466  0.00  0.00    +0.000 A 
ATOM     10  C   UNL     1       5.041   3.759  18.707  0.00  0.00    +0.000 A 
ATOM     11  O   UNL     1       4.883   3.315  19.841  0.00  0.00    +0.000 OA
ENDROOT
BRANCH   1  13
ATOM     12  C   UNL     1       1.848   3.434  17.975  0.00  0.00    +0.000 C 
ATOM     13  C   UNL     1       3.087   2.562  17.820  0.00  0.00    +0.000 C 
ENDBRANCH   1  13
BRANCH   3  14
ATOM     14  C   UNL     1       5.471   5.291  14.704  0.00  0.00    +0.000 C 
BRANCH  14  15
ATOM     15  C   UNL     1       6.573   4.660  13.908  0.00  0.00    +0.000 C 
ATOM     16  O   UNL     1       7.544   5.280  13.501  0.00  0.00    +0.000 OA
BRANCH  15  17
ATOM     17  O   UNL     1       6.400   3.343  13.663  0.00  0.00    +0.000 OA
ATOM     18  H   UNL     1       6.946   2.758  14.227  0.00  0.00    +0.000 HD
ENDBRANCH  15  17
ENDBRANCH  14  15
ENDBRANCH   3  14
TORSDOF 4
ENDMDL
MODEL 6
REMARK VINA RESULT:      -6.4      2.356      4.645
REMARK  Name = 
REMARK  5 active torsions:
REMARK  status: ('A' for Active; 'I' for Inactive)
REMARK    1  A    between atoms: C_1  and  C_2
REMARK    2  A    between atoms: C_2  and  N_3
REMARK    3  A    between atoms: C_5  and  C_6
REMARK    4  A    between atoms: C_6  and  C_7
REMARK    5  A    between atoms: C_7  and  O_9
REMARK                            x       y       z     vdW  Elec       q    Type
REMARK                         _______ _______ _______ _____ _____    ______ ____
ROOT
ATOM      1  N   UNL     1       1.925   3.976  18.694  0.00  0.00    +0.000 N 
ATOM      2  N   UNL     1       1.811   5.338  18.825  0.00  0.00    +0.000 NA
ATOM      3  C   UNL     1       2.678   6.107  18.238  0.00  0.00    +0.000 A 
ATOM      4  C   UNL     1       3.796   5.589  17.420  0.00  0.00    +0.000 A 
ATOM      5  C   UNL     1       4.774   6.409  16.844  0.00  0.00    +0.000 A 
ATOM      6  C   UNL     1       5.808   5.842  16.093  0.00  0.00    +0.000 A 
ATOM      7  C   UNL     1       5.870   4.462  15.910  0.00  0.00    +0.000 A 
ATOM      8  C   UNL     1       4.900   3.644  16.484  0.00  0.00    +0.000 A 
ATOM      9  C   UNL     1       3.868   4.210  17.245  0.00  0.00    +0.000 A 
ATOM     10  C   UNL     1       2.892   3.338  17.923  0.00  0.00    +0.000 A 
ATOM     11  O   UNL     1       2.988   2.119  17.806  0.00  0.00    +0.000 OA
ENDROOT
BRANCH   1  13
ATOM     12  C   UNL     1       1.496   3.375  21.039  0.00  0.00    +0.000 C 
ATOM     13  C   UNL     1       1.089   3.175  19.584  0.00  0.00    +0.000 C 
ENDBRANCH   1  13
BRANCH   3  14
ATOM     14  C   UNL     1       2.503   7.596  18.445  0.00  0.00    +0.000 C 
BRANCH  14  15
ATOM     15  C   UNL     1       1.861   7.971  19.747  0.00  0.00    +0.000 C 
ATOM     16  O   UNL     1       1.060   8.888  19.858  0.00  0.00    +0.000 OA
BRANCH  15  17
ATOM     17  O   UNL     1       2.250   7.219  20.798  0.00  0.00    +0.000 OA
ATOM     18  H   UNL     1       3.078   6.720  20.646  0.00  0.00    +0.000 HD
ENDBRANCH  15  17
ENDBRANCH  14  15
ENDBRANCH   3  14
TORSDOF 4
ENDMDL
MODEL 7
REMARK VINA RESULT:      -6.4      1.899      3.727
REMARK  Name = 
REMARK  5 active torsions:
REMARK  status: ('A' for Active; 'I' for Inactive)
REMARK    1  A    between atoms: C_1  and  C_2
REMARK    2  A    between atoms: C_2  and  N_3
REMARK    3  A    between atoms: C_5  and  C_6
REMARK    4  A    between atoms: C_6  and  C_7
REMARK    5  A    between atoms: C_7  and  O_9
REMARK                            x       y       z     vdW  Elec       q    Type
REMARK                         _______ _______ _______ _____ _____    ______ ____
ROOT
ATOM      1  N   UNL     1       4.931   4.654  17.242  0.00  0.00    +0.000 N 
ATOM      2  N   UNL     1       4.594   3.648  18.113  0.00  0.00    +0.000 NA
ATOM      3  C   UNL     1       3.738   3.890  19.061  0.00  0.00    +0.000 A 
ATOM      4  C   UNL     1       3.095   5.208  19.254  0.00  0.00    +0.000 A 
ATOM      5  C   UNL     1       2.228   5.495  20.315  0.00  0.00    +0.000 A 
ATOM      6  C   UNL     1       1.668   6.770  20.436  0.00  0.00    +0.000 A 
ATOM      7  C   UNL     1       1.965   7.760  19.502  0.00  0.00    +0.000 A 
ATOM      8  C   UNL     1       2.830   7.479  18.447  0.00  0.00    +0.000 A 
ATOM      9  C   UNL     1       3.399   6.204  18.329  0.00  0.00    +0.000 A 
ATOM     10  C   UNL     1       4.380   5.932  17.263  0.00  0.00    +0.000 A 
ATOM     11  O   UNL     1       4.683   6.828  16.479  0.00  0.00    +0.000 OA
ENDROOT
BRANCH   1  13
ATOM     12  C   UNL     1       7.385   4.530  17.154  0.00  0.00    +0.000 C 
ATOM     13  C   UNL     1       6.080   4.394  16.379  0.00  0.00    +0.000 C 
ENDBRANCH   1  13
BRANCH   3  14
ATOM     14  C   UNL     1       3.432   2.742  19.997  0.00  0.00    +0.000 C 
BRANCH  14  15
ATOM     15  C   UNL     1       4.519   1.714  20.097  0.00  0.00    +0.000 C 
ATOM     16  O   UNL     1       5.303   1.657  21.032  0.00  0.00    +0.000 OA
BRANCH  15  17
ATOM     17  O   UNL     1       4.571   0.855  19.055  0.00  0.00    +0.000 OA
ATOM     18  H   UNL     1       5.117   0.061  19.221  0.00  0.00    +0.000 HD
ENDBRANCH  15  17
ENDBRANCH  14  15
ENDBRANCH   3  14
TORSDOF 4
ENDMDL
MODEL 8
REMARK VINA RESULT:      -6.4      1.920      2.065
REMARK  Name = 
REMARK  5 active torsions:
REMARK  status: ('A' for Active; 'I' for Inactive)
REMARK    1  A    between atoms: C_1  and  C_2
REMARK    2  A    between atoms: C_2  and  N_3
REMARK    3  A    between atoms: C_5  and  C_6
REMARK    4  A    between atoms: C_6  and  C_7
REMARK    5  A    between atoms: C_7  and  O_9
REMARK                            x       y       z     vdW  Elec       q    Type
REMARK                         _______ _______ _______ _____ _____    ______ ____
ROOT
ATOM      1  N   UNL     1       4.203   3.446  19.467  0.00  0.00    +0.000 N 
ATOM      2  N   UNL     1       5.447   3.826  19.029  0.00  0.00    +0.000 NA
ATOM      3  C   UNL     1       5.593   4.985  18.461  0.00  0.00    +0.000 A 
ATOM      4  C   UNL     1       4.477   5.935  18.259  0.00  0.00    +0.000 A 
ATOM      5  C   UNL     1       4.614   7.153  17.583  0.00  0.00    +0.000 A 
ATOM      6  C   UNL     1       3.507   7.992  17.423  0.00  0.00    +0.000 A 
ATOM      7  C   UNL     1       2.265   7.624  17.936  0.00  0.00    +0.000 A 
ATOM      8  C   UNL     1       2.125   6.411  18.606  0.00  0.00    +0.000 A 
ATOM      9  C   UNL     1       3.232   5.565  18.760  0.00  0.00    +0.000 A 
ATOM     10  C   UNL     1       3.064   4.244  19.392  0.00  0.00    +0.000 A 
ATOM     11  O   UNL     1       1.954   3.900  19.789  0.00  0.00    +0.000 OA
ENDROOT
BRANCH   1  13
ATOM     12  C   UNL     1       3.798   1.171  18.630  0.00  0.00    +0.000 C 
ATOM     13  C   UNL     1       4.060   2.044  19.850  0.00  0.00    +0.000 C 
ENDBRANCH   1  13
BRANCH   3  14
ATOM     14  C   UNL     1       6.988   5.327  17.983  0.00  0.00    +0.000 C 
BRANCH  14  15
ATOM     15  C   UNL     1       7.812   6.098  18.969  0.00  0.00    +0.000 C 
ATOM     16  O   UNL     1       8.330   7.175  18.712  0.00  0.00    +0.000 OA
BRANCH  15  17
ATOM     17  O   UNL     1       7.949   5.498  20.170  0.00  0.00    +0.000 OA
ATOM     18  H   UNL     1       7.426   4.676  20.267  0.00  0.00    +0.000 HD
ENDBRANCH  15  17
ENDBRANCH  14  15
ENDBRANCH   3  14
TORSDOF 4
ENDMDL
MODEL 9
REMARK VINA RESULT:      -6.3      1.673      4.051
REMARK  Name = 
REMARK  5 active torsions:
REMARK  status: ('A' for Active; 'I' for Inactive)
REMARK    1  A    between atoms: C_1  and  C_2
REMARK    2  A    between atoms: C_2  and  N_3
REMARK    3  A    between atoms: C_5  and  C_6
REMARK    4  A    between atoms: C_6  and  C_7
REMARK    5  A    between atoms: C_7  and  O_9
REMARK                            x       y       z     vdW  Elec       q    Type
REMARK                         _______ _______ _______ _____ _____    ______ ____
ROOT
ATOM      1  N   UNL     1       5.035   4.714  17.048  0.00  0.00    +0.000 N 
ATOM      2  N   UNL     1       4.618   3.867  18.045  0.00  0.00    +0.000 NA
ATOM      3  C   UNL     1       3.760   4.293  18.922  0.00  0.00    +0.000 A 
ATOM      4  C   UNL     1       3.195   5.660  18.904  0.00  0.00    +0.000 A 
ATOM      5  C   UNL     1       2.326   6.148  19.887  0.00  0.00    +0.000 A 
ATOM      6  C   UNL     1       1.843   7.457  19.807  0.00  0.00    +0.000 A 
ATOM      7  C   UNL     1       2.220   8.282  18.749  0.00  0.00    +0.000 A 
ATOM      8  C   UNL     1       3.087   7.801  17.771  0.00  0.00    +0.000 A 
ATOM      9  C   UNL     1       3.579   6.491  17.855  0.00  0.00    +0.000 A 
ATOM     10  C   UNL     1       4.563   6.011  16.869  0.00  0.00    +0.000 A 
ATOM     11  O   UNL     1       4.937   6.764  15.972  0.00  0.00    +0.000 OA
ENDROOT
BRANCH   1  13
ATOM     12  C   UNL     1       7.487   4.537  17.005  0.00  0.00    +0.000 C 
ATOM     13  C   UNL     1       6.183   4.265  16.265  0.00  0.00    +0.000 C 
ENDBRANCH   1  13
BRANCH   3  14
ATOM     14  C   UNL     1       3.365   3.313  20.004  0.00  0.00    +0.000 C 
BRANCH  14  15
ATOM     15  C   UNL     1       2.200   2.436  19.655  0.00  0.00    +0.000 C 
ATOM     16  O   UNL     1       1.106   2.530  20.192  0.00  0.00    +0.000 OA
BRANCH  15  17
ATOM     17  O   UNL     1       2.461   1.517  18.701  0.00  0.00    +0.000 OA
ATOM     18  H   UNL     1       3.258   0.976  18.876  0.00  0.00    +0.000 HD
ENDBRANCH  15  17
ENDBRANCH  14  15
ENDBRANCH   3  14
TORSDOF 4
ENDMDL
