MODEL 1
REMARK VINA RESULT:      -9.0      0.000      0.000
REMARK  Name = 
REMARK  4 active torsions:
REMARK  status: ('A' for Active; 'I' for Inactive)
REMARK    1  A    between atoms: C_1  and  C_2
REMARK    2  A    between atoms: C_6  and  C_7
REMARK    3  A    between atoms: C_12  and  C_14
REMARK    4  A    between atoms: C_17  and  C_18
REMARK                            x       y       z     vdW  Elec       q    Type
REMARK                         _______ _______ _______ _____ _____    ______ ____
ROOT
ATOM      1  C   UNL     1       2.555   6.263  19.665  0.00  0.00    +0.000 C 
ATOM      2  C   UNL     1       1.565   5.699  20.686  0.00  0.00    +0.000 C 
ATOM      3  C   UNL     1       2.177   4.449  21.329  0.00  0.00    +0.000 C 
ATOM      4  C   UNL     1       2.633   3.416  20.287  0.00  0.00    +0.000 C 
ATOM      5  N   UNL     1       3.411   4.023  19.201  0.00  0.00    +0.000 N 
ATOM      6  C   UNL     1       4.687   3.549  18.913  0.00  0.00    +0.000 C 
ATOM      7  O   UNL     1       5.281   2.768  19.657  0.00  0.00    +0.000 OA
ATOM      8  C   UNL     1       2.799   5.205  18.587  0.00  0.00    +0.000 C 
ENDROOT
BRANCH   6   9
ATOM      9  C   UNL     1       5.378   4.049  17.687  0.00  0.00    +0.000 A 
ATOM     10  C   UNL     1       4.738   3.956  16.507  0.00  0.00    +0.000 A 
ATOM     11  C   UNL     1       5.372   4.345  15.266  0.00  0.00    +0.000 A 
ATOM     12  C   UNL     1       6.647   4.764  15.261  0.00  0.00    +0.000 A 
ATOM     13  C   UNL     1       7.411   5.129  14.026  0.00  0.00    +0.000 C 
ATOM     14  N   UNL     1       7.308   4.895  16.460  0.00  0.00    +0.000 N 
ATOM     15  C   UNL     1       6.742   4.668  17.692  0.00  0.00    +0.000 A 
ATOM     16  O   UNL     1       7.360   4.923  18.720  0.00  0.00    +0.000 OA
ATOM     17  H   UNL     1       8.256   5.251  16.480  0.00  0.00    +0.000 HD
ENDBRANCH   6   9
BRANCH   1  23
ATOM     18  C   UNL     1       0.369  10.501  20.517  0.00  0.00    +0.000 C 
ATOM     19  C   UNL     1       1.137   9.641  19.566  0.00  0.00    +0.000 A 
ATOM     20  C   UNL     1       1.530  10.095  18.317  0.00  0.00    +0.000 A 
ATOM     21  N   UNL     1       2.238   9.336  17.450  0.00  0.00    +0.000 NA
ATOM     22  C   UNL     1       2.550   8.092  17.883  0.00  0.00    +0.000 A 
ATOM     23  C   UNL     1       2.175   7.618  19.134  0.00  0.00    +0.000 A 
ATOM     24  N   UNL     1       1.459   8.396  19.988  0.00  0.00    +0.000 NA
ENDBRANCH   1  23
TORSDOF 2
ENDMDL
MODEL 2
REMARK VINA RESULT:      -8.1      1.625      2.464
REMARK  Name = 
REMARK  4 active torsions:
REMARK  status: ('A' for Active; 'I' for Inactive)
REMARK    1  A    between atoms: C_1  and  C_2
REMARK    2  A    between atoms: C_6  and  C_7
REMARK    3  A    between atoms: C_12  and  C_14
REMARK    4  A    between atoms: C_17  and  C_18
REMARK                            x       y       z     vdW  Elec       q    Type
REMARK                         _______ _______ _______ _____ _____    ______ ____
ROOT
ATOM      1  C   UNL     1       2.077   5.663  20.300  0.00  0.00    +0.000 C 
ATOM      2  C   UNL     1       0.945   4.667  20.560  0.00  0.00    +0.000 C 
ATOM      3  C   UNL     1       1.550   3.269  20.743  0.00  0.00    +0.000 C 
ATOM      4  C   UNL     1       2.461   2.866  19.573  0.00  0.00    +0.000 C 
ATOM      5  N   UNL     1       3.404   3.928  19.205  0.00  0.00    +0.000 N 
ATOM      6  C   UNL     1       4.770   3.666  19.186  0.00  0.00    +0.000 C 
ATOM      7  O   UNL     1       5.248   2.633  19.655  0.00  0.00    +0.000 OA
ATOM      8  C   UNL     1       2.802   5.252  19.017  0.00  0.00    +0.000 C 
ENDROOT
BRANCH   6   9
ATOM      9  C   UNL     1       5.691   4.701  18.626  0.00  0.00    +0.000 A 
ATOM     10  C   UNL     1       6.618   5.242  19.437  0.00  0.00    +0.000 A 
ATOM     11  C   UNL     1       7.490   6.305  18.991  0.00  0.00    +0.000 A 
ATOM     12  C   UNL     1       7.358   6.815  17.756  0.00  0.00    +0.000 A 
ATOM     13  C   UNL     1       8.168   7.955  17.222  0.00  0.00    +0.000 C 
ATOM     14  N   UNL     1       6.437   6.256  16.902  0.00  0.00    +0.000 N 
ATOM     15  C   UNL     1       5.656   5.165  17.202  0.00  0.00    +0.000 A 
ATOM     16  O   UNL     1       4.946   4.650  16.345  0.00  0.00    +0.000 OA
ATOM     17  H   UNL     1       6.352   6.599  15.953  0.00  0.00    +0.000 HD
ENDBRANCH   6   9
BRANCH   1  23
ATOM     18  C   UNL     1       1.824   9.896  17.959  0.00  0.00    +0.000 C 
ATOM     19  C   UNL     1       1.518   9.111  19.193  0.00  0.00    +0.000 A 
ATOM     20  C   UNL     1       0.816   9.658  20.257  0.00  0.00    +0.000 A 
ATOM     21  N   UNL     1       0.516   8.958  21.375  0.00  0.00    +0.000 NA
ATOM     22  C   UNL     1       0.944   7.673  21.391  0.00  0.00    +0.000 A 
ATOM     23  C   UNL     1       1.640   7.101  20.335  0.00  0.00    +0.000 A 
ATOM     24  N   UNL     1       1.935   7.825  19.222  0.00  0.00    +0.000 NA
ENDBRANCH   1  23
TORSDOF 2
ENDMDL
MODEL 3
REMARK VINA RESULT:      -8.0      1.702      2.256
REMARK  Name = 
REMARK  4 active torsions:
REMARK  status: ('A' for Active; 'I' for Inactive)
REMARK    1  A    between atoms: C_1  and  C_2
REMARK    2  A    between atoms: C_6  and  C_7
REMARK    3  A    between atoms: C_12  and  C_14
REMARK    4  A    between atoms: C_17  and  C_18
REMARK                            x       y       z     vdW  Elec       q    Type
REMARK                         _______ _______ _______ _____ _____    ______ ____
ROOT
ATOM      1  C   UNL     1       2.053   5.707  20.275  0.00  0.00    +0.000 C 
ATOM      2  C   UNL     1       0.924   4.709  20.542  0.00  0.00    +0.000 C 
ATOM      3  C   UNL     1       1.534   3.317  20.748  0.00  0.00    +0.000 C 
ATOM      4  C   UNL     1       2.454   2.902  19.590  0.00  0.00    +0.000 C 
ATOM      5  N   UNL     1       3.396   3.963  19.214  0.00  0.00    +0.000 N 
ATOM      6  C   UNL     1       4.763   3.707  19.209  0.00  0.00    +0.000 C 
ATOM      7  O   UNL     1       5.242   2.682  19.696  0.00  0.00    +0.000 OA
ATOM      8  C   UNL     1       2.789   5.281  19.004  0.00  0.00    +0.000 C 
ENDROOT
BRANCH   6   9
ATOM      9  C   UNL     1       5.683   4.738  18.641  0.00  0.00    +0.000 A 
ATOM     10  C   UNL     1       6.624   5.269  19.442  0.00  0.00    +0.000 A 
ATOM     11  C   UNL     1       7.498   6.328  18.988  0.00  0.00    +0.000 A 
ATOM     12  C   UNL     1       7.352   6.845  17.758  0.00  0.00    +0.000 A 
ATOM     13  C   UNL     1       8.163   7.982  17.217  0.00  0.00    +0.000 C 
ATOM     14  N   UNL     1       6.416   6.296  16.913  0.00  0.00    +0.000 N 
ATOM     15  C   UNL     1       5.631   5.208  17.219  0.00  0.00    +0.000 A 
ATOM     16  O   UNL     1       4.907   4.702  16.369  0.00  0.00    +0.000 OA
ATOM     17  H   UNL     1       6.320   6.643  15.967  0.00  0.00    +0.000 HD
ENDBRANCH   6   9
BRANCH   1  23
ATOM     18  C   UNL     1      -0.049   9.295  22.759  0.00  0.00    +0.000 C 
ATOM     19  C   UNL     1       0.615   8.848  21.496  0.00  0.00    +0.000 A 
ATOM     20  C   UNL     1       0.866   9.721  20.448  0.00  0.00    +0.000 A 
ATOM     21  N   UNL     1       1.478   9.337  19.305  0.00  0.00    +0.000 NA
ATOM     22  C   UNL     1       1.842   8.034  19.247  0.00  0.00    +0.000 A 
ATOM     23  C   UNL     1       1.610   7.144  20.287  0.00  0.00    +0.000 A 
ATOM     24  N   UNL     1       0.988   7.550  21.426  0.00  0.00    +0.000 NA
ENDBRANCH   1  23
TORSDOF 2
ENDMDL
MODEL 4
REMARK VINA RESULT:      -7.9      2.457      3.540
REMARK  Name = 
REMARK  4 active torsions:
REMARK  status: ('A' for Active; 'I' for Inactive)
REMARK    1  A    between atoms: C_1  and  C_2
REMARK    2  A    between atoms: C_6  and  C_7
REMARK    3  A    between atoms: C_12  and  C_14
REMARK    4  A    between atoms: C_17  and  C_18
REMARK                            x       y       z     vdW  Elec       q    Type
REMARK                         _______ _______ _______ _____ _____    ______ ____
ROOT
ATOM      1  C   UNL     1       3.135   5.714  18.571  0.00  0.00    +0.000 C 
ATOM      2  C   UNL     1       2.258   4.707  17.823  0.00  0.00    +0.000 C 
ATOM      3  C   UNL     1       3.152   3.599  17.255  0.00  0.00    +0.000 C 
ATOM      4  C   UNL     1       4.305   4.154  16.404  0.00  0.00    +0.000 C 
ATOM      5  N   UNL     1       5.003   5.265  17.061  0.00  0.00    +0.000 N 
ATOM      6  C   UNL     1       6.377   5.196  17.267  0.00  0.00    +0.000 C 
ATOM      7  O   UNL     1       7.016   4.157  17.099  0.00  0.00    +0.000 OA
ATOM      8  C   UNL     1       4.130   6.322  17.581  0.00  0.00    +0.000 C 
ENDROOT
BRANCH   6   9
ATOM      9  C   UNL     1       7.089   6.413  17.761  0.00  0.00    +0.000 A 
ATOM     10  C   UNL     1       6.941   7.564  17.079  0.00  0.00    +0.000 A 
ATOM     11  C   UNL     1       7.660   8.763  17.448  0.00  0.00    +0.000 A 
ATOM     12  C   UNL     1       8.542   8.738  18.461  0.00  0.00    +0.000 A 
ATOM     13  C   UNL     1       9.380   9.906  18.880  0.00  0.00    +0.000 C 
ATOM     14  N   UNL     1       8.686   7.580  19.188  0.00  0.00    +0.000 N 
ATOM     15  C   UNL     1       7.952   6.435  18.985  0.00  0.00    +0.000 A 
ATOM     16  O   UNL     1       8.052   5.484  19.753  0.00  0.00    +0.000 OA
ATOM     17  H   UNL     1       9.314   7.554  19.982  0.00  0.00    +0.000 HD
ENDBRANCH   6   9
BRANCH   1  23
ATOM     18  C   UNL     1       1.232  10.164  18.761  0.00  0.00    +0.000 C 
ATOM     19  C   UNL     1       1.444   8.847  19.435  0.00  0.00    +0.000 A 
ATOM     20  C   UNL     1       0.895   8.560  20.676  0.00  0.00    +0.000 A 
ATOM     21  N   UNL     1       1.064   7.369  21.295  0.00  0.00    +0.000 NA
ATOM     22  C   UNL     1       1.805   6.460  20.618  0.00  0.00    +0.000 A 
ATOM     23  C   UNL     1       2.357   6.721  19.371  0.00  0.00    +0.000 A 
ATOM     24  N   UNL     1       2.179   7.927  18.769  0.00  0.00    +0.000 NA
ENDBRANCH   1  23
TORSDOF 2
ENDMDL
MODEL 5
REMARK VINA RESULT:      -7.5      1.891      4.495
REMARK  Name = 
REMARK  4 active torsions:
REMARK  status: ('A' for Active; 'I' for Inactive)
REMARK    1  A    between atoms: C_1  and  C_2
REMARK    2  A    between atoms: C_6  and  C_7
REMARK    3  A    between atoms: C_12  and  C_14
REMARK    4  A    between atoms: C_17  and  C_18
REMARK                            x       y       z     vdW  Elec       q    Type
REMARK                         _______ _______ _______ _____ _____    ______ ____
ROOT
ATOM      1  C   UNL     1       3.263   7.043  17.681  0.00  0.00    +0.000 C 
ATOM      2  C   UNL     1       4.320   7.663  16.765  0.00  0.00    +0.000 C 
ATOM      3  C   UNL     1       4.992   6.544  15.959  0.00  0.00    +0.000 C 
ATOM      4  C   UNL     1       5.541   5.424  16.856  0.00  0.00    +0.000 C 
ATOM      5  N   UNL     1       4.572   4.989  17.868  0.00  0.00    +0.000 N 
ATOM      6  C   UNL     1       4.206   3.650  17.947  0.00  0.00    +0.000 C 
ATOM      7  O   UNL     1       4.509   2.832  17.078  0.00  0.00    +0.000 OA
ATOM      8  C   UNL     1       3.956   6.073  18.639  0.00  0.00    +0.000 C 
ENDROOT
BRANCH   6   9
ATOM      9  C   UNL     1       3.370   3.203  19.102  0.00  0.00    +0.000 A 
ATOM     10  C   UNL     1       2.048   3.449  19.070  0.00  0.00    +0.000 A 
ATOM     11  C   UNL     1       1.186   3.119  20.184  0.00  0.00    +0.000 A 
ATOM     12  C   UNL     1       1.705   2.599  21.309  0.00  0.00    +0.000 A 
ATOM     13  C   UNL     1       0.909   2.282  22.537  0.00  0.00    +0.000 C 
ATOM     14  N   UNL     1       3.049   2.313  21.350  0.00  0.00    +0.000 N 
ATOM     15  C   UNL     1       3.915   2.478  20.295  0.00  0.00    +0.000 A 
ATOM     16  O   UNL     1       5.074   2.085  20.370  0.00  0.00    +0.000 OA
ATOM     17  H   UNL     1       3.450   1.881  22.173  0.00  0.00    +0.000 HD
ENDBRANCH   6   9
BRANCH   1  23
ATOM     18  C   UNL     1       1.018   8.424  21.745  0.00  0.00    +0.000 C 
ATOM     19  C   UNL     1       1.320   8.702  20.308  0.00  0.00    +0.000 A 
ATOM     20  C   UNL     1       0.871   9.848  19.671  0.00  0.00    +0.000 A 
ATOM     21  N   UNL     1       1.147  10.124  18.376  0.00  0.00    +0.000 NA
ATOM     22  C   UNL     1       1.904   9.204  17.733  0.00  0.00    +0.000 A 
ATOM     23  C   UNL     1       2.373   8.053  18.352  0.00  0.00    +0.000 A 
ATOM     24  N   UNL     1       2.079   7.794  19.654  0.00  0.00    +0.000 NA
ENDBRANCH   1  23
TORSDOF 2
ENDMDL
MODEL 6
REMARK VINA RESULT:      -7.5      1.186      1.759
REMARK  Name = 
REMARK  4 active torsions:
REMARK  status: ('A' for Active; 'I' for Inactive)
REMARK    1  A    between atoms: C_1  and  C_2
REMARK    2  A    between atoms: C_6  and  C_7
REMARK    3  A    between atoms: C_12  and  C_14
REMARK    4  A    between atoms: C_17  and  C_18
REMARK                            x       y       z     vdW  Elec       q    Type
REMARK                         _______ _______ _______ _____ _____    ______ ____
ROOT
ATOM      1  C   UNL     1       2.009   5.233  20.156  0.00  0.00    +0.000 C 
ATOM      2  C   UNL     1       0.878   4.470  20.850  0.00  0.00    +0.000 C 
ATOM      3  C   UNL     1       1.312   3.012  21.041  0.00  0.00    +0.000 C 
ATOM      4  C   UNL     1       1.773   2.359  19.729  0.00  0.00    +0.000 C 
ATOM      5  N   UNL     1       2.704   3.209  18.977  0.00  0.00    +0.000 N 
ATOM      6  C   UNL     1       3.954   2.719  18.616  0.00  0.00    +0.000 C 
ATOM      7  O   UNL     1       4.402   1.664  19.067  0.00  0.00    +0.000 OA
ATOM      8  C   UNL     1       2.261   4.594  18.789  0.00  0.00    +0.000 C 
ENDROOT
BRANCH   6   9
ATOM      9  C   UNL     1       4.802   3.530  17.691  0.00  0.00    +0.000 A 
ATOM     10  C   UNL     1       4.514   3.513  16.377  0.00  0.00    +0.000 A 
ATOM     11  C   UNL     1       5.336   4.207  15.410  0.00  0.00    +0.000 A 
ATOM     12  C   UNL     1       6.448   4.849  15.805  0.00  0.00    +0.000 A 
ATOM     13  C   UNL     1       7.397   5.542  14.878  0.00  0.00    +0.000 C 
ATOM     14  N   UNL     1       6.743   4.902  17.147  0.00  0.00    +0.000 N 
ATOM     15  C   UNL     1       5.951   4.378  18.142  0.00  0.00    +0.000 A 
ATOM     16  O   UNL     1       6.220   4.573  19.322  0.00  0.00    +0.000 OA
ATOM     17  H   UNL     1       7.553   5.418  17.468  0.00  0.00    +0.000 HD
ENDBRANCH   6   9
BRANCH   1  23
ATOM     18  C   UNL     1       2.213   9.305  17.541  0.00  0.00    +0.000 C 
ATOM     19  C   UNL     1       1.895   8.654  18.849  0.00  0.00    +0.000 A 
ATOM     20  C   UNL     1       1.379   9.368  19.919  0.00  0.00    +0.000 A 
ATOM     21  N   UNL     1       1.071   8.793  21.104  0.00  0.00    +0.000 NA
ATOM     22  C   UNL     1       1.295   7.460  21.181  0.00  0.00    +0.000 A 
ATOM     23  C   UNL     1       1.803   6.722  20.120  0.00  0.00    +0.000 A 
ATOM     24  N   UNL     1       2.110   7.322  18.939  0.00  0.00    +0.000 NA
ENDBRANCH   1  23
TORSDOF 2
ENDMDL
MODEL 7
REMARK VINA RESULT:      -7.4      2.425      3.121
REMARK  Name = 
REMARK  4 active torsions:
REMARK  status: ('A' for Active; 'I' for Inactive)
REMARK    1  A    between atoms: C_1  and  C_2
REMARK    2  A    between atoms: C_6  and  C_7
REMARK    3  A    between atoms: C_12  and  C_14
REMARK    4  A    between atoms: C_17  and  C_18
REMARK                            x       y       z     vdW  Elec       q    Type
REMARK                         _______ _______ _______ _____ _____    ______ ____
ROOT
ATOM      1  C   UNL     1       2.823   6.187  18.437  0.00  0.00    +0.000 C 
ATOM      2  C   UNL     1       1.920   5.106  17.839  0.00  0.00    +0.000 C 
ATOM      3  C   UNL     1       2.728   3.811  17.693  0.00  0.00    +0.000 C 
ATOM      4  C   UNL     1       4.032   4.019  16.908  0.00  0.00    +0.000 C 
ATOM      5  N   UNL     1       4.783   5.193  17.367  0.00  0.00    +0.000 N 
ATOM      6  C   UNL     1       6.104   5.054  17.779  0.00  0.00    +0.000 C 
ATOM      7  O   UNL     1       6.623   3.953  17.963  0.00  0.00    +0.000 OA
ATOM      8  C   UNL     1       3.995   6.424  17.482  0.00  0.00    +0.000 C 
ENDROOT
BRANCH   6   9
ATOM      9  C   UNL     1       6.901   6.286  18.057  0.00  0.00    +0.000 A 
ATOM     10  C   UNL     1       6.751   7.346  17.241  0.00  0.00    +0.000 A 
ATOM     11  C   UNL     1       7.546   8.544  17.398  0.00  0.00    +0.000 A 
ATOM     12  C   UNL     1       8.497   8.605  18.343  0.00  0.00    +0.000 A 
ATOM     13  C   UNL     1       9.412   9.773  18.546  0.00  0.00    +0.000 C 
ATOM     14  N   UNL     1       8.646   7.545  19.206  0.00  0.00    +0.000 N 
ATOM     15  C   UNL     1       7.852   6.422  19.207  0.00  0.00    +0.000 A 
ATOM     16  O   UNL     1       7.969   5.575  20.086  0.00  0.00    +0.000 OA
ATOM     17  H   UNL     1       9.329   7.590  19.953  0.00  0.00    +0.000 HD
ENDBRANCH   6   9
BRANCH   1  23
ATOM     18  C   UNL     1       0.980   8.818  22.061  0.00  0.00    +0.000 C 
ATOM     19  C   UNL     1       1.228   8.682  20.594  0.00  0.00    +0.000 A 
ATOM     20  C   UNL     1       0.872   9.674  19.693  0.00  0.00    +0.000 A 
ATOM     21  N   UNL     1       1.102   9.575  18.364  0.00  0.00    +0.000 NA
ATOM     22  C   UNL     1       1.716   8.437  17.962  0.00  0.00    +0.000 A 
ATOM     23  C   UNL     1       2.090   7.434  18.846  0.00  0.00    +0.000 A 
ATOM     24  N   UNL     1       1.844   7.552  20.177  0.00  0.00    +0.000 NA
ENDBRANCH   1  23
TORSDOF 2
ENDMDL
MODEL 8
REMARK VINA RESULT:      -7.4      0.963      1.431
REMARK  Name = 
REMARK  4 active torsions:
REMARK  status: ('A' for Active; 'I' for Inactive)
REMARK    1  A    between atoms: C_1  and  C_2
REMARK    2  A    between atoms: C_6  and  C_7
REMARK    3  A    between atoms: C_12  and  C_14
REMARK    4  A    between atoms: C_17  and  C_18
REMARK                            x       y       z     vdW  Elec       q    Type
REMARK                         _______ _______ _______ _____ _____    ______ ____
ROOT
ATOM      1  C   UNL     1       2.512   6.260  19.768  0.00  0.00    +0.000 C 
ATOM      2  C   UNL     1       1.513   5.775  20.821  0.00  0.00    +0.000 C 
ATOM      3  C   UNL     1       2.096   4.543  21.524  0.00  0.00    +0.000 C 
ATOM      4  C   UNL     1       2.520   3.448  20.534  0.00  0.00    +0.000 C 
ATOM      5  N   UNL     1       3.307   3.978  19.414  0.00  0.00    +0.000 N 
ATOM      6  C   UNL     1       4.568   3.457  19.146  0.00  0.00    +0.000 C 
ATOM      7  O   UNL     1       5.146   2.699  19.925  0.00  0.00    +0.000 OA
ATOM      8  C   UNL     1       2.722   5.143  18.744  0.00  0.00    +0.000 C 
ENDROOT
BRANCH   6   9
ATOM      9  C   UNL     1       5.265   3.877  17.892  0.00  0.00    +0.000 A 
ATOM     10  C   UNL     1       6.483   4.439  17.992  0.00  0.00    +0.000 A 
ATOM     11  C   UNL     1       7.185   4.943  16.833  0.00  0.00    +0.000 A 
ATOM     12  C   UNL     1       6.605   4.906  15.623  0.00  0.00    +0.000 A 
ATOM     13  C   UNL     1       7.220   5.457  14.374  0.00  0.00    +0.000 C 
ATOM     14  N   UNL     1       5.373   4.309  15.494  0.00  0.00    +0.000 N 
ATOM     15  C   UNL     1       4.693   3.694  16.519  0.00  0.00    +0.000 A 
ATOM     16  O   UNL     1       3.656   3.077  16.300  0.00  0.00    +0.000 OA
ATOM     17  H   UNL     1       4.939   4.233  14.583  0.00  0.00    +0.000 HD
ENDBRANCH   6   9
BRANCH   1  23
ATOM     18  C   UNL     1       0.386  10.568  20.394  0.00  0.00    +0.000 C 
ATOM     19  C   UNL     1       1.154   9.653  19.496  0.00  0.00    +0.000 A 
ATOM     20  C   UNL     1       1.575  10.044  18.234  0.00  0.00    +0.000 A 
ATOM     21  N   UNL     1       2.283   9.235  17.413  0.00  0.00    +0.000 NA
ATOM     22  C   UNL     1       2.566   8.007  17.907  0.00  0.00    +0.000 A 
ATOM     23  C   UNL     1       2.164   7.596  19.171  0.00  0.00    +0.000 A 
ATOM     24  N   UNL     1       1.448   8.424  19.977  0.00  0.00    +0.000 NA
ENDBRANCH   1  23
TORSDOF 2
ENDMDL
MODEL 9
REMARK VINA RESULT:      -7.3      1.835      2.408
REMARK  Name = 
REMARK  4 active torsions:
REMARK  status: ('A' for Active; 'I' for Inactive)
REMARK    1  A    between atoms: C_1  and  C_2
REMARK    2  A    between atoms: C_6  and  C_7
REMARK    3  A    between atoms: C_12  and  C_14
REMARK    4  A    between atoms: C_17  and  C_18
REMARK                            x       y       z     vdW  Elec       q    Type
REMARK                         _______ _______ _______ _____ _____    ______ ____
ROOT
ATOM      1  C   UNL     1       2.057   5.912  20.332  0.00  0.00    +0.000 C 
ATOM      2  C   UNL     1       0.984   4.827  20.445  0.00  0.00    +0.000 C 
ATOM      3  C   UNL     1       1.671   3.458  20.514  0.00  0.00    +0.000 C 
ATOM      4  C   UNL     1       2.647   3.232  19.348  0.00  0.00    +0.000 C 
ATOM      5  N   UNL     1       3.532   4.382  19.127  0.00  0.00    +0.000 N 
ATOM      6  C   UNL     1       4.912   4.207  19.140  0.00  0.00    +0.000 C 
ATOM      7  O   UNL     1       5.439   3.163  19.524  0.00  0.00    +0.000 OA
ATOM      8  C   UNL     1       2.853   5.678  19.046  0.00  0.00    +0.000 C 
ENDROOT
BRANCH   6   9
ATOM      9  C   UNL     1       5.782   5.348  18.723  0.00  0.00    +0.000 A 
ATOM     10  C   UNL     1       5.384   6.115  17.692  0.00  0.00    +0.000 A 
ATOM     11  C   UNL     1       6.210   7.187  17.180  0.00  0.00    +0.000 A 
ATOM     12  C   UNL     1       7.429   7.408  17.698  0.00  0.00    +0.000 A 
ATOM     13  C   UNL     1       8.382   8.448  17.198  0.00  0.00    +0.000 C 
ATOM     14  N   UNL     1       7.841   6.654  18.771  0.00  0.00    +0.000 N 
ATOM     15  C   UNL     1       7.072   5.702  19.398  0.00  0.00    +0.000 A 
ATOM     16  O   UNL     1       7.465   5.158  20.425  0.00  0.00    +0.000 OA
ATOM     17  H   UNL     1       8.740   6.834  19.203  0.00  0.00    +0.000 HD
ENDBRANCH   6   9
BRANCH   1  23
ATOM     18  C   UNL     1       1.475  10.292  18.347  0.00  0.00    +0.000 C 
ATOM     19  C   UNL     1       1.247   9.392  19.518  0.00  0.00    +0.000 A 
ATOM     20  C   UNL     1       0.533   9.803  20.633  0.00  0.00    +0.000 A 
ATOM     21  N   UNL     1       0.304   8.997  21.696  0.00  0.00    +0.000 NA
ATOM     22  C   UNL     1       0.816   7.747  21.600  0.00  0.00    +0.000 A 
ATOM     23  C   UNL     1       1.527   7.310  20.490  0.00  0.00    +0.000 A 
ATOM     24  N   UNL     1       1.749   8.139  19.436  0.00  0.00    +0.000 NA
ENDBRANCH   1  23
TORSDOF 2
ENDMDL
