MODEL 1
REMARK VINA RESULT:      -7.3      0.000      0.000
REMARK  Name = 
REMARK  3 active torsions:
REMARK  status: ('A' for Active; 'I' for Inactive)
REMARK    1  A    between atoms: C_1  and  C_2
REMARK    2  A    between atoms: N_8  and  C_9
REMARK    3  A    between atoms: C_9  and  C_10
REMARK                            x       y       z     vdW  Elec       q    Type
REMARK                         _______ _______ _______ _____ _____    ______ ____
ROOT
ATOM      1  C   UNL     1       3.164   1.744  18.187  0.00  0.00    +0.000 C 
ATOM      2  C   UNL     1       2.504   2.737  19.063  0.00  0.00    +0.000 A 
ATOM      3  N   UNL     1       1.625   2.464  20.009  0.00  0.00    +0.000 NA
ATOM      4  N   UNL     1       1.240   3.647  20.596  0.00  0.00    +0.000 NA
ATOM      5  C   UNL     1       1.898   4.615  19.995  0.00  0.00    +0.000 A 
ATOM      6  C   UNL     1       1.792   6.022  20.266  0.00  0.00    +0.000 A 
ATOM      7  O   UNL     1       1.067   6.484  21.145  0.00  0.00    +0.000 OA
ATOM      8  N   UNL     1       2.550   6.849  19.409  0.00  0.00    +0.000 N 
ATOM      9  C   UNL     1       3.365   6.298  18.361  0.00  0.00    +0.000 A 
ATOM     10  C   UNL     1       4.082   7.095  17.463  0.00  0.00    +0.000 A 
ATOM     11  C   UNL     1       4.887   6.505  16.486  0.00  0.00    +0.000 A 
ATOM     12  C   UNL     1       4.946   5.125  16.417  0.00  0.00    +0.000 A 
ATOM     13  N   UNL     1       4.243   4.310  17.229  0.00  0.00    +0.000 NA
ATOM     14  C   UNL     1       3.475   4.907  18.176  0.00  0.00    +0.000 A 
ATOM     15  N   UNL     1       2.694   4.099  19.017  0.00  0.00    +0.000 N 
ENDROOT
BRANCH   8  16
ATOM     16  C   UNL     1       2.376   8.294  19.556  0.00  0.00    +0.000 C 
BRANCH  16  17
ATOM     17  C   UNL     1       1.236   9.000  18.793  0.00  0.00    +0.000 C 
ATOM     18  O   UNL     1       1.148   8.957  17.565  0.00  0.00    +0.000 OA
ATOM     19  N   UNL     1       0.285   9.658  19.596  0.00  0.00    +0.000 N 
ATOM     20  C   UNL     1      -0.867  10.287  18.953  0.00  0.00    +0.000 C 
ATOM     21  C   UNL     1      -0.566  11.724  18.532  0.00  0.00    +0.000 C 
ATOM     22  C   UNL     1      -0.448  12.722  19.687  0.00  0.00    +0.000 C 
ATOM     23  C   UNL     1       0.522  12.326  20.801  0.00  0.00    +0.000 C 
ATOM     24  C   UNL     1       0.008  11.145  21.624  0.00  0.00    +0.000 C 
ATOM     25  C   UNL     1       0.408   9.788  21.050  0.00  0.00    +0.000 C 
ENDBRANCH  16  17
ENDBRANCH   8  16
TORSDOF 2
ENDMDL
MODEL 2
REMARK VINA RESULT:      -6.9      2.083      7.652
REMARK  Name = 
REMARK  3 active torsions:
REMARK  status: ('A' for Active; 'I' for Inactive)
REMARK    1  A    between atoms: C_1  and  C_2
REMARK    2  A    between atoms: N_8  and  C_9
REMARK    3  A    between atoms: C_9  and  C_10
REMARK                            x       y       z     vdW  Elec       q    Type
REMARK                         _______ _______ _______ _____ _____    ______ ____
ROOT
ATOM      1  C   UNL     1       0.543  14.039  21.561  0.00  0.00    +0.000 C 
ATOM      2  C   UNL     1       1.036  13.314  20.369  0.00  0.00    +0.000 A 
ATOM      3  N   UNL     1       1.530  13.871  19.280  0.00  0.00    +0.000 NA
ATOM      4  N   UNL     1       1.871  12.871  18.400  0.00  0.00    +0.000 NA
ATOM      5  C   UNL     1       1.579  11.725  18.976  0.00  0.00    +0.000 A 
ATOM      6  C   UNL     1       1.746  10.414  18.413  0.00  0.00    +0.000 A 
ATOM      7  O   UNL     1       2.227  10.217  17.298  0.00  0.00    +0.000 OA
ATOM      8  N   UNL     1       1.268   9.357  19.219  0.00  0.00    +0.000 N 
ATOM      9  C   UNL     1       0.675   9.603  20.505  0.00  0.00    +0.000 A 
ATOM     10  C   UNL     1       0.143   8.583  21.300  0.00  0.00    +0.000 A 
ATOM     11  C   UNL     1      -0.389   8.875  22.557  0.00  0.00    +0.000 A 
ATOM     12  C   UNL     1      -0.393  10.189  22.989  0.00  0.00    +0.000 A 
ATOM     13  N   UNL     1       0.066  11.216  22.247  0.00  0.00    +0.000 NA
ATOM     14  C   UNL     1       0.587  10.905  21.032  0.00  0.00    +0.000 A 
ATOM     15  N   UNL     1       1.040  11.947  20.207  0.00  0.00    +0.000 N 
ENDROOT
BRANCH   8  16
ATOM     16  C   UNL     1       1.294   8.016  18.638  0.00  0.00    +0.000 C 
BRANCH  16  17
ATOM     17  C   UNL     1       2.620   7.229  18.609  0.00  0.00    +0.000 C 
ATOM     18  O   UNL     1       3.540   7.526  17.844  0.00  0.00    +0.000 OA
ATOM     19  N   UNL     1       2.723   6.179  19.541  0.00  0.00    +0.000 N 
ATOM     20  C   UNL     1       3.977   5.434  19.627  0.00  0.00    +0.000 C 
ATOM     21  C   UNL     1       4.009   4.261  18.649  0.00  0.00    +0.000 C 
ATOM     22  C   UNL     1       3.090   3.093  19.013  0.00  0.00    +0.000 C 
ATOM     23  C   UNL     1       1.631   3.464  19.282  0.00  0.00    +0.000 C 
ATOM     24  C   UNL     1       1.464   4.248  20.584  0.00  0.00    +0.000 C 
ATOM     25  C   UNL     1       1.619   5.756  20.405  0.00  0.00    +0.000 C 
ENDBRANCH  16  17
ENDBRANCH   8  16
TORSDOF 2
ENDMDL
MODEL 3
REMARK VINA RESULT:      -6.9      1.625      7.547
REMARK  Name = 
REMARK  3 active torsions:
REMARK  status: ('A' for Active; 'I' for Inactive)
REMARK    1  A    between atoms: C_1  and  C_2
REMARK    2  A    between atoms: N_8  and  C_9
REMARK    3  A    between atoms: C_9  and  C_10
REMARK                            x       y       z     vdW  Elec       q    Type
REMARK                         _______ _______ _______ _____ _____    ______ ____
ROOT
ATOM      1  C   UNL     1      -2.782  12.284  19.923  0.00  0.00    +0.000 C 
ATOM      2  C   UNL     1      -1.825  11.519  19.094  0.00  0.00    +0.000 A 
ATOM      3  N   UNL     1      -1.797  11.496  17.775  0.00  0.00    +0.000 NA
ATOM      4  N   UNL     1      -0.772  10.668  17.379  0.00  0.00    +0.000 NA
ATOM      5  C   UNL     1      -0.197  10.208  18.468  0.00  0.00    +0.000 A 
ATOM      6  C   UNL     1       0.905   9.288  18.534  0.00  0.00    +0.000 A 
ATOM      7  O   UNL     1       1.467   8.841  17.536  0.00  0.00    +0.000 OA
ATOM      8  N   UNL     1       1.269   8.892  19.840  0.00  0.00    +0.000 N 
ATOM      9  C   UNL     1       0.580   9.394  20.996  0.00  0.00    +0.000 A 
ATOM     10  C   UNL     1       0.881   8.977  22.296  0.00  0.00    +0.000 A 
ATOM     11  C   UNL     1       0.203   9.525  23.386  0.00  0.00    +0.000 A 
ATOM     12  C   UNL     1      -0.778  10.471  23.152  0.00  0.00    +0.000 A 
ATOM     13  N   UNL     1      -1.138  10.877  21.920  0.00  0.00    +0.000 NA
ATOM     14  C   UNL     1      -0.459  10.336  20.876  0.00  0.00    +0.000 A 
ATOM     15  N   UNL     1      -0.827  10.699  19.571  0.00  0.00    +0.000 N 
ENDROOT
BRANCH   8  16
ATOM     16  C   UNL     1       2.297   7.858  19.956  0.00  0.00    +0.000 C 
BRANCH  16  17
ATOM     17  C   UNL     1       1.878   6.373  19.967  0.00  0.00    +0.000 C 
ATOM     18  O   UNL     1       1.091   5.922  20.801  0.00  0.00    +0.000 OA
ATOM     19  N   UNL     1       2.422   5.582  18.937  0.00  0.00    +0.000 N 
ATOM     20  C   UNL     1       2.015   4.182  18.834  0.00  0.00    +0.000 C 
ATOM     21  C   UNL     1       2.896   3.271  19.687  0.00  0.00    +0.000 C 
ATOM     22  C   UNL     1       4.320   3.075  19.160  0.00  0.00    +0.000 C 
ATOM     23  C   UNL     1       5.092   4.360  18.862  0.00  0.00    +0.000 C 
ATOM     24  C   UNL     1       4.540   5.097  17.641  0.00  0.00    +0.000 C 
ATOM     25  C   UNL     1       3.418   6.074  17.982  0.00  0.00    +0.000 C 
ENDBRANCH  16  17
ENDBRANCH   8  16
TORSDOF 2
ENDMDL
MODEL 4
REMARK VINA RESULT:      -6.8      4.563      7.363
REMARK  Name = 
REMARK  3 active torsions:
REMARK  status: ('A' for Active; 'I' for Inactive)
REMARK    1  A    between atoms: C_1  and  C_2
REMARK    2  A    between atoms: N_8  and  C_9
REMARK    3  A    between atoms: C_9  and  C_10
REMARK                            x       y       z     vdW  Elec       q    Type
REMARK                         _______ _______ _______ _____ _____    ______ ____
ROOT
ATOM      1  C   UNL     1       1.404   8.309  19.997  0.00  0.00    +0.000 C 
ATOM      2  C   UNL     1       0.907   9.195  21.073  0.00  0.00    +0.000 A 
ATOM      3  N   UNL     1       1.279   9.151  22.338  0.00  0.00    +0.000 NA
ATOM      4  N   UNL     1       0.593  10.125  23.024  0.00  0.00    +0.000 NA
ATOM      5  C   UNL     1      -0.181  10.744  22.159  0.00  0.00    +0.000 A 
ATOM      6  C   UNL     1      -1.094  11.817  22.437  0.00  0.00    +0.000 A 
ATOM      7  O   UNL     1      -1.231  12.310  23.556  0.00  0.00    +0.000 OA
ATOM      8  N   UNL     1      -1.868  12.238  21.334  0.00  0.00    +0.000 N 
ATOM      9  C   UNL     1      -1.725  11.629  20.040  0.00  0.00    +0.000 A 
ATOM     10  C   UNL     1      -2.517  11.987  18.944  0.00  0.00    +0.000 A 
ATOM     11  C   UNL     1      -2.309  11.387  17.701  0.00  0.00    +0.000 A 
ATOM     12  C   UNL     1      -1.322  10.426  17.582  0.00  0.00    +0.000 A 
ATOM     13  N   UNL     1      -0.560  10.012  18.614  0.00  0.00    +0.000 NA
ATOM     14  C   UNL     1      -0.775  10.617  19.811  0.00  0.00    +0.000 A 
ATOM     15  N   UNL     1      -0.033  10.190  20.923  0.00  0.00    +0.000 N 
ENDROOT
BRANCH   8  16
ATOM     16  C   UNL     1      -2.905  13.237  21.594  0.00  0.00    +0.000 C 
BRANCH  16  17
ATOM     17  C   UNL     1      -4.290  12.776  22.092  0.00  0.00    +0.000 C 
ATOM     18  O   UNL     1      -4.426  12.104  23.117  0.00  0.00    +0.000 OA
ATOM     19  N   UNL     1      -5.386  13.209  21.323  0.00  0.00    +0.000 N 
ATOM     20  C   UNL     1      -6.738  12.878  21.771  0.00  0.00    +0.000 C 
ATOM     21  C   UNL     1      -7.195  11.521  21.240  0.00  0.00    +0.000 C 
ATOM     22  C   UNL     1      -7.498  11.486  19.740  0.00  0.00    +0.000 C 
ATOM     23  C   UNL     1      -6.388  12.016  18.833  0.00  0.00    +0.000 C 
ATOM     24  C   UNL     1      -6.215  13.530  18.954  0.00  0.00    +0.000 C 
ATOM     25  C   UNL     1      -5.248  13.941  20.061  0.00  0.00    +0.000 C 
ENDBRANCH  16  17
ENDBRANCH   8  16
TORSDOF 2
ENDMDL
MODEL 5
REMARK VINA RESULT:      -6.7      2.096      7.454
REMARK  Name = 
REMARK  3 active torsions:
REMARK  status: ('A' for Active; 'I' for Inactive)
REMARK    1  A    between atoms: C_1  and  C_2
REMARK    2  A    between atoms: N_8  and  C_9
REMARK    3  A    between atoms: C_9  and  C_10
REMARK                            x       y       z     vdW  Elec       q    Type
REMARK                         _______ _______ _______ _____ _____    ______ ____
ROOT
ATOM      1  C   UNL     1      -3.217  12.924  21.249  0.00  0.00    +0.000 C 
ATOM      2  C   UNL     1      -2.035  12.220  21.795  0.00  0.00    +0.000 A 
ATOM      3  N   UNL     1      -1.559  12.351  23.018  0.00  0.00    +0.000 NA
ATOM      4  N   UNL     1      -0.455  11.541  23.141  0.00  0.00    +0.000 NA
ATOM      5  C   UNL     1      -0.285  10.930  21.988  0.00  0.00    +0.000 A 
ATOM      6  C   UNL     1       0.762  10.006  21.652  0.00  0.00    +0.000 A 
ATOM      7  O   UNL     1       1.627   9.652  22.450  0.00  0.00    +0.000 OA
ATOM      8  N   UNL     1       0.755   9.566  20.310  0.00  0.00    +0.000 N 
ATOM      9  C   UNL     1      -0.241  10.016  19.377  0.00  0.00    +0.000 A 
ATOM     10  C   UNL     1      -0.240   9.641  18.030  0.00  0.00    +0.000 A 
ATOM     11  C   UNL     1      -1.253  10.080  17.177  0.00  0.00    +0.000 A 
ATOM     12  C   UNL     1      -2.243  10.901  17.686  0.00  0.00    +0.000 A 
ATOM     13  N   UNL     1      -2.269  11.327  18.963  0.00  0.00    +0.000 NA
ATOM     14  C   UNL     1      -1.278  10.880  19.776  0.00  0.00    +0.000 A 
ATOM     15  N   UNL     1      -1.242  11.331  21.105  0.00  0.00    +0.000 N 
ENDROOT
BRANCH   8  16
ATOM     16  C   UNL     1       1.875   8.728  19.882  0.00  0.00    +0.000 C 
BRANCH  16  17
ATOM     17  C   UNL     1       1.782   7.197  20.050  0.00  0.00    +0.000 C 
ATOM     18  O   UNL     1       1.221   6.679  21.017  0.00  0.00    +0.000 OA
ATOM     19  N   UNL     1       2.342   6.438  19.005  0.00  0.00    +0.000 N 
ATOM     20  C   UNL     1       2.228   4.981  19.053  0.00  0.00    +0.000 C 
ATOM     21  C   UNL     1       3.383   4.347  19.826  0.00  0.00    +0.000 C 
ATOM     22  C   UNL     1       4.736   4.390  19.112  0.00  0.00    +0.000 C 
ATOM     23  C   UNL     1       5.177   5.769  18.621  0.00  0.00    +0.000 C 
ATOM     24  C   UNL     1       4.330   6.265  17.449  0.00  0.00    +0.000 C 
ATOM     25  C   UNL     1       3.081   7.026  17.886  0.00  0.00    +0.000 C 
ENDBRANCH  16  17
ENDBRANCH   8  16
TORSDOF 2
ENDMDL
MODEL 6
REMARK VINA RESULT:      -6.7      1.856      3.941
REMARK  Name = 
REMARK  3 active torsions:
REMARK  status: ('A' for Active; 'I' for Inactive)
REMARK    1  A    between atoms: C_1  and  C_2
REMARK    2  A    between atoms: N_8  and  C_9
REMARK    3  A    between atoms: C_9  and  C_10
REMARK                            x       y       z     vdW  Elec       q    Type
REMARK                         _______ _______ _______ _____ _____    ______ ____
ROOT
ATOM      1  C   UNL     1       7.836   4.365  17.725  0.00  0.00    +0.000 C 
ATOM      2  C   UNL     1       6.945   5.505  17.412  0.00  0.00    +0.000 A 
ATOM      3  N   UNL     1       7.283   6.579  16.724  0.00  0.00    +0.000 NA
ATOM      4  N   UNL     1       6.188   7.408  16.652  0.00  0.00    +0.000 NA
ATOM      5  C   UNL     1       5.206   6.817  17.298  0.00  0.00    +0.000 A 
ATOM      6  C   UNL     1       3.880   7.331  17.500  0.00  0.00    +0.000 A 
ATOM      7  O   UNL     1       3.501   8.410  17.047  0.00  0.00    +0.000 OA
ATOM      8  N   UNL     1       3.048   6.525  18.308  0.00  0.00    +0.000 N 
ATOM      9  C   UNL     1       3.515   5.284  18.863  0.00  0.00    +0.000 A 
ATOM     10  C   UNL     1       2.734   4.493  19.711  0.00  0.00    +0.000 A 
ATOM     11  C   UNL     1       3.226   3.279  20.192  0.00  0.00    +0.000 A 
ATOM     12  C   UNL     1       4.501   2.886  19.827  0.00  0.00    +0.000 A 
ATOM     13  N   UNL     1       5.312   3.628  19.049  0.00  0.00    +0.000 NA
ATOM     14  C   UNL     1       4.808   4.801  18.586  0.00  0.00    +0.000 A 
ATOM     15  N   UNL     1       5.632   5.627  17.805  0.00  0.00    +0.000 N 
ENDROOT
BRANCH   8  16
ATOM     16  C   UNL     1       1.734   7.066  18.654  0.00  0.00    +0.000 C 
BRANCH  16  17
ATOM     17  C   UNL     1       1.568   7.875  19.956  0.00  0.00    +0.000 C 
ATOM     18  O   UNL     1       1.666   7.351  21.068  0.00  0.00    +0.000 OA
ATOM     19  N   UNL     1       1.338   9.253  19.789  0.00  0.00    +0.000 N 
ATOM     20  C   UNL     1       1.245  10.102  20.976  0.00  0.00    +0.000 C 
ATOM     21  C   UNL     1      -0.182  10.164  21.517  0.00  0.00    +0.000 C 
ATOM     22  C   UNL     1      -1.163  10.964  20.656  0.00  0.00    +0.000 C 
ATOM     23  C   UNL     1      -1.218  10.567  19.181  0.00  0.00    +0.000 C 
ATOM     24  C   UNL     1       0.055  10.957  18.428  0.00  0.00    +0.000 C 
ATOM     25  C   UNL     1       1.141   9.886  18.483  0.00  0.00    +0.000 C 
ENDBRANCH  16  17
ENDBRANCH   8  16
TORSDOF 2
ENDMDL
MODEL 7
REMARK VINA RESULT:      -6.6      4.964      7.785
REMARK  Name = 
REMARK  3 active torsions:
REMARK  status: ('A' for Active; 'I' for Inactive)
REMARK    1  A    between atoms: C_1  and  C_2
REMARK    2  A    between atoms: N_8  and  C_9
REMARK    3  A    between atoms: C_9  and  C_10
REMARK                            x       y       z     vdW  Elec       q    Type
REMARK                         _______ _______ _______ _____ _____    ______ ____
ROOT
ATOM      1  C   UNL     1       1.247   8.489  20.522  0.00  0.00    +0.000 C 
ATOM      2  C   UNL     1       0.603   9.392  21.501  0.00  0.00    +0.000 A 
ATOM      3  N   UNL     1       0.808   9.384  22.805  0.00  0.00    +0.000 NA
ATOM      4  N   UNL     1       0.026  10.363  23.371  0.00  0.00    +0.000 NA
ATOM      5  C   UNL     1      -0.636  10.948  22.397  0.00  0.00    +0.000 A 
ATOM      6  C   UNL     1      -1.591  12.014  22.526  0.00  0.00    +0.000 A 
ATOM      7  O   UNL     1      -1.879  12.531  23.604  0.00  0.00    +0.000 OA
ATOM      8  N   UNL     1      -2.220  12.396  21.321  0.00  0.00    +0.000 N 
ATOM      9  C   UNL     1      -1.902  11.759  20.073  0.00  0.00    +0.000 A 
ATOM     10  C   UNL     1      -2.548  12.078  18.874  0.00  0.00    +0.000 A 
ATOM     11  C   UNL     1      -2.173  11.452  17.685  0.00  0.00    +0.000 A 
ATOM     12  C   UNL     1      -1.166  10.503  17.720  0.00  0.00    +0.000 A 
ATOM     13  N   UNL     1      -0.540  10.127  18.852  0.00  0.00    +0.000 NA
ATOM     14  C   UNL     1      -0.917  10.757  19.995  0.00  0.00    +0.000 A 
ATOM     15  N   UNL     1      -0.321  10.368  21.205  0.00  0.00    +0.000 N 
ENDROOT
BRANCH   8  16
ATOM     16  C   UNL     1      -3.294  13.384  21.418  0.00  0.00    +0.000 C 
BRANCH  16  17
ATOM     17  C   UNL     1      -4.688  12.941  21.909  0.00  0.00    +0.000 C 
ATOM     18  O   UNL     1      -5.306  12.018  21.375  0.00  0.00    +0.000 OA
ATOM     19  N   UNL     1      -5.184  13.632  23.030  0.00  0.00    +0.000 N 
ATOM     20  C   UNL     1      -6.464  13.220  23.602  0.00  0.00    +0.000 C 
ATOM     21  C   UNL     1      -7.639  13.930  22.932  0.00  0.00    +0.000 C 
ATOM     22  C   UNL     1      -7.770  15.417  23.270  0.00  0.00    +0.000 C 
ATOM     23  C   UNL     1      -6.509  16.253  23.055  0.00  0.00    +0.000 C 
ATOM     24  C   UNL     1      -5.416  15.925  24.073  0.00  0.00    +0.000 C 
ATOM     25  C   UNL     1      -4.506  14.781  23.635  0.00  0.00    +0.000 C 
ENDBRANCH  16  17
ENDBRANCH   8  16
TORSDOF 2
ENDMDL
MODEL 8
REMARK VINA RESULT:      -6.6      2.078      7.675
REMARK  Name = 
REMARK  3 active torsions:
REMARK  status: ('A' for Active; 'I' for Inactive)
REMARK    1  A    between atoms: C_1  and  C_2
REMARK    2  A    between atoms: N_8  and  C_9
REMARK    3  A    between atoms: C_9  and  C_10
REMARK                            x       y       z     vdW  Elec       q    Type
REMARK                         _______ _______ _______ _____ _____    ______ ____
ROOT
ATOM      1  C   UNL     1      -0.766  14.966  19.278  0.00  0.00    +0.000 C 
ATOM      2  C   UNL     1      -0.024  13.986  20.102  0.00  0.00    +0.000 A 
ATOM      3  N   UNL     1       0.792  14.279  21.097  0.00  0.00    +0.000 NA
ATOM      4  N   UNL     1       1.290  13.103  21.607  0.00  0.00    +0.000 NA
ATOM      5  C   UNL     1       0.764  12.119  20.911  0.00  0.00    +0.000 A 
ATOM      6  C   UNL     1       1.020  10.715  21.079  0.00  0.00    +0.000 A 
ATOM      7  O   UNL     1       1.767  10.268  21.947  0.00  0.00    +0.000 OA
ATOM      8  N   UNL     1       0.385   9.880  20.134  0.00  0.00    +0.000 N 
ATOM      9  C   UNL     1      -0.457  10.418  19.101  0.00  0.00    +0.000 A 
ATOM     10  C   UNL     1      -1.053   9.621  18.120  0.00  0.00    +0.000 A 
ATOM     11  C   UNL     1      -1.891  10.194  17.161  0.00  0.00    +0.000 A 
ATOM     12  C   UNL     1      -2.104  11.560  17.194  0.00  0.00    +0.000 A 
ATOM     13  N   UNL     1      -1.521  12.380  18.090  0.00  0.00    +0.000 NA
ATOM     14  C   UNL     1      -0.717  11.799  19.018  0.00  0.00    +0.000 A 
ATOM     15  N   UNL     1      -0.057  12.619  19.946  0.00  0.00    +0.000 N 
ENDROOT
BRANCH   8  16
ATOM     16  C   UNL     1       0.717   8.456  20.179  0.00  0.00    +0.000 C 
BRANCH  16  17
ATOM     17  C   UNL     1       1.895   7.927  19.335  0.00  0.00    +0.000 C 
ATOM     18  O   UNL     1       2.398   8.592  18.427  0.00  0.00    +0.000 OA
ATOM     19  N   UNL     1       2.379   6.656  19.698  0.00  0.00    +0.000 N 
ATOM     20  C   UNL     1       3.542   6.118  18.995  0.00  0.00    +0.000 C 
ATOM     21  C   UNL     1       3.138   5.351  17.737  0.00  0.00    +0.000 C 
ATOM     22  C   UNL     1       2.454   4.006  17.994  0.00  0.00    +0.000 C 
ATOM     23  C   UNL     1       1.258   4.048  18.945  0.00  0.00    +0.000 C 
ATOM     24  C   UNL     1       1.674   4.327  20.389  0.00  0.00    +0.000 C 
ATOM     25  C   UNL     1       1.751   5.815  20.719  0.00  0.00    +0.000 C 
ENDBRANCH  16  17
ENDBRANCH   8  16
TORSDOF 2
ENDMDL
MODEL 9
REMARK VINA RESULT:      -6.5      5.066      8.169
REMARK  Name = 
REMARK  3 active torsions:
REMARK  status: ('A' for Active; 'I' for Inactive)
REMARK    1  A    between atoms: C_1  and  C_2
REMARK    2  A    between atoms: N_8  and  C_9
REMARK    3  A    between atoms: C_9  and  C_10
REMARK                            x       y       z     vdW  Elec       q    Type
REMARK                         _______ _______ _______ _____ _____    ______ ____
ROOT
ATOM      1  C   UNL     1       0.969   9.371  18.564  0.00  0.00    +0.000 C 
ATOM      2  C   UNL     1       0.497  10.328  19.590  0.00  0.00    +0.000 A 
ATOM      3  N   UNL     1       1.143  10.653  20.694  0.00  0.00    +0.000 NA
ATOM      4  N   UNL     1       0.381  11.563  21.388  0.00  0.00    +0.000 NA
ATOM      5  C   UNL     1      -0.712  11.775  20.688  0.00  0.00    +0.000 A 
ATOM      6  C   UNL     1      -1.806  12.636  21.043  0.00  0.00    +0.000 A 
ATOM      7  O   UNL     1      -1.820  13.316  22.068  0.00  0.00    +0.000 OA
ATOM      8  N   UNL     1      -2.897  12.608  20.148  0.00  0.00    +0.000 N 
ATOM      9  C   UNL     1      -2.883  11.781  18.972  0.00  0.00    +0.000 A 
ATOM     10  C   UNL     1      -3.971  11.692  18.098  0.00  0.00    +0.000 A 
ATOM     11  C   UNL     1      -3.888  10.899  16.952  0.00  0.00    +0.000 A 
ATOM     12  C   UNL     1      -2.721  10.197  16.710  0.00  0.00    +0.000 A 
ATOM     13  N   UNL     1      -1.660  10.214  17.540  0.00  0.00    +0.000 NA
ATOM     14  C   UNL     1      -1.761  10.998  18.644  0.00  0.00    +0.000 A 
ATOM     15  N   UNL     1      -0.696  11.014  19.558  0.00  0.00    +0.000 N 
ENDROOT
BRANCH   8  16
ATOM     16  C   UNL     1      -4.089  13.365  20.531  0.00  0.00    +0.000 C 
BRANCH  16  17
ATOM     17  C   UNL     1      -5.137  12.708  21.453  0.00  0.00    +0.000 C 
ATOM     18  O   UNL     1      -5.745  11.687  21.127  0.00  0.00    +0.000 OA
ATOM     19  N   UNL     1      -5.321  13.331  22.702  0.00  0.00    +0.000 N 
ATOM     20  C   UNL     1      -6.242  12.726  23.662  0.00  0.00    +0.000 C 
ATOM     21  C   UNL     1      -7.673  13.221  23.464  0.00  0.00    +0.000 C 
ATOM     22  C   UNL     1      -7.917  14.672  23.883  0.00  0.00    +0.000 C 
ATOM     23  C   UNL     1      -6.958  15.700  23.282  0.00  0.00    +0.000 C 
ATOM     24  C   UNL     1      -5.543  15.574  23.849  0.00  0.00    +0.000 C 
ATOM     25  C   UNL     1      -4.669  14.586  23.082  0.00  0.00    +0.000 C 
ENDBRANCH  16  17
ENDBRANCH   8  16
TORSDOF 2
ENDMDL
