MODEL 1
REMARK VINA RESULT:      -8.8      0.000      0.000
REMARK  Name = 
REMARK  5 active torsions:
REMARK  status: ('A' for Active; 'I' for Inactive)
REMARK    1  A    between atoms: C_1  and  C_2
REMARK    2  A    between atoms: C_9  and  C_10
REMARK    3  A    between atoms: N_12  and  C_13
REMARK    4  A    between atoms: C_13  and  C_14
REMARK    5  A    between atoms: C_23  and  O_24
REMARK                            x       y       z     vdW  Elec       q    Type
REMARK                         _______ _______ _______ _____ _____    ______ ____
ROOT
ATOM      1  C   UNL     1      -3.751  14.280  22.054  0.00  0.00    +0.000 C 
ATOM      2  C   UNL     1      -3.228  12.844  22.074  0.00  0.00    +0.000 C 
ATOM      3  C   UNL     1      -2.535  12.533  23.385  0.00  0.00    +0.000 C 
ATOM      4  O   UNL     1      -1.928  11.255  23.306  0.00  0.00    +0.000 OA
ATOM      5  C   UNL     1      -0.836  11.205  22.388  0.00  0.00    +0.000 C 
ATOM      6  C   UNL     1      -0.358   9.744  22.360  0.00  0.00    +0.000 C 
ATOM      7  N   UNL     1       0.522   9.431  21.216  0.00  0.00    +0.000 N 
ATOM      8  C   UNL     1       1.123   8.175  21.157  0.00  0.00    +0.000 A 
ATOM      9  C   UNL     1       1.783   7.672  20.101  0.00  0.00    +0.000 A 
ATOM     10  C   UNL     1       1.881   8.558  18.917  0.00  0.00    +0.000 A 
ATOM     11  O   UNL     1       2.463   8.221  17.891  0.00  0.00    +0.000 OA
ATOM     12  C   UNL     1       1.191   9.885  18.943  0.00  0.00    +0.000 A 
ATOM     13  C   UNL     1       0.519  10.237  20.059  0.00  0.00    +0.000 A 
ATOM     14  C   UNL     1      -0.375  11.468  19.992  0.00  0.00    +0.000 C 
ATOM     15  O   UNL     1      -0.409  12.225  19.026  0.00  0.00    +0.000 OA
ATOM     16  N   UNL     1      -1.251  11.636  21.068  0.00  0.00    +0.000 N 
ATOM     17  C   UNL     1      -2.312  12.598  20.883  0.00  0.00    +0.000 C 
ENDROOT
BRANCH   9  18
ATOM     18  C   UNL     1       2.288   6.273  20.153  0.00  0.00    +0.000 C 
ATOM     19  O   UNL     1       1.625   5.373  20.659  0.00  0.00    +0.000 OA
ATOM     20  N   UNL     1       3.513   6.069  19.576  0.00  0.00    +0.000 N 
ATOM     21  H   UNL     1       4.015   6.863  19.181  0.00  0.00    +0.000 HD
BRANCH  20  22
ATOM     22  C   UNL     1       4.122   4.764  19.457  0.00  0.00    +0.000 C 
BRANCH  22  23
ATOM     23  C   UNL     1       4.981   4.662  18.222  0.00  0.00    +0.000 A 
ATOM     24  C   UNL     1       6.369   4.866  18.317  0.00  0.00    +0.000 A 
ATOM     25  C   UNL     1       7.185   4.739  17.186  0.00  0.00    +0.000 A 
ATOM     26  C   UNL     1       6.609   4.418  15.966  0.00  0.00    +0.000 A 
ATOM     27  F   UNL     1       7.383   4.278  14.887  0.00  0.00    +0.000 F 
ATOM     28  C   UNL     1       5.226   4.238  15.846  0.00  0.00    +0.000 A 
ATOM     29  C   UNL     1       4.419   4.366  16.974  0.00  0.00    +0.000 A 
ENDBRANCH  22  23
ENDBRANCH  20  22
ENDBRANCH   9  18
BRANCH  12  30
ATOM     30  O   UNL     1       1.245  10.611  17.767  0.00  0.00    +0.000 OA
ATOM     31  H   UNL     1       0.712  10.113  17.114  0.00  0.00    +0.000 HD
ENDBRANCH  12  30
TORSDOF 4
ENDMDL
MODEL 2
REMARK VINA RESULT:      -8.7      0.790      1.201
REMARK  Name = 
REMARK  5 active torsions:
REMARK  status: ('A' for Active; 'I' for Inactive)
REMARK    1  A    between atoms: C_1  and  C_2
REMARK    2  A    between atoms: C_9  and  C_10
REMARK    3  A    between atoms: N_12  and  C_13
REMARK    4  A    between atoms: C_13  and  C_14
REMARK    5  A    between atoms: C_23  and  O_24
REMARK                            x       y       z     vdW  Elec       q    Type
REMARK                         _______ _______ _______ _____ _____    ______ ____
ROOT
ATOM      1  C   UNL     1      -3.088  13.718  22.449  0.00  0.00    +0.000 C 
ATOM      2  C   UNL     1      -2.598  12.285  22.247  0.00  0.00    +0.000 C 
ATOM      3  C   UNL     1      -1.864  11.781  23.472  0.00  0.00    +0.000 C 
ATOM      4  O   UNL     1      -1.289  10.516  23.190  0.00  0.00    +0.000 OA
ATOM      5  C   UNL     1      -0.234  10.576  22.231  0.00  0.00    +0.000 C 
ATOM      6  C   UNL     1       0.209   9.126  21.980  0.00  0.00    +0.000 C 
ATOM      7  N   UNL     1       1.038   8.961  20.769  0.00  0.00    +0.000 N 
ATOM      8  C   UNL     1       1.607   7.716  20.511  0.00  0.00    +0.000 A 
ATOM      9  C   UNL     1       2.215   7.355  19.369  0.00  0.00    +0.000 A 
ATOM     10  C   UNL     1       2.289   8.397  18.318  0.00  0.00    +0.000 A 
ATOM     11  O   UNL     1       2.824   8.198  17.232  0.00  0.00    +0.000 OA
ATOM     12  C   UNL     1       1.632   9.719  18.556  0.00  0.00    +0.000 A 
ATOM     13  C   UNL     1       1.010   9.923  19.737  0.00  0.00    +0.000 A 
ATOM     14  C   UNL     1       0.143  11.166  19.879  0.00  0.00    +0.000 C 
ATOM     15  O   UNL     1       0.090  12.051  19.031  0.00  0.00    +0.000 OA
ATOM     16  N   UNL     1      -0.689  11.196  21.002  0.00  0.00    +0.000 N 
ATOM     17  C   UNL     1      -1.733  12.193  20.997  0.00  0.00    +0.000 C 
ENDROOT
BRANCH   9  18
ATOM     18  C   UNL     1       2.690   5.955  19.204  0.00  0.00    +0.000 C 
ATOM     19  O   UNL     1       1.969   5.089  18.715  0.00  0.00    +0.000 OA
ATOM     20  N   UNL     1       3.978   5.719  19.606  0.00  0.00    +0.000 N 
ATOM     21  H   UNL     1       4.518   6.480  20.012  0.00  0.00    +0.000 HD
BRANCH  20  22
ATOM     22  C   UNL     1       4.634   4.442  19.443  0.00  0.00    +0.000 C 
BRANCH  22  23
ATOM     23  C   UNL     1       5.366   4.358  18.127  0.00  0.00    +0.000 A 
ATOM     24  C   UNL     1       4.698   3.885  16.984  0.00  0.00    +0.000 A 
ATOM     25  C   UNL     1       5.353   3.834  15.748  0.00  0.00    +0.000 A 
ATOM     26  C   UNL     1       6.673   4.250  15.661  0.00  0.00    +0.000 A 
ATOM     27  F   UNL     1       7.298   4.221  14.482  0.00  0.00    +0.000 F 
ATOM     28  C   UNL     1       7.363   4.699  16.793  0.00  0.00    +0.000 A 
ATOM     29  C   UNL     1       6.708   4.746  18.021  0.00  0.00    +0.000 A 
ENDBRANCH  22  23
ENDBRANCH  20  22
ENDBRANCH   9  18
BRANCH  12  30
ATOM     30  O   UNL     1       1.658  10.602  17.493  0.00  0.00    +0.000 OA
ATOM     31  H   UNL     1       1.830  11.486  17.876  0.00  0.00    +0.000 HD
ENDBRANCH  12  30
TORSDOF 4
ENDMDL
MODEL 3
REMARK VINA RESULT:      -8.2      3.680      9.699
REMARK  Name = 
REMARK  5 active torsions:
REMARK  status: ('A' for Active; 'I' for Inactive)
REMARK    1  A    between atoms: C_1  and  C_2
REMARK    2  A    between atoms: C_9  and  C_10
REMARK    3  A    between atoms: N_12  and  C_13
REMARK    4  A    between atoms: C_13  and  C_14
REMARK    5  A    between atoms: C_23  and  O_24
REMARK                            x       y       z     vdW  Elec       q    Type
REMARK                         _______ _______ _______ _____ _____    ______ ____
ROOT
ATOM      1  C   UNL     1       5.433   4.009  16.986  0.00  0.00    +0.000 C 
ATOM      2  C   UNL     1       4.865   4.759  18.190  0.00  0.00    +0.000 C 
ATOM      3  C   UNL     1       3.836   3.921  18.920  0.00  0.00    +0.000 C 
ATOM      4  O   UNL     1       3.219   4.704  19.929  0.00  0.00    +0.000 OA
ATOM      5  C   UNL     1       2.410   5.759  19.409  0.00  0.00    +0.000 C 
ATOM      6  C   UNL     1       1.898   6.551  20.622  0.00  0.00    +0.000 C 
ATOM      7  N   UNL     1       1.342   7.875  20.272  0.00  0.00    +0.000 N 
ATOM      8  C   UNL     1       0.728   8.628  21.270  0.00  0.00    +0.000 A 
ATOM      9  C   UNL     1       0.353   9.914  21.162  0.00  0.00    +0.000 A 
ATOM     10  C   UNL     1       0.611  10.554  19.851  0.00  0.00    +0.000 A 
ATOM     11  O   UNL     1       0.310  11.721  19.619  0.00  0.00    +0.000 OA
ATOM     12  C   UNL     1       1.323   9.778  18.789  0.00  0.00    +0.000 A 
ATOM     13  C   UNL     1       1.687   8.506  19.059  0.00  0.00    +0.000 A 
ATOM     14  C   UNL     1       2.616   7.809  18.075  0.00  0.00    +0.000 C 
ATOM     15  O   UNL     1       2.938   8.291  16.994  0.00  0.00    +0.000 OA
ATOM     16  N   UNL     1       3.180   6.611  18.525  0.00  0.00    +0.000 N 
ATOM     17  C   UNL     1       4.291   6.101  17.755  0.00  0.00    +0.000 C 
ENDROOT
BRANCH   9  18
ATOM     18  C   UNL     1      -0.205  10.615  22.349  0.00  0.00    +0.000 C 
ATOM     19  O   UNL     1      -0.036  10.182  23.485  0.00  0.00    +0.000 OA
ATOM     20  N   UNL     1      -0.882  11.776  22.083  0.00  0.00    +0.000 N 
ATOM     21  H   UNL     1      -0.993  12.075  21.115  0.00  0.00    +0.000 HD
BRANCH  20  22
ATOM     22  C   UNL     1      -1.416  12.633  23.115  0.00  0.00    +0.000 C 
BRANCH  22  23
ATOM     23  C   UNL     1      -2.919  12.725  23.037  0.00  0.00    +0.000 A 
ATOM     24  C   UNL     1      -3.553  12.790  21.784  0.00  0.00    +0.000 A 
ATOM     25  C   UNL     1      -4.949  12.840  21.694  0.00  0.00    +0.000 A 
ATOM     26  C   UNL     1      -5.705  12.833  22.857  0.00  0.00    +0.000 A 
ATOM     27  F   UNL     1      -7.037  12.863  22.779  0.00  0.00    +0.000 F 
ATOM     28  C   UNL     1      -5.092  12.796  24.115  0.00  0.00    +0.000 A 
ATOM     29  C   UNL     1      -3.702  12.748  24.198  0.00  0.00    +0.000 A 
ENDBRANCH  22  23
ENDBRANCH  20  22
ENDBRANCH   9  18
BRANCH  12  30
ATOM     30  O   UNL     1       1.614  10.475  17.631  0.00  0.00    +0.000 OA
ATOM     31  H   UNL     1       2.436  10.974  17.812  0.00  0.00    +0.000 HD
ENDBRANCH  12  30
TORSDOF 4
ENDMDL
MODEL 4
REMARK VINA RESULT:      -8.0      3.007      3.882
REMARK  Name = 
REMARK  5 active torsions:
REMARK  status: ('A' for Active; 'I' for Inactive)
REMARK    1  A    between atoms: C_1  and  C_2
REMARK    2  A    between atoms: C_9  and  C_10
REMARK    3  A    between atoms: N_12  and  C_13
REMARK    4  A    between atoms: C_13  and  C_14
REMARK    5  A    between atoms: C_23  and  O_24
REMARK                            x       y       z     vdW  Elec       q    Type
REMARK                         _______ _______ _______ _____ _____    ______ ____
ROOT
ATOM      1  C   UNL     1      -4.244  15.591  23.937  0.00  0.00    +0.000 C 
ATOM      2  C   UNL     1      -3.197  14.520  23.633  0.00  0.00    +0.000 C 
ATOM      3  C   UNL     1      -1.800  15.106  23.636  0.00  0.00    +0.000 C 
ATOM      4  O   UNL     1      -0.876  14.125  23.196  0.00  0.00    +0.000 OA
ATOM      5  C   UNL     1      -1.035  13.776  21.821  0.00  0.00    +0.000 C 
ATOM      6  C   UNL     1      -0.027  12.651  21.539  0.00  0.00    +0.000 C 
ATOM      7  N   UNL     1      -0.287  11.926  20.278  0.00  0.00    +0.000 N 
ATOM      8  C   UNL     1       0.635  10.973  19.850  0.00  0.00    +0.000 A 
ATOM      9  C   UNL     1       0.451  10.101  18.845  0.00  0.00    +0.000 A 
ATOM     10  C   UNL     1      -0.846  10.196  18.136  0.00  0.00    +0.000 A 
ATOM     11  O   UNL     1      -1.137   9.463  17.196  0.00  0.00    +0.000 OA
ATOM     12  C   UNL     1      -1.871  11.173  18.620  0.00  0.00    +0.000 A 
ATOM     13  C   UNL     1      -1.564  11.952  19.679  0.00  0.00    +0.000 A 
ATOM     14  C   UNL     1      -2.686  12.763  20.313  0.00  0.00    +0.000 C 
ATOM     15  O   UNL     1      -3.811  12.848  19.832  0.00  0.00    +0.000 OA
ATOM     16  N   UNL     1      -2.389  13.333  21.555  0.00  0.00    +0.000 N 
ATOM     17  C   UNL     1      -3.513  13.830  22.313  0.00  0.00    +0.000 C 
ENDROOT
BRANCH   9  18
ATOM     18  C   UNL     1       1.492   9.075  18.567  0.00  0.00    +0.000 C 
ATOM     19  O   UNL     1       2.122   9.073  17.514  0.00  0.00    +0.000 OA
ATOM     20  N   UNL     1       1.708   8.170  19.572  0.00  0.00    +0.000 N 
ATOM     21  H   UNL     1       1.144   8.223  20.418  0.00  0.00    +0.000 HD
BRANCH  20  22
ATOM     22  C   UNL     1       2.737   7.157  19.514  0.00  0.00    +0.000 C 
BRANCH  22  23
ATOM     23  C   UNL     1       2.151   5.780  19.337  0.00  0.00    +0.000 A 
ATOM     24  C   UNL     1       2.155   5.175  18.068  0.00  0.00    +0.000 A 
ATOM     25  C   UNL     1       1.647   3.882  17.894  0.00  0.00    +0.000 A 
ATOM     26  C   UNL     1       1.131   3.203  18.988  0.00  0.00    +0.000 A 
ATOM     27  F   UNL     1       0.661   1.962  18.833  0.00  0.00    +0.000 F 
ATOM     28  C   UNL     1       1.093   3.798  20.254  0.00  0.00    +0.000 A 
ATOM     29  C   UNL     1       1.598   5.085  20.421  0.00  0.00    +0.000 A 
ENDBRANCH  22  23
ENDBRANCH  20  22
ENDBRANCH   9  18
BRANCH  12  30
ATOM     30  O   UNL     1      -3.090  11.134  17.970  0.00  0.00    +0.000 OA
ATOM     31  H   UNL     1      -3.626  10.458  18.435  0.00  0.00    +0.000 HD
ENDBRANCH  12  30
TORSDOF 4
ENDMDL
MODEL 5
REMARK VINA RESULT:      -7.9      2.918      4.338
REMARK  Name = 
REMARK  5 active torsions:
REMARK  status: ('A' for Active; 'I' for Inactive)
REMARK    1  A    between atoms: C_1  and  C_2
REMARK    2  A    between atoms: C_9  and  C_10
REMARK    3  A    between atoms: N_12  and  C_13
REMARK    4  A    between atoms: C_13  and  C_14
REMARK    5  A    between atoms: C_23  and  O_24
REMARK                            x       y       z     vdW  Elec       q    Type
REMARK                         _______ _______ _______ _____ _____    ______ ____
ROOT
ATOM      1  C   UNL     1      -1.358  17.869  22.362  0.00  0.00    +0.000 C 
ATOM      2  C   UNL     1      -0.599  16.872  21.488  0.00  0.00    +0.000 C 
ATOM      3  C   UNL     1      -1.215  16.776  20.107  0.00  0.00    +0.000 C 
ATOM      4  O   UNL     1      -0.587  15.732  19.382  0.00  0.00    +0.000 OA
ATOM      5  C   UNL     1      -0.864  14.434  19.907  0.00  0.00    +0.000 C 
ATOM      6  C   UNL     1      -0.044  13.442  19.067  0.00  0.00    +0.000 C 
ATOM      7  N   UNL     1       0.074  12.104  19.682  0.00  0.00    +0.000 N 
ATOM      8  C   UNL     1       0.682  11.084  18.953  0.00  0.00    +0.000 A 
ATOM      9  C   UNL     1       1.038   9.882  19.435  0.00  0.00    +0.000 A 
ATOM     10  C   UNL     1       0.729   9.641  20.864  0.00  0.00    +0.000 A 
ATOM     11  O   UNL     1       0.995   8.583  21.425  0.00  0.00    +0.000 OA
ATOM     12  C   UNL     1       0.130  10.746  21.676  0.00  0.00    +0.000 A 
ATOM     13  C   UNL     1      -0.127  11.923  21.066  0.00  0.00    +0.000 A 
ATOM     14  C   UNL     1      -0.504  13.109  21.942  0.00  0.00    +0.000 C 
ATOM     15  O   UNL     1      -0.716  13.018  23.147  0.00  0.00    +0.000 OA
ATOM     16  N   UNL     1      -0.493  14.355  21.306  0.00  0.00    +0.000 N 
ATOM     17  C   UNL     1      -0.535  15.512  22.169  0.00  0.00    +0.000 C 
ENDROOT
BRANCH   9  18
ATOM     18  C   UNL     1       1.769   8.928  18.558  0.00  0.00    +0.000 C 
ATOM     19  O   UNL     1       2.010   9.196  17.384  0.00  0.00    +0.000 OA
ATOM     20  N   UNL     1       2.169   7.764  19.158  0.00  0.00    +0.000 N 
ATOM     21  H   UNL     1       1.928   7.601  20.135  0.00  0.00    +0.000 HD
BRANCH  20  22
ATOM     22  C   UNL     1       2.963   6.762  18.486  0.00  0.00    +0.000 C 
BRANCH  22  23
ATOM     23  C   UNL     1       2.416   5.375  18.715  0.00  0.00    +0.000 A 
ATOM     24  C   UNL     1       2.462   4.425  17.681  0.00  0.00    +0.000 A 
ATOM     25  C   UNL     1       1.992   3.123  17.889  0.00  0.00    +0.000 A 
ATOM     26  C   UNL     1       1.470   2.779  19.128  0.00  0.00    +0.000 A 
ATOM     27  F   UNL     1       1.036   1.535  19.339  0.00  0.00    +0.000 F 
ATOM     28  C   UNL     1       1.391   3.719  20.162  0.00  0.00    +0.000 A 
ATOM     29  C   UNL     1       1.860   5.013  19.949  0.00  0.00    +0.000 A 
ENDBRANCH  22  23
ENDBRANCH  20  22
ENDBRANCH   9  18
BRANCH  12  30
ATOM     30  O   UNL     1      -0.037  10.478  23.022  0.00  0.00    +0.000 OA
ATOM     31  H   UNL     1      -0.020   9.503  23.110  0.00  0.00    +0.000 HD
ENDBRANCH  12  30
TORSDOF 4
ENDMDL
MODEL 6
REMARK VINA RESULT:      -7.8      2.198      4.200
REMARK  Name = 
REMARK  5 active torsions:
REMARK  status: ('A' for Active; 'I' for Inactive)
REMARK    1  A    between atoms: C_1  and  C_2
REMARK    2  A    between atoms: C_9  and  C_10
REMARK    3  A    between atoms: N_12  and  C_13
REMARK    4  A    between atoms: C_13  and  C_14
REMARK    5  A    between atoms: C_23  and  O_24
REMARK                            x       y       z     vdW  Elec       q    Type
REMARK                         _______ _______ _______ _____ _____    ______ ____
ROOT
ATOM      1  C   UNL     1      -1.359  11.282  22.984  0.00  0.00    +0.000 C 
ATOM      2  C   UNL     1      -0.253  11.111  21.942  0.00  0.00    +0.000 C 
ATOM      3  C   UNL     1      -0.754  11.454  20.554  0.00  0.00    +0.000 C 
ATOM      4  O   UNL     1       0.245  11.132  19.600  0.00  0.00    +0.000 OA
ATOM      5  C   UNL     1       0.479   9.729  19.479  0.00  0.00    +0.000 C 
ATOM      6  C   UNL     1       1.638   9.566  18.482  0.00  0.00    +0.000 C 
ATOM      7  N   UNL     1       2.250   8.221  18.501  0.00  0.00    +0.000 N 
ATOM      8  C   UNL     1       3.220   7.914  17.550  0.00  0.00    +0.000 A 
ATOM      9  C   UNL     1       4.002   6.822  17.554  0.00  0.00    +0.000 A 
ATOM     10  C   UNL     1       3.778   5.870  18.667  0.00  0.00    +0.000 A 
ATOM     11  O   UNL     1       4.419   4.831  18.783  0.00  0.00    +0.000 OA
ATOM     12  C   UNL     1       2.781   6.213  19.729  0.00  0.00    +0.000 A 
ATOM     13  C   UNL     1       2.103   7.376  19.620  0.00  0.00    +0.000 A 
ATOM     14  C   UNL     1       1.277   7.830  20.815  0.00  0.00    +0.000 C 
ATOM     15  O   UNL     1       1.090   7.136  21.809  0.00  0.00    +0.000 OA
ATOM     16  N   UNL     1       0.820   9.151  20.764  0.00  0.00    +0.000 N 
ATOM     17  C   UNL     1       0.316   9.700  22.001  0.00  0.00    +0.000 C 
ENDROOT
BRANCH   9  18
ATOM     18  C   UNL     1       5.064   6.679  16.522  0.00  0.00    +0.000 C 
ATOM     19  O   UNL     1       5.020   7.307  15.469  0.00  0.00    +0.000 OA
ATOM     20  N   UNL     1       6.089   5.830  16.847  0.00  0.00    +0.000 N 
ATOM     21  H   UNL     1       6.059   5.333  17.735  0.00  0.00    +0.000 HD
BRANCH  20  22
ATOM     22  C   UNL     1       7.247   5.633  16.006  0.00  0.00    +0.000 C 
BRANCH  22  23
ATOM     23  C   UNL     1       6.895   4.895  14.739  0.00  0.00    +0.000 A 
ATOM     24  C   UNL     1       7.646   5.111  13.571  0.00  0.00    +0.000 A 
ATOM     25  C   UNL     1       7.355   4.407  12.397  0.00  0.00    +0.000 A 
ATOM     26  C   UNL     1       6.308   3.496  12.394  0.00  0.00    +0.000 A 
ATOM     27  F   UNL     1       6.035   2.808  11.283  0.00  0.00    +0.000 F 
ATOM     28  C   UNL     1       5.531   3.287  13.539  0.00  0.00    +0.000 A 
ATOM     29  C   UNL     1       5.825   3.991  14.704  0.00  0.00    +0.000 A 
ENDBRANCH  22  23
ENDBRANCH  20  22
ENDBRANCH   9  18
BRANCH  12  30
ATOM     30  O   UNL     1       2.699   5.324  20.784  0.00  0.00    +0.000 OA
ATOM     31  H   UNL     1       1.953   4.724  20.578  0.00  0.00    +0.000 HD
ENDBRANCH  12  30
TORSDOF 4
ENDMDL
MODEL 7
REMARK VINA RESULT:      -7.7      2.547      4.829
REMARK  Name = 
REMARK  5 active torsions:
REMARK  status: ('A' for Active; 'I' for Inactive)
REMARK    1  A    between atoms: C_1  and  C_2
REMARK    2  A    between atoms: C_9  and  C_10
REMARK    3  A    between atoms: N_12  and  C_13
REMARK    4  A    between atoms: C_13  and  C_14
REMARK    5  A    between atoms: C_23  and  O_24
REMARK                            x       y       z     vdW  Elec       q    Type
REMARK                         _______ _______ _______ _____ _____    ______ ____
ROOT
ATOM      1  C   UNL     1      -1.072  11.731  21.084  0.00  0.00    +0.000 C 
ATOM      2  C   UNL     1       0.186  11.267  20.351  0.00  0.00    +0.000 C 
ATOM      3  C   UNL     1      -0.001  11.333  18.849  0.00  0.00    +0.000 C 
ATOM      4  O   UNL     1       1.120  10.748  18.208  0.00  0.00    +0.000 OA
ATOM      5  C   UNL     1       1.221   9.340  18.421  0.00  0.00    +0.000 C 
ATOM      6  C   UNL     1       2.523   8.890  17.739  0.00  0.00    +0.000 C 
ATOM      7  N   UNL     1       2.973   7.545  18.152  0.00  0.00    +0.000 N 
ATOM      8  C   UNL     1       4.068   6.976  17.505  0.00  0.00    +0.000 A 
ATOM      9  C   UNL     1       4.712   5.862  17.889  0.00  0.00    +0.000 A 
ATOM     10  C   UNL     1       4.180   5.191  19.098  0.00  0.00    +0.000 A 
ATOM     11  O   UNL     1       4.673   4.162  19.549  0.00  0.00    +0.000 OA
ATOM     12  C   UNL     1       3.042   5.820  19.838  0.00  0.00    +0.000 A 
ATOM     13  C   UNL     1       2.526   6.973  19.362  0.00  0.00    +0.000 A 
ATOM     14  C   UNL     1       1.542   7.728  20.243  0.00  0.00    +0.000 C 
ATOM     15  O   UNL     1       1.096   7.279  21.295  0.00  0.00    +0.000 OA
ATOM     16  N   UNL     1       1.248   9.033  19.837  0.00  0.00    +0.000 N 
ATOM     17  C   UNL     1       0.579   9.868  20.807  0.00  0.00    +0.000 C 
ENDROOT
BRANCH   9  18
ATOM     18  C   UNL     1       5.930   5.431  17.151  0.00  0.00    +0.000 C 
ATOM     19  O   UNL     1       6.758   4.684  17.664  0.00  0.00    +0.000 OA
ATOM     20  N   UNL     1       6.036   5.898  15.867  0.00  0.00    +0.000 N 
ATOM     21  H   UNL     1       5.316   6.522  15.505  0.00  0.00    +0.000 HD
BRANCH  20  22
ATOM     22  C   UNL     1       7.104   5.515  14.973  0.00  0.00    +0.000 C 
BRANCH  22  23
ATOM     23  C   UNL     1       6.614   4.593  13.886  0.00  0.00    +0.000 A 
ATOM     24  C   UNL     1       5.305   4.083  13.936  0.00  0.00    +0.000 A 
ATOM     25  C   UNL     1       4.823   3.255  12.916  0.00  0.00    +0.000 A 
ATOM     26  C   UNL     1       5.655   2.934  11.853  0.00  0.00    +0.000 A 
ATOM     27  F   UNL     1       5.197   2.160  10.867  0.00  0.00    +0.000 F 
ATOM     28  C   UNL     1       6.970   3.410  11.797  0.00  0.00    +0.000 A 
ATOM     29  C   UNL     1       7.444   4.233  12.816  0.00  0.00    +0.000 A 
ENDBRANCH  22  23
ENDBRANCH  20  22
ENDBRANCH   9  18
BRANCH  12  30
ATOM     30  O   UNL     1       2.667   5.187  21.009  0.00  0.00    +0.000 OA
ATOM     31  H   UNL     1       3.477   5.118  21.554  0.00  0.00    +0.000 HD
ENDBRANCH  12  30
TORSDOF 4
ENDMDL
MODEL 8
REMARK VINA RESULT:      -7.7      3.611      9.386
REMARK  Name = 
REMARK  5 active torsions:
REMARK  status: ('A' for Active; 'I' for Inactive)
REMARK    1  A    between atoms: C_1  and  C_2
REMARK    2  A    between atoms: C_9  and  C_10
REMARK    3  A    between atoms: N_12  and  C_13
REMARK    4  A    between atoms: C_13  and  C_14
REMARK    5  A    between atoms: C_23  and  O_24
REMARK                            x       y       z     vdW  Elec       q    Type
REMARK                         _______ _______ _______ _____ _____    ______ ____
ROOT
ATOM      1  C   UNL     1       6.163   4.165  16.525  0.00  0.00    +0.000 C 
ATOM      2  C   UNL     1       5.571   4.828  17.768  0.00  0.00    +0.000 C 
ATOM      3  C   UNL     1       4.669   3.871  18.520  0.00  0.00    +0.000 C 
ATOM      4  O   UNL     1       4.016   4.566  19.570  0.00  0.00    +0.000 OA
ATOM      5  C   UNL     1       3.077   5.536  19.106  0.00  0.00    +0.000 C 
ATOM      6  C   UNL     1       2.535   6.247  20.357  0.00  0.00    +0.000 C 
ATOM      7  N   UNL     1       1.827   7.509  20.059  0.00  0.00    +0.000 N 
ATOM      8  C   UNL     1       1.179   8.175  21.097  0.00  0.00    +0.000 A 
ATOM      9  C   UNL     1       0.664   9.414  21.032  0.00  0.00    +0.000 A 
ATOM     10  C   UNL     1       0.796  10.101  19.726  0.00  0.00    +0.000 A 
ATOM     11  O   UNL     1       0.363  11.233  19.533  0.00  0.00    +0.000 OA
ATOM     12  C   UNL     1       1.541   9.425  18.619  0.00  0.00    +0.000 A 
ATOM     13  C   UNL     1       2.050   8.195  18.847  0.00  0.00    +0.000 A 
ATOM     14  C   UNL     1       3.005   7.620  17.811  0.00  0.00    +0.000 C 
ATOM     15  O   UNL     1       3.227   8.152  16.728  0.00  0.00    +0.000 OA
ATOM     16  N   UNL     1       3.713   6.482  18.211  0.00  0.00    +0.000 N 
ATOM     17  C   UNL     1       4.838   6.107  17.386  0.00  0.00    +0.000 C 
ENDROOT
BRANCH   9  18
ATOM     18  C   UNL     1       0.086  10.030  22.257  0.00  0.00    +0.000 C 
ATOM     19  O   UNL     1       0.459   9.697  23.377  0.00  0.00    +0.000 OA
ATOM     20  N   UNL     1      -0.855  11.002  22.038  0.00  0.00    +0.000 N 
ATOM     21  H   UNL     1      -1.125  11.224  21.081  0.00  0.00    +0.000 HD
BRANCH  20  22
ATOM     22  C   UNL     1      -1.461  11.768  23.102  0.00  0.00    +0.000 C 
BRANCH  22  23
ATOM     23  C   UNL     1      -1.083  13.225  23.022  0.00  0.00    +0.000 A 
ATOM     24  C   UNL     1      -0.111  13.647  22.098  0.00  0.00    +0.000 A 
ATOM     25  C   UNL     1       0.225  15.001  21.987  0.00  0.00    +0.000 A 
ATOM     26  C   UNL     1      -0.406  15.926  22.806  0.00  0.00    +0.000 A 
ATOM     27  F   UNL     1      -0.103  17.222  22.693  0.00  0.00    +0.000 F 
ATOM     28  C   UNL     1      -1.356  15.523  23.751  0.00  0.00    +0.000 A 
ATOM     29  C   UNL     1      -1.686  14.174  23.858  0.00  0.00    +0.000 A 
ENDBRANCH  22  23
ENDBRANCH  20  22
ENDBRANCH   9  18
BRANCH  12  30
ATOM     30  O   UNL     1       1.706  10.169  17.466  0.00  0.00    +0.000 OA
ATOM     31  H   UNL     1       2.666  10.346  17.391  0.00  0.00    +0.000 HD
ENDBRANCH  12  30
TORSDOF 4
ENDMDL
MODEL 9
REMARK VINA RESULT:      -7.7      3.178      4.435
REMARK  Name = 
REMARK  5 active torsions:
REMARK  status: ('A' for Active; 'I' for Inactive)
REMARK    1  A    between atoms: C_1  and  C_2
REMARK    2  A    between atoms: C_9  and  C_10
REMARK    3  A    between atoms: N_12  and  C_13
REMARK    4  A    between atoms: C_13  and  C_14
REMARK    5  A    between atoms: C_23  and  O_24
REMARK                            x       y       z     vdW  Elec       q    Type
REMARK                         _______ _______ _______ _____ _____    ______ ____
ROOT
ATOM      1  C   UNL     1      -0.178  17.953  21.026  0.00  0.00    +0.000 C 
ATOM      2  C   UNL     1       0.524  16.734  20.427  0.00  0.00    +0.000 C 
ATOM      3  C   UNL     1       0.080  16.495  18.999  0.00  0.00    +0.000 C 
ATOM      4  O   UNL     1       0.626  15.272  18.534  0.00  0.00    +0.000 OA
ATOM      5  C   UNL     1       0.088  14.126  19.194  0.00  0.00    +0.000 C 
ATOM      6  C   UNL     1       0.845  12.909  18.638  0.00  0.00    +0.000 C 
ATOM      7  N   UNL     1       0.676  11.687  19.450  0.00  0.00    +0.000 N 
ATOM      8  C   UNL     1       1.207  10.489  18.975  0.00  0.00    +0.000 A 
ATOM      9  C   UNL     1       1.309   9.346  19.674  0.00  0.00    +0.000 A 
ATOM     10  C   UNL     1       0.787   9.387  21.060  0.00  0.00    +0.000 A 
ATOM     11  O   UNL     1       0.814   8.410  21.801  0.00  0.00    +0.000 OA
ATOM     12  C   UNL     1       0.269  10.681  21.605  0.00  0.00    +0.000 A 
ATOM     13  C   UNL     1       0.276  11.764  20.800  0.00  0.00    +0.000 A 
ATOM     14  C   UNL     1      -0.022  13.118  21.429  0.00  0.00    +0.000 C 
ATOM     15  O   UNL     1      -0.397  13.255  22.589  0.00  0.00    +0.000 OA
ATOM     16  N   UNL     1       0.262  14.229  20.629  0.00  0.00    +0.000 N 
ATOM     17  C   UNL     1       0.290  15.508  21.300  0.00  0.00    +0.000 C 
ENDROOT
BRANCH   9  18
ATOM     18  C   UNL     1       1.989   8.173  19.062  0.00  0.00    +0.000 C 
ATOM     19  O   UNL     1       2.019   8.015  17.845  0.00  0.00    +0.000 OA
ATOM     20  N   UNL     1       2.594   7.318  19.944  0.00  0.00    +0.000 N 
ATOM     21  H   UNL     1       2.524   7.504  20.943  0.00  0.00    +0.000 HD
BRANCH  20  22
ATOM     22  C   UNL     1       3.373   6.175  19.528  0.00  0.00    +0.000 C 
BRANCH  22  23
ATOM     23  C   UNL     1       2.503   4.966  19.292  0.00  0.00    +0.000 A 
ATOM     24  C   UNL     1       1.910   4.307  20.382  0.00  0.00    +0.000 A 
ATOM     25  C   UNL     1       1.071   3.205  20.177  0.00  0.00    +0.000 A 
ATOM     26  C   UNL     1       0.835   2.763  18.883  0.00  0.00    +0.000 A 
ATOM     27  F   UNL     1       0.022   1.724  18.678  0.00  0.00    +0.000 F 
ATOM     28  C   UNL     1       1.437   3.390  17.786  0.00  0.00    +0.000 A 
ATOM     29  C   UNL     1       2.272   4.485  17.997  0.00  0.00    +0.000 A 
ENDBRANCH  22  23
ENDBRANCH  20  22
ENDBRANCH   9  18
BRANCH  12  30
ATOM     30  O   UNL     1      -0.108  10.662  22.935  0.00  0.00    +0.000 OA
ATOM     31  H   UNL     1      -0.692   9.884  23.042  0.00  0.00    +0.000 HD
ENDBRANCH  12  30
TORSDOF 4
ENDMDL
