MODEL 1
REMARK VINA RESULT:      -8.0      0.000      0.000
REMARK  Name = 
REMARK  4 active torsions:
REMARK  status: ('A' for Active; 'I' for Inactive)
REMARK    1  A    between atoms: N_1  and  C_2
REMARK    2  A    between atoms: C_5  and  C_6
REMARK    3  A    between atoms: C_13  and  C_14
REMARK    4  A    between atoms: N_16  and  C_17
REMARK                            x       y       z     vdW  Elec       q    Type
REMARK                         _______ _______ _______ _____ _____    ______ ____
ROOT
ATOM      1  C   UNL     1       4.330   3.758  19.057  0.00  0.00    +0.000 A 
ATOM      2  N   UNL     1       3.446   4.014  20.037  0.00  0.00    +0.000 NA
ATOM      3  C   UNL     1       2.818   5.221  20.025  0.00  0.00    +0.000 A 
ATOM      4  C   UNL     1       3.010   6.222  19.073  0.00  0.00    +0.000 A 
ATOM      5  C   UNL     1       3.935   5.913  18.070  0.00  0.00    +0.000 A 
ATOM      6  C   UNL     1       4.597   4.672  18.043  0.00  0.00    +0.000 A 
ENDROOT
BRANCH   4   7
ATOM      7  C   UNL     1       2.273   7.504  19.108  0.00  0.00    +0.000 A 
ATOM      8  C   UNL     1       1.679   7.980  20.292  0.00  0.00    +0.000 A 
ATOM      9  C   UNL     1       0.942   9.169  20.314  0.00  0.00    +0.000 A 
ATOM     10  C   UNL     1       0.796   9.922  19.154  0.00  0.00    +0.000 A 
ATOM     11  C   UNL     1       1.392   9.489  17.975  0.00  0.00    +0.000 A 
ATOM     12  C   UNL     1       2.118   8.295  17.952  0.00  0.00    +0.000 A 
ENDBRANCH   4   7
BRANCH   6  13
ATOM     13  C   UNL     1       5.568   4.448  16.945  0.00  0.00    +0.000 C 
ATOM     14  O   UNL     1       6.736   4.249  17.262  0.00  0.00    +0.000 OA
ATOM     15  N   UNL     1       5.089   4.556  15.648  0.00  0.00    +0.000 N 
ATOM     16  H   UNL     1       4.118   4.841  15.539  0.00  0.00    +0.000 HD
BRANCH  15  17
ATOM     17  C   UNL     1       5.869   4.433  14.475  0.00  0.00    +0.000 A 
ATOM     18  C   UNL     1       7.059   5.128  14.277  0.00  0.00    +0.000 A 
ATOM     19  C   UNL     1       7.736   4.971  13.079  0.00  0.00    +0.000 A 
ATOM     20  N   UNL     1       7.311   4.172  12.078  0.00  0.00    +0.000 NA
ATOM     21  C   UNL     1       6.166   3.498  12.297  0.00  0.00    +0.000 A 
ATOM     22  C   UNL     1       5.427   3.578  13.467  0.00  0.00    +0.000 A 
ENDBRANCH  15  17
ENDBRANCH   6  13
BRANCH   1  23
ATOM     23  N   UNL     1       4.941   2.507  19.154  0.00  0.00    +0.000 N 
ATOM     24  H   UNL     1       5.322   2.320  18.225  0.00  0.00    +0.000 HD
ATOM     25  H   UNL     1       4.257   1.794  19.399  0.00  0.00    +0.000 HD
ENDBRANCH   1  23
TORSDOF 4
ENDMDL
MODEL 2
REMARK VINA RESULT:      -7.9      2.608      7.596
REMARK  Name = 
REMARK  4 active torsions:
REMARK  status: ('A' for Active; 'I' for Inactive)
REMARK    1  A    between atoms: N_1  and  C_2
REMARK    2  A    between atoms: C_5  and  C_6
REMARK    3  A    between atoms: C_13  and  C_14
REMARK    4  A    between atoms: N_16  and  C_17
REMARK                            x       y       z     vdW  Elec       q    Type
REMARK                         _______ _______ _______ _____ _____    ______ ____
ROOT
ATOM      1  C   UNL     1       6.968   5.541  16.583  0.00  0.00    +0.000 A 
ATOM      2  N   UNL     1       7.611   5.787  15.429  0.00  0.00    +0.000 NA
ATOM      3  C   UNL     1       7.194   5.122  14.317  0.00  0.00    +0.000 A 
ATOM      4  C   UNL     1       6.146   4.203  14.270  0.00  0.00    +0.000 A 
ATOM      5  C   UNL     1       5.502   3.980  15.492  0.00  0.00    +0.000 A 
ATOM      6  C   UNL     1       5.898   4.656  16.661  0.00  0.00    +0.000 A 
ENDROOT
BRANCH   4   7
ATOM      7  C   UNL     1       5.731   3.534  13.018  0.00  0.00    +0.000 A 
ATOM      8  C   UNL     1       4.492   3.813  12.410  0.00  0.00    +0.000 A 
ATOM      9  C   UNL     1       4.078   3.145  11.252  0.00  0.00    +0.000 A 
ATOM     10  C   UNL     1       4.903   2.193  10.663  0.00  0.00    +0.000 A 
ATOM     11  C   UNL     1       6.142   1.913  11.228  0.00  0.00    +0.000 A 
ATOM     12  C   UNL     1       6.549   2.574  12.392  0.00  0.00    +0.000 A 
ENDBRANCH   4   7
BRANCH   6  13
ATOM     13  C   UNL     1       5.159   4.339  17.907  0.00  0.00    +0.000 C 
ATOM     14  O   UNL     1       5.827   4.084  18.904  0.00  0.00    +0.000 OA
ATOM     15  N   UNL     1       3.776   4.284  17.823  0.00  0.00    +0.000 N 
ATOM     16  H   UNL     1       3.366   4.407  16.900  0.00  0.00    +0.000 HD
BRANCH  15  17
ATOM     17  C   UNL     1       2.905   3.944  18.885  0.00  0.00    +0.000 A 
ATOM     18  C   UNL     1       2.595   2.630  19.222  0.00  0.00    +0.000 A 
ATOM     19  C   UNL     1       1.702   2.396  20.255  0.00  0.00    +0.000 A 
ATOM     20  N   UNL     1       1.109   3.375  20.968  0.00  0.00    +0.000 NA
ATOM     21  C   UNL     1       1.434   4.638  20.635  0.00  0.00    +0.000 A 
ATOM     22  C   UNL     1       2.328   4.972  19.629  0.00  0.00    +0.000 A 
ENDBRANCH  15  17
ENDBRANCH   6  13
BRANCH   1  23
ATOM     23  N   UNL     1       7.469   6.250  17.676  0.00  0.00    +0.000 N 
ATOM     24  H   UNL     1       6.729   6.220  18.379  0.00  0.00    +0.000 HD
ATOM     25  H   UNL     1       7.663   7.215  17.416  0.00  0.00    +0.000 HD
ENDBRANCH   1  23
TORSDOF 4
ENDMDL
MODEL 3
REMARK VINA RESULT:      -7.9      3.040      7.608
REMARK  Name = 
REMARK  4 active torsions:
REMARK  status: ('A' for Active; 'I' for Inactive)
REMARK    1  A    between atoms: N_1  and  C_2
REMARK    2  A    between atoms: C_5  and  C_6
REMARK    3  A    between atoms: C_13  and  C_14
REMARK    4  A    between atoms: N_16  and  C_17
REMARK                            x       y       z     vdW  Elec       q    Type
REMARK                         _______ _______ _______ _____ _____    ______ ____
ROOT
ATOM      1  C   UNL     1       6.728   5.715  16.618  0.00  0.00    +0.000 A 
ATOM      2  N   UNL     1       7.575   5.715  15.574  0.00  0.00    +0.000 NA
ATOM      3  C   UNL     1       7.209   5.022  14.461  0.00  0.00    +0.000 A 
ATOM      4  C   UNL     1       6.020   4.310  14.306  0.00  0.00    +0.000 A 
ATOM      5  C   UNL     1       5.167   4.339  15.414  0.00  0.00    +0.000 A 
ATOM      6  C   UNL     1       5.505   5.052  16.579  0.00  0.00    +0.000 A 
ENDROOT
BRANCH   4   7
ATOM      7  C   UNL     1       5.677   3.598  13.056  0.00  0.00    +0.000 A 
ATOM      8  C   UNL     1       4.438   3.791  12.416  0.00  0.00    +0.000 A 
ATOM      9  C   UNL     1       4.094   3.082  11.259  0.00  0.00    +0.000 A 
ATOM     10  C   UNL     1       4.989   2.174  10.705  0.00  0.00    +0.000 A 
ATOM     11  C   UNL     1       6.229   1.980  11.302  0.00  0.00    +0.000 A 
ATOM     12  C   UNL     1       6.567   2.681  12.464  0.00  0.00    +0.000 A 
ENDBRANCH   4   7
BRANCH   6  13
ATOM     13  C   UNL     1       4.538   5.009  17.703  0.00  0.00    +0.000 C 
ATOM     14  O   UNL     1       4.399   6.035  18.361  0.00  0.00    +0.000 OA
ATOM     15  N   UNL     1       3.925   3.792  17.960  0.00  0.00    +0.000 N 
ATOM     16  H   UNL     1       4.226   2.998  17.399  0.00  0.00    +0.000 HD
BRANCH  15  17
ATOM     17  C   UNL     1       3.021   3.540  19.018  0.00  0.00    +0.000 A 
ATOM     18  C   UNL     1       1.674   3.890  18.967  0.00  0.00    +0.000 A 
ATOM     19  C   UNL     1       0.873   3.636  20.067  0.00  0.00    +0.000 A 
ATOM     20  N   UNL     1       1.320   3.057  21.201  0.00  0.00    +0.000 NA
ATOM     21  C   UNL     1       2.622   2.714  21.224  0.00  0.00    +0.000 A 
ATOM     22  C   UNL     1       3.498   2.913  20.168  0.00  0.00    +0.000 A 
ENDBRANCH  15  17
ENDBRANCH   6  13
BRANCH   1  23
ATOM     23  N   UNL     1       7.186   6.433  17.723  0.00  0.00    +0.000 N 
ATOM     24  H   UNL     1       6.983   7.411  17.513  0.00  0.00    +0.000 HD
ATOM     25  H   UNL     1       8.190   6.304  17.840  0.00  0.00    +0.000 HD
ENDBRANCH   1  23
TORSDOF 4
ENDMDL
MODEL 4
REMARK VINA RESULT:      -7.8      2.612      7.603
REMARK  Name = 
REMARK  4 active torsions:
REMARK  status: ('A' for Active; 'I' for Inactive)
REMARK    1  A    between atoms: N_1  and  C_2
REMARK    2  A    between atoms: C_5  and  C_6
REMARK    3  A    between atoms: C_13  and  C_14
REMARK    4  A    between atoms: N_16  and  C_17
REMARK                            x       y       z     vdW  Elec       q    Type
REMARK                         _______ _______ _______ _____ _____    ______ ____
ROOT
ATOM      1  C   UNL     1       6.956   5.562  16.589  0.00  0.00    +0.000 A 
ATOM      2  N   UNL     1       7.593   5.796  15.428  0.00  0.00    +0.000 NA
ATOM      3  C   UNL     1       7.172   5.117  14.326  0.00  0.00    +0.000 A 
ATOM      4  C   UNL     1       6.126   4.195  14.296  0.00  0.00    +0.000 A 
ATOM      5  C   UNL     1       5.489   3.984  15.523  0.00  0.00    +0.000 A 
ATOM      6  C   UNL     1       5.889   4.675  16.683  0.00  0.00    +0.000 A 
ENDROOT
BRANCH   4   7
ATOM      7  C   UNL     1       5.706   3.510  13.054  0.00  0.00    +0.000 A 
ATOM      8  C   UNL     1       6.535   2.568  12.416  0.00  0.00    +0.000 A 
ATOM      9  C   UNL     1       6.158   1.955  11.216  0.00  0.00    +0.000 A 
ATOM     10  C   UNL     1       4.932   2.257  10.633  0.00  0.00    +0.000 A 
ATOM     11  C   UNL     1       4.082   3.167  11.253  0.00  0.00    +0.000 A 
ATOM     12  C   UNL     1       4.466   3.787  12.446  0.00  0.00    +0.000 A 
ENDBRANCH   4   7
BRANCH   6  13
ATOM     13  C   UNL     1       5.158   4.370  17.936  0.00  0.00    +0.000 C 
ATOM     14  O   UNL     1       5.831   4.163  18.940  0.00  0.00    +0.000 OA
ATOM     15  N   UNL     1       3.777   4.271  17.853  0.00  0.00    +0.000 N 
ATOM     16  H   UNL     1       3.366   4.356  16.925  0.00  0.00    +0.000 HD
BRANCH  15  17
ATOM     17  C   UNL     1       2.915   3.934  18.922  0.00  0.00    +0.000 A 
ATOM     18  C   UNL     1       2.613   2.621  19.271  0.00  0.00    +0.000 A 
ATOM     19  C   UNL     1       1.728   2.390  20.310  0.00  0.00    +0.000 A 
ATOM     20  N   UNL     1       1.135   3.371  21.021  0.00  0.00    +0.000 NA
ATOM     21  C   UNL     1       1.452   4.633  20.676  0.00  0.00    +0.000 A 
ATOM     22  C   UNL     1       2.337   4.964  19.662  0.00  0.00    +0.000 A 
ENDBRANCH  15  17
ENDBRANCH   6  13
BRANCH   1  23
ATOM     23  N   UNL     1       7.461   6.284  17.671  0.00  0.00    +0.000 N 
ATOM     24  H   UNL     1       7.228   5.732  18.497  0.00  0.00    +0.000 HD
ATOM     25  H   UNL     1       7.016   7.199  17.727  0.00  0.00    +0.000 HD
ENDBRANCH   1  23
TORSDOF 4
ENDMDL
MODEL 5
REMARK VINA RESULT:      -7.8      0.085      1.432
REMARK  Name = 
REMARK  4 active torsions:
REMARK  status: ('A' for Active; 'I' for Inactive)
REMARK    1  A    between atoms: N_1  and  C_2
REMARK    2  A    between atoms: C_5  and  C_6
REMARK    3  A    between atoms: C_13  and  C_14
REMARK    4  A    between atoms: N_16  and  C_17
REMARK                            x       y       z     vdW  Elec       q    Type
REMARK                         _______ _______ _______ _____ _____    ______ ____
ROOT
ATOM      1  C   UNL     1       4.325   3.807  19.058  0.00  0.00    +0.000 A 
ATOM      2  N   UNL     1       3.461   4.082  20.050  0.00  0.00    +0.000 NA
ATOM      3  C   UNL     1       2.826   5.285  20.022  0.00  0.00    +0.000 A 
ATOM      4  C   UNL     1       2.992   6.264  19.043  0.00  0.00    +0.000 A 
ATOM      5  C   UNL     1       3.897   5.935  18.028  0.00  0.00    +0.000 A 
ATOM      6  C   UNL     1       4.565   4.697  18.017  0.00  0.00    +0.000 A 
ENDROOT
BRANCH   4   7
ATOM      7  C   UNL     1       2.250   7.543  19.063  0.00  0.00    +0.000 A 
ATOM      8  C   UNL     1       2.115   8.334  17.906  0.00  0.00    +0.000 A 
ATOM      9  C   UNL     1       1.453   9.567  17.936  0.00  0.00    +0.000 A 
ATOM     10  C   UNL     1       0.893  10.030  19.121  0.00  0.00    +0.000 A 
ATOM     11  C   UNL     1       0.990   9.259  20.275  0.00  0.00    +0.000 A 
ATOM     12  C   UNL     1       1.662   8.033  20.245  0.00  0.00    +0.000 A 
ENDBRANCH   4   7
BRANCH   6  13
ATOM     13  C   UNL     1       5.514   4.452  16.904  0.00  0.00    +0.000 C 
ATOM     14  O   UNL     1       6.681   4.223  17.203  0.00  0.00    +0.000 OA
ATOM     15  N   UNL     1       5.018   4.573  15.614  0.00  0.00    +0.000 N 
ATOM     16  H   UNL     1       4.052   4.881  15.521  0.00  0.00    +0.000 HD
BRANCH  15  17
ATOM     17  C   UNL     1       5.777   4.433  14.430  0.00  0.00    +0.000 A 
ATOM     18  C   UNL     1       5.420   3.573  13.395  0.00  0.00    +0.000 A 
ATOM     19  C   UNL     1       6.247   3.476  12.288  0.00  0.00    +0.000 A 
ATOM     20  N   UNL     1       7.392   4.176  12.145  0.00  0.00    +0.000 NA
ATOM     21  C   UNL     1       7.710   5.012  13.151  0.00  0.00    +0.000 A 
ATOM     22  C   UNL     1       6.940   5.189  14.290  0.00  0.00    +0.000 A 
ENDBRANCH  15  17
ENDBRANCH   6  13
BRANCH   1  23
ATOM     23  N   UNL     1       4.945   2.562  19.172  0.00  0.00    +0.000 N 
ATOM     24  H   UNL     1       5.752   2.716  19.778  0.00  0.00    +0.000 HD
ATOM     25  H   UNL     1       5.254   2.232  18.259  0.00  0.00    +0.000 HD
ENDBRANCH   1  23
TORSDOF 4
ENDMDL
MODEL 6
REMARK VINA RESULT:      -7.8      2.994      7.628
REMARK  Name = 
REMARK  4 active torsions:
REMARK  status: ('A' for Active; 'I' for Inactive)
REMARK    1  A    between atoms: N_1  and  C_2
REMARK    2  A    between atoms: C_5  and  C_6
REMARK    3  A    between atoms: C_13  and  C_14
REMARK    4  A    between atoms: N_16  and  C_17
REMARK                            x       y       z     vdW  Elec       q    Type
REMARK                         _______ _______ _______ _____ _____    ______ ____
ROOT
ATOM      1  C   UNL     1       6.754   5.690  16.529  0.00  0.00    +0.000 A 
ATOM      2  N   UNL     1       7.586   5.665  15.473  0.00  0.00    +0.000 NA
ATOM      3  C   UNL     1       7.197   4.960  14.376  0.00  0.00    +0.000 A 
ATOM      4  C   UNL     1       5.998   4.259  14.249  0.00  0.00    +0.000 A 
ATOM      5  C   UNL     1       5.161   4.315  15.368  0.00  0.00    +0.000 A 
ATOM      6  C   UNL     1       5.524   5.041  16.518  0.00  0.00    +0.000 A 
ENDROOT
BRANCH   4   7
ATOM      7  C   UNL     1       5.629   3.533  13.015  0.00  0.00    +0.000 A 
ATOM      8  C   UNL     1       6.494   2.590  12.428  0.00  0.00    +0.000 A 
ATOM      9  C   UNL     1       6.165   1.938  11.235  0.00  0.00    +0.000 A 
ATOM     10  C   UNL     1       4.951   2.199  10.608  0.00  0.00    +0.000 A 
ATOM     11  C   UNL     1       4.066   3.108  11.177  0.00  0.00    +0.000 A 
ATOM     12  C   UNL     1       4.402   3.767  12.363  0.00  0.00    +0.000 A 
ENDBRANCH   4   7
BRANCH   6  13
ATOM     13  C   UNL     1       4.572   5.026  17.655  0.00  0.00    +0.000 C 
ATOM     14  O   UNL     1       4.456   6.062  18.301  0.00  0.00    +0.000 OA
ATOM     15  N   UNL     1       3.948   3.820  17.938  0.00  0.00    +0.000 N 
ATOM     16  H   UNL     1       4.231   3.015  17.384  0.00  0.00    +0.000 HD
BRANCH  15  17
ATOM     17  C   UNL     1       3.056   3.594  19.012  0.00  0.00    +0.000 A 
ATOM     18  C   UNL     1       1.730   4.020  19.002  0.00  0.00    +0.000 A 
ATOM     19  C   UNL     1       0.942   3.785  20.116  0.00  0.00    +0.000 A 
ATOM     20  N   UNL     1       1.382   3.156  21.225  0.00  0.00    +0.000 NA
ATOM     21  C   UNL     1       2.662   2.740  21.208  0.00  0.00    +0.000 A 
ATOM     22  C   UNL     1       3.523   2.915  20.136  0.00  0.00    +0.000 A 
ENDBRANCH  15  17
ENDBRANCH   6  13
BRANCH   1  23
ATOM     23  N   UNL     1       7.236   6.419  17.616  0.00  0.00    +0.000 N 
ATOM     24  H   UNL     1       8.195   6.097  17.754  0.00  0.00    +0.000 HD
ATOM     25  H   UNL     1       6.682   6.226  18.449  0.00  0.00    +0.000 HD
ENDBRANCH   1  23
TORSDOF 4
ENDMDL
MODEL 7
REMARK VINA RESULT:      -7.6      3.031      7.427
REMARK  Name = 
REMARK  4 active torsions:
REMARK  status: ('A' for Active; 'I' for Inactive)
REMARK    1  A    between atoms: N_1  and  C_2
REMARK    2  A    between atoms: C_5  and  C_6
REMARK    3  A    between atoms: C_13  and  C_14
REMARK    4  A    between atoms: N_16  and  C_17
REMARK                            x       y       z     vdW  Elec       q    Type
REMARK                         _______ _______ _______ _____ _____    ______ ____
ROOT
ATOM      1  C   UNL     1       2.846   3.515  20.748  0.00  0.00    +0.000 A 
ATOM      2  N   UNL     1       3.711   2.566  20.352  0.00  0.00    +0.000 NA
ATOM      3  C   UNL     1       4.472   2.820  19.253  0.00  0.00    +0.000 A 
ATOM      4  C   UNL     1       4.437   3.992  18.499  0.00  0.00    +0.000 A 
ATOM      5  C   UNL     1       3.526   4.955  18.948  0.00  0.00    +0.000 A 
ATOM      6  C   UNL     1       2.728   4.733  20.086  0.00  0.00    +0.000 A 
ENDROOT
BRANCH   4   7
ATOM      7  C   UNL     1       5.313   4.211  17.328  0.00  0.00    +0.000 A 
ATOM      8  C   UNL     1       6.674   4.539  17.477  0.00  0.00    +0.000 A 
ATOM      9  C   UNL     1       7.491   4.793  16.370  0.00  0.00    +0.000 A 
ATOM     10  C   UNL     1       6.970   4.707  15.083  0.00  0.00    +0.000 A 
ATOM     11  C   UNL     1       5.635   4.362  14.904  0.00  0.00    +0.000 A 
ATOM     12  C   UNL     1       4.817   4.120  16.012  0.00  0.00    +0.000 A 
ENDBRANCH   4   7
BRANCH   6  13
ATOM     13  C   UNL     1       1.786   5.811  20.470  0.00  0.00    +0.000 C 
ATOM     14  O   UNL     1       0.644   5.476  20.767  0.00  0.00    +0.000 OA
ATOM     15  N   UNL     1       2.253   7.115  20.392  0.00  0.00    +0.000 N 
ATOM     16  H   UNL     1       3.191   7.245  20.018  0.00  0.00    +0.000 HD
BRANCH  15  17
ATOM     17  C   UNL     1       1.490   8.274  20.662  0.00  0.00    +0.000 A 
ATOM     18  C   UNL     1       1.083   8.635  21.943  0.00  0.00    +0.000 A 
ATOM     19  C   UNL     1       0.306   9.770  22.105  0.00  0.00    +0.000 A 
ATOM     20  N   UNL     1      -0.084  10.562  21.085  0.00  0.00    +0.000 NA
ATOM     21  C   UNL     1       0.333  10.203  19.856  0.00  0.00    +0.000 A 
ATOM     22  C   UNL     1       1.125   9.095  19.596  0.00  0.00    +0.000 A 
ENDBRANCH  15  17
ENDBRANCH   6  13
BRANCH   1  23
ATOM     23  N   UNL     1       2.093   3.168  21.870  0.00  0.00    +0.000 N 
ATOM     24  H   UNL     1       2.775   2.949  22.597  0.00  0.00    +0.000 HD
ATOM     25  H   UNL     1       1.519   2.349  21.674  0.00  0.00    +0.000 HD
ENDBRANCH   1  23
TORSDOF 4
ENDMDL
MODEL 8
REMARK VINA RESULT:      -7.6      3.041      7.496
REMARK  Name = 
REMARK  4 active torsions:
REMARK  status: ('A' for Active; 'I' for Inactive)
REMARK    1  A    between atoms: N_1  and  C_2
REMARK    2  A    between atoms: C_5  and  C_6
REMARK    3  A    between atoms: C_13  and  C_14
REMARK    4  A    between atoms: N_16  and  C_17
REMARK                            x       y       z     vdW  Elec       q    Type
REMARK                         _______ _______ _______ _____ _____    ______ ____
ROOT
ATOM      1  C   UNL     1       2.848   3.577  20.776  0.00  0.00    +0.000 A 
ATOM      2  N   UNL     1       3.722   2.634  20.384  0.00  0.00    +0.000 NA
ATOM      3  C   UNL     1       4.476   2.889  19.280  0.00  0.00    +0.000 A 
ATOM      4  C   UNL     1       4.424   4.055  18.517  0.00  0.00    +0.000 A 
ATOM      5  C   UNL     1       3.504   5.010  18.962  0.00  0.00    +0.000 A 
ATOM      6  C   UNL     1       2.714   4.788  20.105  0.00  0.00    +0.000 A 
ENDROOT
BRANCH   4   7
ATOM      7  C   UNL     1       5.292   4.275  17.340  0.00  0.00    +0.000 A 
ATOM      8  C   UNL     1       4.805   4.126  16.027  0.00  0.00    +0.000 A 
ATOM      9  C   UNL     1       5.639   4.288  14.915  0.00  0.00    +0.000 A 
ATOM     10  C   UNL     1       6.978   4.620  15.089  0.00  0.00    +0.000 A 
ATOM     11  C   UNL     1       7.482   4.796  16.373  0.00  0.00    +0.000 A 
ATOM     12  C   UNL     1       6.650   4.623  17.483  0.00  0.00    +0.000 A 
ENDBRANCH   4   7
BRANCH   6  13
ATOM     13  C   UNL     1       1.760   5.859  20.485  0.00  0.00    +0.000 C 
ATOM     14  O   UNL     1       0.607   5.520  20.728  0.00  0.00    +0.000 OA
ATOM     15  N   UNL     1       2.234   7.162  20.462  0.00  0.00    +0.000 N 
ATOM     16  H   UNL     1       3.186   7.299  20.128  0.00  0.00    +0.000 HD
BRANCH  15  17
ATOM     17  C   UNL     1       1.465   8.316  20.737  0.00  0.00    +0.000 A 
ATOM     18  C   UNL     1       1.071   8.679  22.022  0.00  0.00    +0.000 A 
ATOM     19  C   UNL     1       0.286   9.808  22.189  0.00  0.00    +0.000 A 
ATOM     20  N   UNL     1      -0.122  10.593  21.172  0.00  0.00    +0.000 NA
ATOM     21  C   UNL     1       0.283  10.232  19.939  0.00  0.00    +0.000 A 
ATOM     22  C   UNL     1       1.080   9.130  19.673  0.00  0.00    +0.000 A 
ENDBRANCH  15  17
ENDBRANCH   6  13
BRANCH   1  23
ATOM     23  N   UNL     1       2.103   3.230  21.903  0.00  0.00    +0.000 N 
ATOM     24  H   UNL     1       1.183   3.649  21.760  0.00  0.00    +0.000 HD
ATOM     25  H   UNL     1       2.531   3.611  22.745  0.00  0.00    +0.000 HD
ENDBRANCH   1  23
TORSDOF 4
ENDMDL
MODEL 9
REMARK VINA RESULT:      -7.6      0.240      1.024
REMARK  Name = 
REMARK  4 active torsions:
REMARK  status: ('A' for Active; 'I' for Inactive)
REMARK    1  A    between atoms: N_1  and  C_2
REMARK    2  A    between atoms: C_5  and  C_6
REMARK    3  A    between atoms: C_13  and  C_14
REMARK    4  A    between atoms: N_16  and  C_17
REMARK                            x       y       z     vdW  Elec       q    Type
REMARK                         _______ _______ _______ _____ _____    ______ ____
ROOT
ATOM      1  C   UNL     1       4.093   3.632  18.783  0.00  0.00    +0.000 A 
ATOM      2  N   UNL     1       3.199   3.886  19.754  0.00  0.00    +0.000 NA
ATOM      3  C   UNL     1       2.652   5.131  19.802  0.00  0.00    +0.000 A 
ATOM      4  C   UNL     1       2.938   6.174  18.922  0.00  0.00    +0.000 A 
ATOM      5  C   UNL     1       3.870   5.866  17.925  0.00  0.00    +0.000 A 
ATOM      6  C   UNL     1       4.450   4.587  17.836  0.00  0.00    +0.000 A 
ENDROOT
BRANCH   4   7
ATOM      7  C   UNL     1       2.287   7.498  19.019  0.00  0.00    +0.000 A 
ATOM      8  C   UNL     1       1.707   7.947  20.222  0.00  0.00    +0.000 A 
ATOM      9  C   UNL     1       1.050   9.179  20.301  0.00  0.00    +0.000 A 
ATOM     10  C   UNL     1       0.971  10.003  19.183  0.00  0.00    +0.000 A 
ATOM     11  C   UNL     1       1.554   9.596  17.988  0.00  0.00    +0.000 A 
ATOM     12  C   UNL     1       2.201   8.359  17.907  0.00  0.00    +0.000 A 
ENDBRANCH   4   7
BRANCH   6  13
ATOM     13  C   UNL     1       5.437   4.366  16.751  0.00  0.00    +0.000 C 
ATOM     14  O   UNL     1       6.596   4.145  17.086  0.00  0.00    +0.000 OA
ATOM     15  N   UNL     1       4.981   4.502  15.448  0.00  0.00    +0.000 N 
ATOM     16  H   UNL     1       4.016   4.802  15.328  0.00  0.00    +0.000 HD
BRANCH  15  17
ATOM     17  C   UNL     1       5.780   4.386  14.287  0.00  0.00    +0.000 A 
ATOM     18  C   UNL     1       5.471   3.530  13.234  0.00  0.00    +0.000 A 
ATOM     19  C   UNL     1       6.335   3.457  12.153  0.00  0.00    +0.000 A 
ATOM     20  N   UNL     1       7.471   4.178  12.053  0.00  0.00    +0.000 NA
ATOM     21  C   UNL     1       7.742   5.010  13.076  0.00  0.00    +0.000 A 
ATOM     22  C   UNL     1       6.933   5.163  14.191  0.00  0.00    +0.000 A 
ENDBRANCH  15  17
ENDBRANCH   6  13
BRANCH   1  23
ATOM     23  N   UNL     1       4.617   2.339  18.815  0.00  0.00    +0.000 N 
ATOM     24  H   UNL     1       5.437   2.364  18.207  0.00  0.00    +0.000 HD
ATOM     25  H   UNL     1       3.939   1.670  18.456  0.00  0.00    +0.000 HD
ENDBRANCH   1  23
TORSDOF 4
ENDMDL
