MODEL 1
REMARK VINA RESULT:      -7.5      0.000      0.000
REMARK  Name = 
REMARK  7 active torsions:
REMARK  status: ('A' for Active; 'I' for Inactive)
REMARK    1  A    between atoms: C_1  and  C_2
REMARK    2  A    between atoms: N_4  and  C_5
REMARK    3  A    between atoms: C_5  and  C_6
REMARK    4  A    between atoms: C_11  and  C_12
REMARK    5  A    between atoms: C_12  and  O_14
REMARK    6  A    between atoms: C_16  and  C_17
REMARK    7  A    between atoms: C_16  and  O_18
REMARK                            x       y       z     vdW  Elec       q    Type
REMARK                         _______ _______ _______ _____ _____    ______ ____
ROOT
ATOM      1  C   UNL     1       3.597   4.470  17.637  0.00  0.00    +0.000 C 
ENDROOT
BRANCH   1   5
ATOM      2  C   UNL     1       7.475   7.188  17.292  0.00  0.00    +0.000 C 
ATOM      3  C   UNL     1       6.395   6.169  16.957  0.00  0.00    +0.000 C 
ATOM      4  C   UNL     1       5.740   5.569  18.200  0.00  0.00    +0.000 C 
ATOM      5  N   UNL     1       5.067   4.328  17.759  0.00  0.00    +0.000 NA
ATOM      6  C   UNL     1       5.652   3.984  16.428  0.00  0.00    +0.000 C 
ATOM      7  C   UNL     1       6.867   4.912  16.230  0.00  0.00    +0.000 C 
ATOM      8  C   UNL     1       7.218   5.136  14.766  0.00  0.00    +0.000 C 
BRANCH   7   9
ATOM      9  O   UNL     1       8.025   4.353  16.862  0.00  0.00    +0.000 OA
ATOM     10  H   UNL     1       8.455   3.772  16.210  0.00  0.00    +0.000 HD
ENDBRANCH   7   9
ENDBRANCH   1   5
BRANCH   1  11
ATOM     11  C   UNL     1       2.820   4.082  18.887  0.00  0.00    +0.000 A 
ATOM     12  C   UNL     1       1.929   5.040  19.423  0.00  0.00    +0.000 A 
ATOM     13  C   UNL     1       1.155   4.768  20.553  0.00  0.00    +0.000 A 
ATOM     14  C   UNL     1       1.206   3.511  21.139  0.00  0.00    +0.000 A 
ATOM     15  C   UNL     1       2.077   2.548  20.629  0.00  0.00    +0.000 A 
ATOM     16  C   UNL     1       2.936   2.836  19.547  0.00  0.00    +0.000 A 
BRANCH  16  17
ATOM     17  C   UNL     1       3.942   1.806  19.151  0.00  0.00    +0.000 C 
ATOM     18  O   UNL     1       3.770   0.942  18.313  0.00  0.00    +0.000 OA
BRANCH  17  19
ATOM     19  O   UNL     1       5.133   1.933  19.783  0.00  0.00    +0.000 OA
ATOM     20  H   UNL     1       5.667   2.702  19.513  0.00  0.00    +0.000 HD
ENDBRANCH  17  19
ENDBRANCH  16  17
ENDBRANCH   1  11
TORSDOF 5
ENDMDL
MODEL 2
REMARK VINA RESULT:      -7.2      2.083      2.631
REMARK  Name = 
REMARK  7 active torsions:
REMARK  status: ('A' for Active; 'I' for Inactive)
REMARK    1  A    between atoms: C_1  and  C_2
REMARK    2  A    between atoms: N_4  and  C_5
REMARK    3  A    between atoms: C_5  and  C_6
REMARK    4  A    between atoms: C_11  and  C_12
REMARK    5  A    between atoms: C_12  and  O_14
REMARK    6  A    between atoms: C_16  and  C_17
REMARK    7  A    between atoms: C_16  and  O_18
REMARK                            x       y       z     vdW  Elec       q    Type
REMARK                         _______ _______ _______ _____ _____    ______ ____
ROOT
ATOM      1  C   UNL     1       3.494   4.533  17.403  0.00  0.00    +0.000 C 
ENDROOT
BRANCH   1   5
ATOM      2  C   UNL     1       7.547   7.007  17.448  0.00  0.00    +0.000 C 
ATOM      3  C   UNL     1       6.439   6.067  16.999  0.00  0.00    +0.000 C 
ATOM      4  C   UNL     1       5.648   5.481  18.168  0.00  0.00    +0.000 C 
ATOM      5  N   UNL     1       4.938   4.295  17.639  0.00  0.00    +0.000 NA
ATOM      6  C   UNL     1       5.608   3.946  16.350  0.00  0.00    +0.000 C 
ATOM      7  C   UNL     1       6.890   4.799  16.277  0.00  0.00    +0.000 C 
ATOM      8  C   UNL     1       7.373   5.034  14.853  0.00  0.00    +0.000 C 
BRANCH   7   9
ATOM      9  O   UNL     1       7.956   4.154  16.984  0.00  0.00    +0.000 OA
ATOM     10  H   UNL     1       7.857   3.195  16.839  0.00  0.00    +0.000 HD
ENDBRANCH   7   9
ENDBRANCH   1   5
BRANCH   1  11
ATOM     11  C   UNL     1       2.594   4.154  18.570  0.00  0.00    +0.000 A 
ATOM     12  C   UNL     1       2.207   2.798  18.680  0.00  0.00    +0.000 A 
ATOM     13  C   UNL     1       1.403   2.349  19.729  0.00  0.00    +0.000 A 
ATOM     14  C   UNL     1       1.017   3.231  20.730  0.00  0.00    +0.000 A 
ATOM     15  C   UNL     1       1.387   4.574  20.645  0.00  0.00    +0.000 A 
ATOM     16  C   UNL     1       2.119   5.064  19.543  0.00  0.00    +0.000 A 
BRANCH  16  17
ATOM     17  C   UNL     1       2.351   6.537  19.449  0.00  0.00    +0.000 C 
ATOM     18  O   UNL     1       2.528   7.155  18.417  0.00  0.00    +0.000 OA
BRANCH  17  19
ATOM     19  O   UNL     1       2.300   7.176  20.641  0.00  0.00    +0.000 OA
ATOM     20  H   UNL     1       1.521   6.972  21.190  0.00  0.00    +0.000 HD
ENDBRANCH  17  19
ENDBRANCH  16  17
ENDBRANCH   1  11
TORSDOF 5
ENDMDL
MODEL 3
REMARK VINA RESULT:      -7.1      0.779      1.109
REMARK  Name = 
REMARK  7 active torsions:
REMARK  status: ('A' for Active; 'I' for Inactive)
REMARK    1  A    between atoms: C_1  and  C_2
REMARK    2  A    between atoms: N_4  and  C_5
REMARK    3  A    between atoms: C_5  and  C_6
REMARK    4  A    between atoms: C_11  and  C_12
REMARK    5  A    between atoms: C_12  and  O_14
REMARK    6  A    between atoms: C_16  and  C_17
REMARK    7  A    between atoms: C_16  and  O_18
REMARK                            x       y       z     vdW  Elec       q    Type
REMARK                         _______ _______ _______ _____ _____    ______ ____
ROOT
ATOM      1  C   UNL     1       3.701   4.705  18.080  0.00  0.00    +0.000 C 
ENDROOT
BRANCH   1   5
ATOM      2  C   UNL     1       7.737   7.102  17.364  0.00  0.00    +0.000 C 
ATOM      3  C   UNL     1       6.561   6.162  17.142  0.00  0.00    +0.000 C 
ATOM      4  C   UNL     1       5.957   5.649  18.449  0.00  0.00    +0.000 C 
ATOM      5  N   UNL     1       5.161   4.452  18.100  0.00  0.00    +0.000 NA
ATOM      6  C   UNL     1       5.617   4.027  16.742  0.00  0.00    +0.000 C 
ATOM      7  C   UNL     1       6.880   4.852  16.425  0.00  0.00    +0.000 C 
ATOM      8  C   UNL     1       7.137   5.007  14.933  0.00  0.00    +0.000 C 
BRANCH   7   9
ATOM      9  O   UNL     1       8.037   4.222  16.990  0.00  0.00    +0.000 OA
ATOM     10  H   UNL     1       8.241   4.690  17.820  0.00  0.00    +0.000 HD
ENDBRANCH   7   9
ENDBRANCH   1   5
BRANCH   1  11
ATOM     11  C   UNL     1       2.942   4.109  19.257  0.00  0.00    +0.000 A 
ATOM     12  C   UNL     1       2.643   4.967  20.340  0.00  0.00    +0.000 A 
ATOM     13  C   UNL     1       1.930   4.520  21.454  0.00  0.00    +0.000 A 
ATOM     14  C   UNL     1       1.444   3.220  21.486  0.00  0.00    +0.000 A 
ATOM     15  C   UNL     1       1.725   2.353  20.429  0.00  0.00    +0.000 A 
ATOM     16  C   UNL     1       2.524   2.760  19.340  0.00  0.00    +0.000 A 
BRANCH  16  17
ATOM     17  C   UNL     1       2.904   1.735  18.321  0.00  0.00    +0.000 C 
ATOM     18  O   UNL     1       3.830   0.955  18.422  0.00  0.00    +0.000 OA
BRANCH  17  19
ATOM     19  O   UNL     1       2.079   1.700  17.248  0.00  0.00    +0.000 OA
ATOM     20  H   UNL     1       1.163   1.987  17.417  0.00  0.00    +0.000 HD
ENDBRANCH  17  19
ENDBRANCH  16  17
ENDBRANCH   1  11
TORSDOF 5
ENDMDL
MODEL 4
REMARK VINA RESULT:      -7.0      1.749      5.410
REMARK  Name = 
REMARK  7 active torsions:
REMARK  status: ('A' for Active; 'I' for Inactive)
REMARK    1  A    between atoms: C_1  and  C_2
REMARK    2  A    between atoms: N_4  and  C_5
REMARK    3  A    between atoms: C_5  and  C_6
REMARK    4  A    between atoms: C_11  and  C_12
REMARK    5  A    between atoms: C_12  and  O_14
REMARK    6  A    between atoms: C_16  and  C_17
REMARK    7  A    between atoms: C_16  and  O_18
REMARK                            x       y       z     vdW  Elec       q    Type
REMARK                         _______ _______ _______ _____ _____    ______ ____
ROOT
ATOM      1  C   UNL     1       3.995   6.358  17.905  0.00  0.00    +0.000 C 
ENDROOT
BRANCH   1   5
ATOM      2  C   UNL     1       1.415   3.688  20.865  0.00  0.00    +0.000 C 
ATOM      3  C   UNL     1       2.343   4.094  19.729  0.00  0.00    +0.000 C 
ATOM      4  C   UNL     1       2.086   5.517  19.234  0.00  0.00    +0.000 C 
ATOM      5  N   UNL     1       2.714   5.614  17.898  0.00  0.00    +0.000 NA
ATOM      6  C   UNL     1       2.949   4.210  17.443  0.00  0.00    +0.000 C 
ATOM      7  C   UNL     1       2.203   3.296  18.435  0.00  0.00    +0.000 C 
ATOM      8  C   UNL     1       2.780   1.890  18.506  0.00  0.00    +0.000 C 
BRANCH   7   9
ATOM      9  O   UNL     1       0.827   3.170  18.053  0.00  0.00    +0.000 OA
ATOM     10  H   UNL     1       0.654   3.850  17.377  0.00  0.00    +0.000 HD
ENDBRANCH   7   9
ENDBRANCH   1   5
BRANCH   1  11
ATOM     11  C   UNL     1       5.098   5.721  17.073  0.00  0.00    +0.000 A 
ATOM     12  C   UNL     1       5.014   5.856  15.668  0.00  0.00    +0.000 A 
ATOM     13  C   UNL     1       5.991   5.327  14.822  0.00  0.00    +0.000 A 
ATOM     14  C   UNL     1       7.108   4.704  15.361  0.00  0.00    +0.000 A 
ATOM     15  C   UNL     1       7.215   4.558  16.745  0.00  0.00    +0.000 A 
ATOM     16  C   UNL     1       6.193   5.003  17.610  0.00  0.00    +0.000 A 
BRANCH  16  17
ATOM     17  C   UNL     1       6.309   4.682  19.064  0.00  0.00    +0.000 C 
ATOM     18  O   UNL     1       6.893   5.359  19.888  0.00  0.00    +0.000 OA
BRANCH  17  19
ATOM     19  O   UNL     1       5.649   3.558  19.431  0.00  0.00    +0.000 OA
ATOM     20  H   UNL     1       4.979   3.677  20.128  0.00  0.00    +0.000 HD
ENDBRANCH  17  19
ENDBRANCH  16  17
ENDBRANCH   1  11
TORSDOF 5
ENDMDL
MODEL 5
REMARK VINA RESULT:      -6.9      1.391      1.654
REMARK  Name = 
REMARK  7 active torsions:
REMARK  status: ('A' for Active; 'I' for Inactive)
REMARK    1  A    between atoms: C_1  and  C_2
REMARK    2  A    between atoms: N_4  and  C_5
REMARK    3  A    between atoms: C_5  and  C_6
REMARK    4  A    between atoms: C_11  and  C_12
REMARK    5  A    between atoms: C_12  and  O_14
REMARK    6  A    between atoms: C_16  and  C_17
REMARK    7  A    between atoms: C_16  and  O_18
REMARK                            x       y       z     vdW  Elec       q    Type
REMARK                         _______ _______ _______ _____ _____    ______ ____
ROOT
ATOM      1  C   UNL     1       4.444   5.026  19.690  0.00  0.00    +0.000 C 
ENDROOT
BRANCH   1   5
ATOM      2  C   UNL     1       7.879   7.314  17.341  0.00  0.00    +0.000 C 
ATOM      3  C   UNL     1       6.672   6.434  17.631  0.00  0.00    +0.000 C 
ATOM      4  C   UNL     1       6.683   5.860  19.047  0.00  0.00    +0.000 C 
ATOM      5  N   UNL     1       5.741   4.718  19.042  0.00  0.00    +0.000 NA
ATOM      6  C   UNL     1       5.517   4.367  17.607  0.00  0.00    +0.000 C 
ATOM      7  C   UNL     1       6.555   5.164  16.792  0.00  0.00    +0.000 C 
ATOM      8  C   UNL     1       6.129   5.406  15.351  0.00  0.00    +0.000 C 
BRANCH   7   9
ATOM      9  O   UNL     1       7.801   4.456  16.751  0.00  0.00    +0.000 OA
ATOM     10  H   UNL     1       7.631   3.558  17.091  0.00  0.00    +0.000 HD
ENDBRANCH   7   9
ENDBRANCH   1   5
BRANCH   1  11
ATOM     11  C   UNL     1       3.301   4.112  19.274  0.00  0.00    +0.000 A 
ATOM     12  C   UNL     1       2.280   4.670  18.471  0.00  0.00    +0.000 A 
ATOM     13  C   UNL     1       1.202   3.905  18.020  0.00  0.00    +0.000 A 
ATOM     14  C   UNL     1       1.150   2.548  18.308  0.00  0.00    +0.000 A 
ATOM     15  C   UNL     1       2.146   1.973  19.098  0.00  0.00    +0.000 A 
ATOM     16  C   UNL     1       3.191   2.750  19.641  0.00  0.00    +0.000 A 
BRANCH  16  17
ATOM     17  C   UNL     1       4.135   2.094  20.595  0.00  0.00    +0.000 C 
ATOM     18  O   UNL     1       3.907   1.874  21.769  0.00  0.00    +0.000 OA
BRANCH  17  19
ATOM     19  O   UNL     1       5.299   1.699  20.028  0.00  0.00    +0.000 OA
ATOM     20  H   UNL     1       6.085   1.766  20.600  0.00  0.00    +0.000 HD
ENDBRANCH  17  19
ENDBRANCH  16  17
ENDBRANCH   1  11
TORSDOF 5
ENDMDL
MODEL 6
REMARK VINA RESULT:      -6.9      1.118      1.881
REMARK  Name = 
REMARK  7 active torsions:
REMARK  status: ('A' for Active; 'I' for Inactive)
REMARK    1  A    between atoms: C_1  and  C_2
REMARK    2  A    between atoms: N_4  and  C_5
REMARK    3  A    between atoms: C_5  and  C_6
REMARK    4  A    between atoms: C_11  and  C_12
REMARK    5  A    between atoms: C_12  and  O_14
REMARK    6  A    between atoms: C_16  and  C_17
REMARK    7  A    between atoms: C_16  and  O_18
REMARK                            x       y       z     vdW  Elec       q    Type
REMARK                         _______ _______ _______ _____ _____    ______ ____
ROOT
ATOM      1  C   UNL     1       3.372   3.392  17.319  0.00  0.00    +0.000 C 
ENDROOT
BRANCH   1   5
ATOM      2  C   UNL     1       7.079   4.681  14.645  0.00  0.00    +0.000 C 
ATOM      3  C   UNL     1       6.234   4.319  15.857  0.00  0.00    +0.000 C 
ATOM      4  C   UNL     1       4.745   4.591  15.646  0.00  0.00    +0.000 C 
ATOM      5  N   UNL     1       4.131   4.622  16.992  0.00  0.00    +0.000 NA
ATOM      6  C   UNL     1       5.256   4.793  17.961  0.00  0.00    +0.000 C 
ATOM      7  C   UNL     1       6.509   5.123  17.126  0.00  0.00    +0.000 C 
ATOM      8  C   UNL     1       7.809   4.755  17.826  0.00  0.00    +0.000 C 
BRANCH   7   9
ATOM      9  O   UNL     1       6.561   6.528  16.846  0.00  0.00    +0.000 OA
ATOM     10  H   UNL     1       6.440   6.993  17.693  0.00  0.00    +0.000 HD
ENDBRANCH   7   9
ENDBRANCH   1   5
BRANCH   1  11
ATOM     11  C   UNL     1       2.728   3.397  18.697  0.00  0.00    +0.000 A 
ATOM     12  C   UNL     1       1.658   4.297  18.913  0.00  0.00    +0.000 A 
ATOM     13  C   UNL     1       0.988   4.358  20.136  0.00  0.00    +0.000 A 
ATOM     14  C   UNL     1       1.329   3.479  21.155  0.00  0.00    +0.000 A 
ATOM     15  C   UNL     1       2.380   2.581  20.967  0.00  0.00    +0.000 A 
ATOM     16  C   UNL     1       3.130   2.570  19.772  0.00  0.00    +0.000 A 
BRANCH  16  17
ATOM     17  C   UNL     1       4.331   1.684  19.701  0.00  0.00    +0.000 C 
ATOM     18  O   UNL     1       5.270   1.711  20.473  0.00  0.00    +0.000 OA
BRANCH  17  19
ATOM     19  O   UNL     1       4.280   0.773  18.700  0.00  0.00    +0.000 OA
ATOM     20  H   UNL     1       3.394   0.609  18.332  0.00  0.00    +0.000 HD
ENDBRANCH  17  19
ENDBRANCH  16  17
ENDBRANCH   1  11
TORSDOF 5
ENDMDL
MODEL 7
REMARK VINA RESULT:      -6.8      2.384      2.926
REMARK  Name = 
REMARK  7 active torsions:
REMARK  status: ('A' for Active; 'I' for Inactive)
REMARK    1  A    between atoms: C_1  and  C_2
REMARK    2  A    between atoms: N_4  and  C_5
REMARK    3  A    between atoms: C_5  and  C_6
REMARK    4  A    between atoms: C_11  and  C_12
REMARK    5  A    between atoms: C_12  and  O_14
REMARK    6  A    between atoms: C_16  and  C_17
REMARK    7  A    between atoms: C_16  and  O_18
REMARK                            x       y       z     vdW  Elec       q    Type
REMARK                         _______ _______ _______ _____ _____    ______ ____
ROOT
ATOM      1  C   UNL     1       5.232   4.332  19.545  0.00  0.00    +0.000 C 
ENDROOT
BRANCH   1   5
ATOM      2  C   UNL     1       7.633   7.822  17.398  0.00  0.00    +0.000 C 
ATOM      3  C   UNL     1       6.602   6.736  17.665  0.00  0.00    +0.000 C 
ATOM      4  C   UNL     1       7.106   5.662  18.628  0.00  0.00    +0.000 C 
ATOM      5  N   UNL     1       6.219   4.491  18.451  0.00  0.00    +0.000 NA
ATOM      6  C   UNL     1       5.506   4.700  17.155  0.00  0.00    +0.000 C 
ATOM      7  C   UNL     1       6.195   5.891  16.460  0.00  0.00    +0.000 C 
ATOM      8  C   UNL     1       5.292   6.613  15.471  0.00  0.00    +0.000 C 
BRANCH   7   9
ATOM      9  O   UNL     1       7.345   5.441  15.733  0.00  0.00    +0.000 OA
ATOM     10  H   UNL     1       7.957   6.197  15.670  0.00  0.00    +0.000 HD
ENDBRANCH   7   9
ENDBRANCH   1   5
BRANCH   1  11
ATOM     11  C   UNL     1       3.867   3.835  19.094  0.00  0.00    +0.000 A 
ATOM     12  C   UNL     1       3.751   2.467  18.755  0.00  0.00    +0.000 A 
ATOM     13  C   UNL     1       2.535   1.912  18.354  0.00  0.00    +0.000 A 
ATOM     14  C   UNL     1       1.389   2.696  18.341  0.00  0.00    +0.000 A 
ATOM     15  C   UNL     1       1.476   4.049  18.671  0.00  0.00    +0.000 A 
ATOM     16  C   UNL     1       2.714   4.648  18.987  0.00  0.00    +0.000 A 
BRANCH  16  17
ATOM     17  C   UNL     1       2.751   6.128  19.186  0.00  0.00    +0.000 C 
ATOM     18  O   UNL     1       3.015   6.946  18.326  0.00  0.00    +0.000 OA
BRANCH  17  19
ATOM     19  O   UNL     1       2.409   6.521  20.436  0.00  0.00    +0.000 OA
ATOM     20  H   UNL     1       2.023   7.413  20.501  0.00  0.00    +0.000 HD
ENDBRANCH  17  19
ENDBRANCH  16  17
ENDBRANCH   1  11
TORSDOF 5
ENDMDL
MODEL 8
REMARK VINA RESULT:      -6.8      1.310      1.900
REMARK  Name = 
REMARK  7 active torsions:
REMARK  status: ('A' for Active; 'I' for Inactive)
REMARK    1  A    between atoms: C_1  and  C_2
REMARK    2  A    between atoms: N_4  and  C_5
REMARK    3  A    between atoms: C_5  and  C_6
REMARK    4  A    between atoms: C_11  and  C_12
REMARK    5  A    between atoms: C_12  and  O_14
REMARK    6  A    between atoms: C_16  and  C_17
REMARK    7  A    between atoms: C_16  and  O_18
REMARK                            x       y       z     vdW  Elec       q    Type
REMARK                         _______ _______ _______ _____ _____    ______ ____
ROOT
ATOM      1  C   UNL     1       3.458   4.408  17.490  0.00  0.00    +0.000 C 
ENDROOT
BRANCH   1   5
ATOM      2  C   UNL     1       7.493   6.910  17.410  0.00  0.00    +0.000 C 
ATOM      3  C   UNL     1       6.365   5.982  16.984  0.00  0.00    +0.000 C 
ATOM      4  C   UNL     1       5.646   5.339  18.170  0.00  0.00    +0.000 C 
ATOM      5  N   UNL     1       4.914   4.172  17.632  0.00  0.00    +0.000 NA
ATOM      6  C   UNL     1       5.510   3.884  16.292  0.00  0.00    +0.000 C 
ATOM      7  C   UNL     1       6.781   4.750  16.183  0.00  0.00    +0.000 C 
ATOM      8  C   UNL     1       7.180   5.050  14.745  0.00  0.00    +0.000 C 
BRANCH   7   9
ATOM      9  O   UNL     1       7.889   4.083  16.799  0.00  0.00    +0.000 OA
ATOM     10  H   UNL     1       7.799   3.133  16.599  0.00  0.00    +0.000 HD
ENDBRANCH   7   9
ENDBRANCH   1   5
BRANCH   1  11
ATOM     11  C   UNL     1       2.830   5.181  18.641  0.00  0.00    +0.000 A 
ATOM     12  C   UNL     1       2.747   6.587  18.512  0.00  0.00    +0.000 A 
ATOM     13  C   UNL     1       2.166   7.380  19.503  0.00  0.00    +0.000 A 
ATOM     14  C   UNL     1       1.597   6.783  20.620  0.00  0.00    +0.000 A 
ATOM     15  C   UNL     1       1.665   5.398  20.770  0.00  0.00    +0.000 A 
ATOM     16  C   UNL     1       2.332   4.590  19.825  0.00  0.00    +0.000 A 
BRANCH  16  17
ATOM     17  C   UNL     1       2.492   3.135  20.127  0.00  0.00    +0.000 C 
ATOM     18  O   UNL     1       3.409   2.646  20.758  0.00  0.00    +0.000 OA
BRANCH  17  19
ATOM     19  O   UNL     1       1.474   2.367  19.673  0.00  0.00    +0.000 OA
ATOM     20  H   UNL     1       0.746   2.224  20.305  0.00  0.00    +0.000 HD
ENDBRANCH  17  19
ENDBRANCH  16  17
ENDBRANCH   1  11
TORSDOF 5
ENDMDL
MODEL 9
REMARK VINA RESULT:      -6.8      1.288      1.687
REMARK  Name = 
REMARK  7 active torsions:
REMARK  status: ('A' for Active; 'I' for Inactive)
REMARK    1  A    between atoms: C_1  and  C_2
REMARK    2  A    between atoms: N_4  and  C_5
REMARK    3  A    between atoms: C_5  and  C_6
REMARK    4  A    between atoms: C_11  and  C_12
REMARK    5  A    between atoms: C_12  and  O_14
REMARK    6  A    between atoms: C_16  and  C_17
REMARK    7  A    between atoms: C_16  and  O_18
REMARK                            x       y       z     vdW  Elec       q    Type
REMARK                         _______ _______ _______ _____ _____    ______ ____
ROOT
ATOM      1  C   UNL     1       3.448   5.185  17.947  0.00  0.00    +0.000 C 
ENDROOT
BRANCH   1   5
ATOM      2  C   UNL     1       7.841   5.472  19.727  0.00  0.00    +0.000 C 
ATOM      3  C   UNL     1       6.613   5.745  18.871  0.00  0.00    +0.000 C 
ATOM      4  C   UNL     1       5.695   4.529  18.745  0.00  0.00    +0.000 C 
ATOM      5  N   UNL     1       4.824   4.781  17.576  0.00  0.00    +0.000 NA
ATOM      6  C   UNL     1       5.478   5.876  16.797  0.00  0.00    +0.000 C 
ATOM      7  C   UNL     1       6.881   6.070  17.403  0.00  0.00    +0.000 C 
ATOM      8  C   UNL     1       7.449   7.463  17.169  0.00  0.00    +0.000 C 
BRANCH   7   9
ATOM      9  O   UNL     1       7.803   5.135  16.827  0.00  0.00    +0.000 OA
ATOM     10  H   UNL     1       7.644   4.275  17.257  0.00  0.00    +0.000 HD
ENDBRANCH   7   9
ENDBRANCH   1   5
BRANCH   1  11
ATOM     11  C   UNL     1       2.850   4.397  19.103  0.00  0.00    +0.000 A 
ATOM     12  C   UNL     1       2.617   5.090  20.313  0.00  0.00    +0.000 A 
ATOM     13  C   UNL     1       2.050   4.459  21.421  0.00  0.00    +0.000 A 
ATOM     14  C   UNL     1       1.643   3.135  21.329  0.00  0.00    +0.000 A 
ATOM     15  C   UNL     1       1.860   2.428  20.145  0.00  0.00    +0.000 A 
ATOM     16  C   UNL     1       2.518   3.022  19.047  0.00  0.00    +0.000 A 
BRANCH  16  17
ATOM     17  C   UNL     1       2.846   2.162  17.871  0.00  0.00    +0.000 C 
ATOM     18  O   UNL     1       2.157   2.040  16.877  0.00  0.00    +0.000 OA
BRANCH  17  19
ATOM     19  O   UNL     1       4.042   1.534  17.969  0.00  0.00    +0.000 OA
ATOM     20  H   UNL     1       4.807   2.118  18.125  0.00  0.00    +0.000 HD
ENDBRANCH  17  19
ENDBRANCH  16  17
ENDBRANCH   1  11
TORSDOF 5
ENDMDL
