MODEL 1
REMARK VINA RESULT:      -8.8      0.000      0.000
REMARK  Name = 
REMARK  6 active torsions:
REMARK  status: ('A' for Active; 'I' for Inactive)
REMARK    1  A    between atoms: C_1  and  C_2
REMARK    2  A    between atoms: C_2  and  N_3
REMARK    3  A    between atoms: C_2  and  C_22
REMARK    4  A    between atoms: C_4  and  C_6
REMARK    5  A    between atoms: C_10  and  C_11
REMARK    6  A    between atoms: N_13  and  C_14
REMARK                            x       y       z     vdW  Elec       q    Type
REMARK                         _______ _______ _______ _____ _____    ______ ____
ROOT
ATOM      1  C   UNL     1       4.833   3.890  18.983  0.00  0.00    +0.000 A 
ATOM      2  N   UNL     1       5.250   2.690  19.506  0.00  0.00    +0.000 N 
ATOM      3  C   UNL     1       4.179   2.081  20.093  0.00  0.00    +0.000 A 
ATOM      4  N   UNL     1       3.088   2.805  19.978  0.00  0.00    +0.000 NA
ATOM      5  C   UNL     1       3.486   3.961  19.308  0.00  0.00    +0.000 A 
ATOM      6  H   UNL     1       6.174   2.297  19.403  0.00  0.00    +0.000 HD
ENDROOT
BRANCH   1   8
ATOM      7  N   UNL     1       5.334   4.748  16.832  0.00  0.00    +0.000 N 
ATOM      8  C   UNL     1       5.645   4.772  18.177  0.00  0.00    +0.000 C 
ATOM      9  O   UNL     1       6.487   5.530  18.642  0.00  0.00    +0.000 OA
ATOM     10  H   UNL     1       4.862   3.937  16.461  0.00  0.00    +0.000 HD
BRANCH   7  12
ATOM     11  C   UNL     1       5.174   6.922  15.685  0.00  0.00    +0.000 C 
ATOM     12  C   UNL     1       5.991   5.639  15.884  0.00  0.00    +0.000 C 
BRANCH  12  13
ATOM     13  C   UNL     1       6.219   4.929  14.559  0.00  0.00    +0.000 A 
ATOM     14  C   UNL     1       7.368   5.207  13.802  0.00  0.00    +0.000 A 
ATOM     15  C   UNL     1       7.590   4.566  12.581  0.00  0.00    +0.000 A 
ATOM     16  C   UNL     1       6.671   3.636  12.101  0.00  0.00    +0.000 A 
ATOM     17  C   UNL     1       5.526   3.349  12.839  0.00  0.00    +0.000 A 
ATOM     18  C   UNL     1       5.300   3.989  14.059  0.00  0.00    +0.000 A 
ENDBRANCH  12  13
ENDBRANCH   7  12
ENDBRANCH   1   8
BRANCH   5  19
ATOM     19  C   UNL     1       2.582   5.080  19.042  0.00  0.00    +0.000 C 
ATOM     20  O   UNL     1       1.718   4.995  18.173  0.00  0.00    +0.000 OA
ATOM     21  N   UNL     1       2.854   6.212  19.793  0.00  0.00    +0.000 N 
ATOM     22  H   UNL     1       3.734   6.183  20.305  0.00  0.00    +0.000 HD
BRANCH  21  23
ATOM     23  C   UNL     1       2.102   7.405  19.778  0.00  0.00    +0.000 A 
ATOM     24  C   UNL     1       2.074   8.253  18.665  0.00  0.00    +0.000 A 
ATOM     25  C   UNL     1       1.391   9.470  18.699  0.00  0.00    +0.000 A 
ATOM     26  C   UNL     1       0.708   9.854  19.850  0.00  0.00    +0.000 A 
ATOM     27 CL   UNL     1      -0.067  11.397  19.843  0.00  0.00    +0.000 Cl
ATOM     28  C   UNL     1       0.681   8.993  20.953  0.00  0.00    +0.000 A 
ATOM     29 CL   UNL     1      -0.158   9.400  22.409  0.00  0.00    +0.000 Cl
ATOM     30  C   UNL     1       1.363   7.764  20.910  0.00  0.00    +0.000 A 
ENDBRANCH  21  23
ENDBRANCH   5  19
TORSDOF 5
ENDMDL
MODEL 2
REMARK VINA RESULT:      -8.3      0.840      1.242
REMARK  Name = 
REMARK  6 active torsions:
REMARK  status: ('A' for Active; 'I' for Inactive)
REMARK    1  A    between atoms: C_1  and  C_2
REMARK    2  A    between atoms: C_2  and  N_3
REMARK    3  A    between atoms: C_2  and  C_22
REMARK    4  A    between atoms: C_4  and  C_6
REMARK    5  A    between atoms: C_10  and  C_11
REMARK    6  A    between atoms: N_13  and  C_14
REMARK                            x       y       z     vdW  Elec       q    Type
REMARK                         _______ _______ _______ _____ _____    ______ ____
ROOT
ATOM      1  C   UNL     1       4.943   3.901  19.160  0.00  0.00    +0.000 A 
ATOM      2  N   UNL     1       4.873   2.632  19.682  0.00  0.00    +0.000 N 
ATOM      3  C   UNL     1       3.584   2.397  20.066  0.00  0.00    +0.000 A 
ATOM      4  N   UNL     1       2.809   3.429  19.820  0.00  0.00    +0.000 NA
ATOM      5  C   UNL     1       3.652   4.396  19.276  0.00  0.00    +0.000 A 
ATOM      6  H   UNL     1       5.630   1.966  19.705  0.00  0.00    +0.000 HD
ENDROOT
BRANCH   1   8
ATOM      7  N   UNL     1       6.017   4.576  17.160  0.00  0.00    +0.000 N 
ATOM      8  C   UNL     1       6.110   4.478  18.533  0.00  0.00    +0.000 C 
ATOM      9  O   UNL     1       7.071   4.908  19.159  0.00  0.00    +0.000 OA
ATOM     10  H   UNL     1       5.370   3.971  16.675  0.00  0.00    +0.000 HD
BRANCH   7  12
ATOM     11  C   UNL     1       7.017   6.739  16.533  0.00  0.00    +0.000 C 
ATOM     12  C   UNL     1       7.064   5.215  16.371  0.00  0.00    +0.000 C 
BRANCH  12  13
ATOM     13  C   UNL     1       6.942   4.820  14.908  0.00  0.00    +0.000 A 
ATOM     14  C   UNL     1       6.006   3.847  14.519  0.00  0.00    +0.000 A 
ATOM     15  C   UNL     1       5.884   3.470  13.179  0.00  0.00    +0.000 A 
ATOM     16  C   UNL     1       6.690   4.061  12.210  0.00  0.00    +0.000 A 
ATOM     17  C   UNL     1       7.623   5.028  12.578  0.00  0.00    +0.000 A 
ATOM     18  C   UNL     1       7.749   5.405  13.917  0.00  0.00    +0.000 A 
ENDBRANCH  12  13
ENDBRANCH   7  12
ENDBRANCH   1   8
BRANCH   5  19
ATOM     19  C   UNL     1       3.201   5.744  18.928  0.00  0.00    +0.000 C 
ATOM     20  O   UNL     1       3.486   6.238  17.841  0.00  0.00    +0.000 OA
ATOM     21  N   UNL     1       2.517   6.387  19.947  0.00  0.00    +0.000 N 
ATOM     22  H   UNL     1       2.558   5.919  20.850  0.00  0.00    +0.000 HD
BRANCH  21  23
ATOM     23  C   UNL     1       1.923   7.664  19.856  0.00  0.00    +0.000 A 
ATOM     24  C   UNL     1       1.962   8.420  18.679  0.00  0.00    +0.000 A 
ATOM     25  C   UNL     1       1.442   9.716  18.635  0.00  0.00    +0.000 A 
ATOM     26  C   UNL     1       0.856  10.272  19.769  0.00  0.00    +0.000 A 
ATOM     27 CL   UNL     1       0.285  11.897  19.659  0.00  0.00    +0.000 Cl
ATOM     28  C   UNL     1       0.761   9.507  20.937  0.00  0.00    +0.000 A 
ATOM     29 CL   UNL     1       0.035  10.130  22.379  0.00  0.00    +0.000 Cl
ATOM     30  C   UNL     1       1.278   8.200  20.975  0.00  0.00    +0.000 A 
ENDBRANCH  21  23
ENDBRANCH   5  19
TORSDOF 5
ENDMDL
MODEL 3
REMARK VINA RESULT:      -8.3      0.598      1.652
REMARK  Name = 
REMARK  6 active torsions:
REMARK  status: ('A' for Active; 'I' for Inactive)
REMARK    1  A    between atoms: C_1  and  C_2
REMARK    2  A    between atoms: C_2  and  N_3
REMARK    3  A    between atoms: C_2  and  C_22
REMARK    4  A    between atoms: C_4  and  C_6
REMARK    5  A    between atoms: C_10  and  C_11
REMARK    6  A    between atoms: N_13  and  C_14
REMARK                            x       y       z     vdW  Elec       q    Type
REMARK                         _______ _______ _______ _____ _____    ______ ____
ROOT
ATOM      1  C   UNL     1       4.817   3.925  18.980  0.00  0.00    +0.000 A 
ATOM      2  N   UNL     1       5.289   2.712  19.419  0.00  0.00    +0.000 N 
ATOM      3  C   UNL     1       4.262   2.045  20.024  0.00  0.00    +0.000 A 
ATOM      4  N   UNL     1       3.150   2.744  20.000  0.00  0.00    +0.000 NA
ATOM      5  C   UNL     1       3.486   3.943  19.373  0.00  0.00    +0.000 A 
ATOM      6  H   UNL     1       6.215   2.350  19.251  0.00  0.00    +0.000 HD
ENDROOT
BRANCH   1   8
ATOM      7  N   UNL     1       5.406   4.706  16.822  0.00  0.00    +0.000 N 
ATOM      8  C   UNL     1       5.565   4.869  18.183  0.00  0.00    +0.000 C 
ATOM      9  O   UNL     1       6.229   5.781  18.661  0.00  0.00    +0.000 OA
ATOM     10  H   UNL     1       5.104   3.806  16.477  0.00  0.00    +0.000 HD
BRANCH   7  12
ATOM     11  C   UNL     1       5.157   6.883  15.697  0.00  0.00    +0.000 C 
ATOM     12  C   UNL     1       6.016   5.624  15.869  0.00  0.00    +0.000 C 
BRANCH  12  13
ATOM     13  C   UNL     1       6.239   4.932  14.534  0.00  0.00    +0.000 A 
ATOM     14  C   UNL     1       5.305   3.995  14.064  0.00  0.00    +0.000 A 
ATOM     15  C   UNL     1       5.497   3.347  12.841  0.00  0.00    +0.000 A 
ATOM     16  C   UNL     1       6.621   3.629  12.069  0.00  0.00    +0.000 A 
ATOM     17  C   UNL     1       7.557   4.556  12.520  0.00  0.00    +0.000 A 
ATOM     18  C   UNL     1       7.369   5.204  13.743  0.00  0.00    +0.000 A 
ENDBRANCH  12  13
ENDBRANCH   7  12
ENDBRANCH   1   8
BRANCH   5  19
ATOM     19  C   UNL     1       2.543   5.050  19.210  0.00  0.00    +0.000 C 
ATOM     20  O   UNL     1       1.648   4.991  18.371  0.00  0.00    +0.000 OA
ATOM     21  N   UNL     1       2.814   6.141  20.019  0.00  0.00    +0.000 N 
ATOM     22  H   UNL     1       3.714   6.107  20.495  0.00  0.00    +0.000 HD
BRANCH  21  23
ATOM     23  C   UNL     1       2.031   7.312  20.105  0.00  0.00    +0.000 A 
ATOM     24  C   UNL     1       1.199   7.572  21.200  0.00  0.00    +0.000 A 
ATOM     25  C   UNL     1       0.368   8.694  21.227  0.00  0.00    +0.000 A 
ATOM     26  C   UNL     1       0.370   9.589  20.160  0.00  0.00    +0.000 A 
ATOM     27 CL   UNL     1      -0.722  10.924  20.235  0.00  0.00    +0.000 Cl
ATOM     28  C   UNL     1       1.236   9.372  19.083  0.00  0.00    +0.000 A 
ATOM     29 CL   UNL     1       1.299  10.449  17.731  0.00  0.00    +0.000 Cl
ATOM     30  C   UNL     1       2.077   8.245  19.064  0.00  0.00    +0.000 A 
ENDBRANCH  21  23
ENDBRANCH   5  19
TORSDOF 5
ENDMDL
MODEL 4
REMARK VINA RESULT:      -8.1      4.121      7.285
REMARK  Name = 
REMARK  6 active torsions:
REMARK  status: ('A' for Active; 'I' for Inactive)
REMARK    1  A    between atoms: C_1  and  C_2
REMARK    2  A    between atoms: C_2  and  N_3
REMARK    3  A    between atoms: C_2  and  C_22
REMARK    4  A    between atoms: C_4  and  C_6
REMARK    5  A    between atoms: C_10  and  C_11
REMARK    6  A    between atoms: N_13  and  C_14
REMARK                            x       y       z     vdW  Elec       q    Type
REMARK                         _______ _______ _______ _____ _____    ______ ____
ROOT
ATOM      1  C   UNL     1       5.915   5.336  17.241  0.00  0.00    +0.000 A 
ATOM      2  N   UNL     1       5.683   4.612  16.097  0.00  0.00    +0.000 N 
ATOM      3  C   UNL     1       6.695   4.866  15.215  0.00  0.00    +0.000 A 
ATOM      4  N   UNL     1       7.575   5.703  15.717  0.00  0.00    +0.000 NA
ATOM      5  C   UNL     1       7.087   6.032  16.980  0.00  0.00    +0.000 A 
ATOM      6  H   UNL     1       4.933   3.950  15.966  0.00  0.00    +0.000 HD
ENDROOT
BRANCH   1   8
ATOM      7  N   UNL     1       3.955   5.958  18.417  0.00  0.00    +0.000 N 
ATOM      8  C   UNL     1       5.136   5.245  18.454  0.00  0.00    +0.000 C 
ATOM      9  O   UNL     1       5.450   4.545  19.410  0.00  0.00    +0.000 OA
ATOM     10  H   UNL     1       3.875   6.723  17.763  0.00  0.00    +0.000 HD
BRANCH   7  12
ATOM     11  C   UNL     1       2.043   4.723  19.359  0.00  0.00    +0.000 C 
ATOM     12  C   UNL     1       3.002   5.909  19.519  0.00  0.00    +0.000 C 
BRANCH  12  13
ATOM     13  C   UNL     1       2.236   7.219  19.617  0.00  0.00    +0.000 A 
ATOM     14  C   UNL     1       1.584   7.564  20.811  0.00  0.00    +0.000 A 
ATOM     15  C   UNL     1       0.872   8.762  20.915  0.00  0.00    +0.000 A 
ATOM     16  C   UNL     1       0.806   9.633  19.830  0.00  0.00    +0.000 A 
ATOM     17  C   UNL     1       1.448   9.306  18.639  0.00  0.00    +0.000 A 
ATOM     18  C   UNL     1       2.158   8.109  18.531  0.00  0.00    +0.000 A 
ENDBRANCH  12  13
ENDBRANCH   7  12
ENDBRANCH   1   8
BRANCH   5  19
ATOM     19  C   UNL     1       7.733   7.010  17.855  0.00  0.00    +0.000 C 
ATOM     20  O   UNL     1       8.200   6.669  18.939  0.00  0.00    +0.000 OA
ATOM     21  N   UNL     1       7.690   8.309  17.374  0.00  0.00    +0.000 N 
ATOM     22  H   UNL     1       7.080   8.446  16.570  0.00  0.00    +0.000 HD
BRANCH  21  23
ATOM     23  C   UNL     1       8.288   9.430  17.987  0.00  0.00    +0.000 A 
ATOM     24  C   UNL     1       9.072   9.317  19.141  0.00  0.00    +0.000 A 
ATOM     25  C   UNL     1       9.586  10.447  19.780  0.00  0.00    +0.000 A 
ATOM     26  C   UNL     1       9.336  11.715  19.262  0.00  0.00    +0.000 A 
ATOM     27 CL   UNL     1       9.954  13.071  20.134  0.00  0.00    +0.000 Cl
ATOM     28  C   UNL     1       8.601  11.841  18.078  0.00  0.00    +0.000 A 
ATOM     29 CL   UNL     1       8.263  13.384  17.372  0.00  0.00    +0.000 Cl
ATOM     30  C   UNL     1       8.092  10.699  17.433  0.00  0.00    +0.000 A 
ENDBRANCH  21  23
ENDBRANCH   5  19
TORSDOF 5
ENDMDL
MODEL 5
REMARK VINA RESULT:      -8.0      4.273      6.930
REMARK  Name = 
REMARK  6 active torsions:
REMARK  status: ('A' for Active; 'I' for Inactive)
REMARK    1  A    between atoms: C_1  and  C_2
REMARK    2  A    between atoms: C_2  and  N_3
REMARK    3  A    between atoms: C_2  and  C_22
REMARK    4  A    between atoms: C_4  and  C_6
REMARK    5  A    between atoms: C_10  and  C_11
REMARK    6  A    between atoms: N_13  and  C_14
REMARK                            x       y       z     vdW  Elec       q    Type
REMARK                         _______ _______ _______ _____ _____    ______ ____
ROOT
ATOM      1  C   UNL     1       5.634   5.664  16.912  0.00  0.00    +0.000 A 
ATOM      2  N   UNL     1       5.472   4.895  15.785  0.00  0.00    +0.000 N 
ATOM      3  C   UNL     1       6.651   4.889  15.096  0.00  0.00    +0.000 A 
ATOM      4  N   UNL     1       7.572   5.598  15.707  0.00  0.00    +0.000 NA
ATOM      5  C   UNL     1       6.943   6.118  16.837  0.00  0.00    +0.000 A 
ATOM      6  H   UNL     1       4.645   4.367  15.552  0.00  0.00    +0.000 HD
ENDROOT
BRANCH   1   8
ATOM      7  N   UNL     1       3.412   6.224  17.513  0.00  0.00    +0.000 N 
ATOM      8  C   UNL     1       4.653   5.819  17.961  0.00  0.00    +0.000 C 
ATOM      9  O   UNL     1       4.870   5.550  19.136  0.00  0.00    +0.000 OA
ATOM     10  H   UNL     1       3.352   6.699  16.623  0.00  0.00    +0.000 HD
BRANCH   7  12
ATOM     11  C   UNL     1       2.610   7.285  19.586  0.00  0.00    +0.000 C 
ATOM     12  C   UNL     1       2.278   6.345  18.421  0.00  0.00    +0.000 C 
BRANCH  12  13
ATOM     13  C   UNL     1       1.856   4.976  18.929  0.00  0.00    +0.000 A 
ATOM     14  C   UNL     1       1.671   4.764  20.305  0.00  0.00    +0.000 A 
ATOM     15  C   UNL     1       1.288   3.511  20.788  0.00  0.00    +0.000 A 
ATOM     16  C   UNL     1       1.080   2.454  19.906  0.00  0.00    +0.000 A 
ATOM     17  C   UNL     1       1.259   2.647  18.538  0.00  0.00    +0.000 A 
ATOM     18  C   UNL     1       1.644   3.898  18.052  0.00  0.00    +0.000 A 
ENDBRANCH  12  13
ENDBRANCH   7  12
ENDBRANCH   1   8
BRANCH   5  19
ATOM     19  C   UNL     1       7.601   7.040  17.763  0.00  0.00    +0.000 C 
ATOM     20  O   UNL     1       8.002   6.649  18.856  0.00  0.00    +0.000 OA
ATOM     21  N   UNL     1       7.644   8.350  17.315  0.00  0.00    +0.000 N 
ATOM     22  H   UNL     1       7.077   8.538  16.490  0.00  0.00    +0.000 HD
BRANCH  21  23
ATOM     23  C   UNL     1       8.272   9.423  17.982  0.00  0.00    +0.000 A 
ATOM     24  C   UNL     1       9.035   9.236  19.140  0.00  0.00    +0.000 A 
ATOM     25  C   UNL     1       9.578  10.320  19.832  0.00  0.00    +0.000 A 
ATOM     26  C   UNL     1       9.380  11.617  19.363  0.00  0.00    +0.000 A 
ATOM     27 CL   UNL     1      10.032  12.914  20.298  0.00  0.00    +0.000 Cl
ATOM     28  C   UNL     1       8.666  11.817  18.176  0.00  0.00    +0.000 A 
ATOM     29 CL   UNL     1       8.392  13.398  17.531  0.00  0.00    +0.000 Cl
ATOM     30  C   UNL     1       8.128  10.720  17.478  0.00  0.00    +0.000 A 
ENDBRANCH  21  23
ENDBRANCH   5  19
TORSDOF 5
ENDMDL
MODEL 6
REMARK VINA RESULT:      -7.9      0.957      1.049
REMARK  Name = 
REMARK  6 active torsions:
REMARK  status: ('A' for Active; 'I' for Inactive)
REMARK    1  A    between atoms: C_1  and  C_2
REMARK    2  A    between atoms: C_2  and  N_3
REMARK    3  A    between atoms: C_2  and  C_22
REMARK    4  A    between atoms: C_4  and  C_6
REMARK    5  A    between atoms: C_10  and  C_11
REMARK    6  A    between atoms: N_13  and  C_14
REMARK                            x       y       z     vdW  Elec       q    Type
REMARK                         _______ _______ _______ _____ _____    ______ ____
ROOT
ATOM      1  C   UNL     1       4.647   3.795  19.342  0.00  0.00    +0.000 A 
ATOM      2  N   UNL     1       5.140   2.624  19.865  0.00  0.00    +0.000 N 
ATOM      3  C   UNL     1       4.132   1.997  20.540  0.00  0.00    +0.000 A 
ATOM      4  N   UNL     1       3.012   2.682  20.483  0.00  0.00    +0.000 NA
ATOM      5  C   UNL     1       3.324   3.831  19.758  0.00  0.00    +0.000 A 
ATOM      6  H   UNL     1       6.067   2.259  19.708  0.00  0.00    +0.000 HD
ENDROOT
BRANCH   1   8
ATOM      7  N   UNL     1       6.605   4.201  18.072  0.00  0.00    +0.000 N 
ATOM      8  C   UNL     1       5.371   4.681  18.460  0.00  0.00    +0.000 C 
ATOM      9  O   UNL     1       4.912   5.733  18.032  0.00  0.00    +0.000 OA
ATOM     10  H   UNL     1       7.054   3.505  18.649  0.00  0.00    +0.000 HD
BRANCH   7  12
ATOM     11  C   UNL     1       7.388   6.432  17.379  0.00  0.00    +0.000 C 
ATOM     12  C   UNL     1       7.435   4.921  17.114  0.00  0.00    +0.000 C 
BRANCH  12  13
ATOM     13  C   UNL     1       6.999   4.606  15.692  0.00  0.00    +0.000 A 
ATOM     14  C   UNL     1       7.647   5.217  14.606  0.00  0.00    +0.000 A 
ATOM     15  C   UNL     1       7.256   4.940  13.294  0.00  0.00    +0.000 A 
ATOM     16  C   UNL     1       6.216   4.047  13.047  0.00  0.00    +0.000 A 
ATOM     17  C   UNL     1       5.563   3.432  14.112  0.00  0.00    +0.000 A 
ATOM     18  C   UNL     1       5.950   3.708  15.425  0.00  0.00    +0.000 A 
ENDBRANCH  12  13
ENDBRANCH   7  12
ENDBRANCH   1   8
BRANCH   5  19
ATOM     19  C   UNL     1       2.366   4.913  19.528  0.00  0.00    +0.000 C 
ATOM     20  O   UNL     1       1.306   4.697  18.947  0.00  0.00    +0.000 OA
ATOM     21  N   UNL     1       2.810   6.155  19.952  0.00  0.00    +0.000 N 
ATOM     22  H   UNL     1       3.794   6.191  20.213  0.00  0.00    +0.000 HD
BRANCH  21  23
ATOM     23  C   UNL     1       2.063   7.351  19.905  0.00  0.00    +0.000 A 
ATOM     24  C   UNL     1       2.046   8.174  18.773  0.00  0.00    +0.000 A 
ATOM     25  C   UNL     1       1.369   9.395  18.776  0.00  0.00    +0.000 A 
ATOM     26  C   UNL     1       0.679   9.807  19.913  0.00  0.00    +0.000 A 
ATOM     27 CL   UNL     1      -0.089  11.353  19.866  0.00  0.00    +0.000 Cl
ATOM     28  C   UNL     1       0.641   8.971  21.034  0.00  0.00    +0.000 A 
ATOM     29 CL   UNL     1      -0.207   9.414  22.475  0.00  0.00    +0.000 Cl
ATOM     30  C   UNL     1       1.317   7.738  21.023  0.00  0.00    +0.000 A 
ENDBRANCH  21  23
ENDBRANCH   5  19
TORSDOF 5
ENDMDL
MODEL 7
REMARK VINA RESULT:      -7.9      0.987      1.353
REMARK  Name = 
REMARK  6 active torsions:
REMARK  status: ('A' for Active; 'I' for Inactive)
REMARK    1  A    between atoms: C_1  and  C_2
REMARK    2  A    between atoms: C_2  and  N_3
REMARK    3  A    between atoms: C_2  and  C_22
REMARK    4  A    between atoms: C_4  and  C_6
REMARK    5  A    between atoms: C_10  and  C_11
REMARK    6  A    between atoms: N_13  and  C_14
REMARK                            x       y       z     vdW  Elec       q    Type
REMARK                         _______ _______ _______ _____ _____    ______ ____
ROOT
ATOM      1  C   UNL     1       4.079   3.306  18.473  0.00  0.00    +0.000 A 
ATOM      2  N   UNL     1       4.262   1.953  18.321  0.00  0.00    +0.000 N 
ATOM      3  C   UNL     1       3.149   1.313  18.786  0.00  0.00    +0.000 A 
ATOM      4  N   UNL     1       2.249   2.165  19.224  0.00  0.00    +0.000 NA
ATOM      5  C   UNL     1       2.828   3.423  19.062  0.00  0.00    +0.000 A 
ATOM      6  H   UNL     1       5.053   1.517  17.872  0.00  0.00    +0.000 HD
ENDROOT
BRANCH   1   8
ATOM      7  N   UNL     1       5.102   4.359  16.614  0.00  0.00    +0.000 N 
ATOM      8  C   UNL     1       4.980   4.326  17.989  0.00  0.00    +0.000 C 
ATOM      9  O   UNL     1       5.536   5.139  18.717  0.00  0.00    +0.000 OA
ATOM     10  H   UNL     1       4.874   3.528  16.090  0.00  0.00    +0.000 HD
BRANCH   7  12
ATOM     11  C   UNL     1       5.132   6.706  15.866  0.00  0.00    +0.000 C 
ATOM     12  C   UNL     1       5.900   5.381  15.946  0.00  0.00    +0.000 C 
BRANCH  12  13
ATOM     13  C   UNL     1       6.316   4.909  14.563  0.00  0.00    +0.000 A 
ATOM     14  C   UNL     1       5.561   3.928  13.899  0.00  0.00    +0.000 A 
ATOM     15  C   UNL     1       5.932   3.481  12.628  0.00  0.00    +0.000 A 
ATOM     16  C   UNL     1       7.059   4.008  12.002  0.00  0.00    +0.000 A 
ATOM     17  C   UNL     1       7.818   4.981  12.647  0.00  0.00    +0.000 A 
ATOM     18  C   UNL     1       7.451   5.429  13.917  0.00  0.00    +0.000 A 
ENDBRANCH  12  13
ENDBRANCH   7  12
ENDBRANCH   1   8
BRANCH   5  19
ATOM     19  C   UNL     1       2.184   4.660  19.503  0.00  0.00    +0.000 C 
ATOM     20  O   UNL     1       1.376   4.651  20.428  0.00  0.00    +0.000 OA
ATOM     21  N   UNL     1       2.519   5.769  18.742  0.00  0.00    +0.000 N 
ATOM     22  H   UNL     1       3.029   5.560  17.886  0.00  0.00    +0.000 HD
BRANCH  21  23
ATOM     23  C   UNL     1       2.089   7.090  18.987  0.00  0.00    +0.000 A 
ATOM     24  C   UNL     1       1.977   8.038  17.963  0.00  0.00    +0.000 A 
ATOM     25  C   UNL     1       1.631   9.362  18.238  0.00  0.00    +0.000 A 
ATOM     26  C   UNL     1       1.373   9.758  19.548  0.00  0.00    +0.000 A 
ATOM     27 CL   UNL     1       1.006  11.423  19.823  0.00  0.00    +0.000 Cl
ATOM     28  C   UNL     1       1.427   8.810  20.576  0.00  0.00    +0.000 A 
ATOM     29 CL   UNL     1       1.107   9.229  22.223  0.00  0.00    +0.000 Cl
ATOM     30  C   UNL     1       1.768   7.475  20.293  0.00  0.00    +0.000 A 
ENDBRANCH  21  23
ENDBRANCH   5  19
TORSDOF 5
ENDMDL
MODEL 8
REMARK VINA RESULT:      -7.8      3.664      7.589
REMARK  Name = 
REMARK  6 active torsions:
REMARK  status: ('A' for Active; 'I' for Inactive)
REMARK    1  A    between atoms: C_1  and  C_2
REMARK    2  A    between atoms: C_2  and  N_3
REMARK    3  A    between atoms: C_2  and  C_22
REMARK    4  A    between atoms: C_4  and  C_6
REMARK    5  A    between atoms: C_10  and  C_11
REMARK    6  A    between atoms: N_13  and  C_14
REMARK                            x       y       z     vdW  Elec       q    Type
REMARK                         _______ _______ _______ _____ _____    ______ ____
ROOT
ATOM      1  C   UNL     1       2.960   3.750  19.541  0.00  0.00    +0.000 A 
ATOM      2  N   UNL     1       2.423   2.957  20.527  0.00  0.00    +0.000 N 
ATOM      3  C   UNL     1       3.415   2.162  21.026  0.00  0.00    +0.000 A 
ATOM      4  N   UNL     1       4.565   2.393  20.434  0.00  0.00    +0.000 NA
ATOM      5  C   UNL     1       4.292   3.368  19.476  0.00  0.00    +0.000 A 
ATOM      6  H   UNL     1       1.476   3.012  20.870  0.00  0.00    +0.000 HD
ENDROOT
BRANCH   1   8
ATOM      7  N   UNL     1       2.747   6.072  19.126  0.00  0.00    +0.000 N 
ATOM      8  C   UNL     1       2.259   4.810  18.854  0.00  0.00    +0.000 C 
ATOM      9  O   UNL     1       1.359   4.615  18.048  0.00  0.00    +0.000 OA
ATOM     10  H   UNL     1       3.269   6.214  19.980  0.00  0.00    +0.000 HD
BRANCH   7  12
ATOM     11  C   UNL     1       3.301   7.921  17.595  0.00  0.00    +0.000 C 
ATOM     12  C   UNL     1       2.220   7.253  18.454  0.00  0.00    +0.000 C 
BRANCH  12  13
ATOM     13  C   UNL     1       1.650   8.231  19.468  0.00  0.00    +0.000 A 
ATOM     14  C   UNL     1       1.211   9.498  19.053  0.00  0.00    +0.000 A 
ATOM     15  C   UNL     1       0.688  10.410  19.973  0.00  0.00    +0.000 A 
ATOM     16  C   UNL     1       0.593  10.068  21.320  0.00  0.00    +0.000 A 
ATOM     17  C   UNL     1       1.023   8.815  21.749  0.00  0.00    +0.000 A 
ATOM     18  C   UNL     1       1.548   7.902  20.832  0.00  0.00    +0.000 A 
ENDBRANCH  12  13
ENDBRANCH   7  12
ENDBRANCH   1   8
BRANCH   5  19
ATOM     19  C   UNL     1       5.295   3.861  18.531  0.00  0.00    +0.000 C 
ATOM     20  O   UNL     1       6.339   4.366  18.934  0.00  0.00    +0.000 OA
ATOM     21  N   UNL     1       4.911   3.763  17.204  0.00  0.00    +0.000 N 
ATOM     22  H   UNL     1       3.932   3.522  17.059  0.00  0.00    +0.000 HD
BRANCH  21  23
ATOM     23  C   UNL     1       5.710   4.107  16.093  0.00  0.00    +0.000 A 
ATOM     24  C   UNL     1       6.763   5.023  16.189  0.00  0.00    +0.000 A 
ATOM     25  C   UNL     1       7.488   5.414  15.061  0.00  0.00    +0.000 A 
ATOM     26  C   UNL     1       7.180   4.877  13.814  0.00  0.00    +0.000 A 
ATOM     27 CL   UNL     1       8.078   5.446  12.454  0.00  0.00    +0.000 Cl
ATOM     28  C   UNL     1       6.165   3.918  13.710  0.00  0.00    +0.000 A 
ATOM     29 CL   UNL     1       5.738   3.202  12.195  0.00  0.00    +0.000 Cl
ATOM     30  C   UNL     1       5.444   3.522  14.851  0.00  0.00    +0.000 A 
ENDBRANCH  21  23
ENDBRANCH   5  19
TORSDOF 5
ENDMDL
MODEL 9
REMARK VINA RESULT:      -7.8      1.076      1.117
REMARK  Name = 
REMARK  6 active torsions:
REMARK  status: ('A' for Active; 'I' for Inactive)
REMARK    1  A    between atoms: C_1  and  C_2
REMARK    2  A    between atoms: C_2  and  N_3
REMARK    3  A    between atoms: C_2  and  C_22
REMARK    4  A    between atoms: C_4  and  C_6
REMARK    5  A    between atoms: C_10  and  C_11
REMARK    6  A    between atoms: N_13  and  C_14
REMARK                            x       y       z     vdW  Elec       q    Type
REMARK                         _______ _______ _______ _____ _____    ______ ____
ROOT
ATOM      1  C   UNL     1       4.451   4.110  19.554  0.00  0.00    +0.000 A 
ATOM      2  N   UNL     1       4.292   2.816  19.989  0.00  0.00    +0.000 N 
ATOM      3  C   UNL     1       2.987   2.643  20.351  0.00  0.00    +0.000 A 
ATOM      4  N   UNL     1       2.285   3.739  20.172  0.00  0.00    +0.000 NA
ATOM      5  C   UNL     1       3.196   4.682  19.698  0.00  0.00    +0.000 A 
ATOM      6  H   UNL     1       5.003   2.101  19.969  0.00  0.00    +0.000 HD
ENDROOT
BRANCH   1   8
ATOM      7  N   UNL     1       5.636   4.716  17.594  0.00  0.00    +0.000 N 
ATOM      8  C   UNL     1       5.659   4.648  18.972  0.00  0.00    +0.000 C 
ATOM      9  O   UNL     1       6.598   5.073  19.634  0.00  0.00    +0.000 OA
ATOM     10  H   UNL     1       5.000   4.113  17.092  0.00  0.00    +0.000 HD
BRANCH   7  12
ATOM     11  C   UNL     1       6.710   6.843  16.967  0.00  0.00    +0.000 C 
ATOM     12  C   UNL     1       6.733   5.314  16.843  0.00  0.00    +0.000 C 
BRANCH  12  13
ATOM     13  C   UNL     1       6.674   4.886  15.386  0.00  0.00    +0.000 A 
ATOM     14  C   UNL     1       7.645   5.340  14.480  0.00  0.00    +0.000 A 
ATOM     15  C   UNL     1       7.603   4.960  13.136  0.00  0.00    +0.000 A 
ATOM     16  C   UNL     1       6.592   4.117  12.680  0.00  0.00    +0.000 A 
ATOM     17  C   UNL     1       5.621   3.657  13.565  0.00  0.00    +0.000 A 
ATOM     18  C   UNL     1       5.660   4.037  14.908  0.00  0.00    +0.000 A 
ENDBRANCH  12  13
ENDBRANCH   7  12
ENDBRANCH   1   8
BRANCH   5  19
ATOM     19  C   UNL     1       2.838   6.077  19.441  0.00  0.00    +0.000 C 
ATOM     20  O   UNL     1       3.292   6.670  18.465  0.00  0.00    +0.000 OA
ATOM     21  N   UNL     1       2.033   6.639  20.417  0.00  0.00    +0.000 N 
ATOM     22  H   UNL     1       1.929   6.078  21.261  0.00  0.00    +0.000 HD
BRANCH  21  23
ATOM     23  C   UNL     1       1.495   7.944  20.385  0.00  0.00    +0.000 A 
ATOM     24  C   UNL     1       1.610   8.768  19.260  0.00  0.00    +0.000 A 
ATOM     25  C   UNL     1       1.146  10.085  19.278  0.00  0.00    +0.000 A 
ATOM     26  C   UNL     1       0.540  10.596  20.422  0.00  0.00    +0.000 A 
ATOM     27 CL   UNL     1       0.039  12.248  20.394  0.00  0.00    +0.000 Cl
ATOM     28  C   UNL     1       0.368   9.766  21.537  0.00  0.00    +0.000 A 
ATOM     29 CL   UNL     1      -0.387  10.331  22.987  0.00  0.00    +0.000 Cl
ATOM     30  C   UNL     1       0.830   8.438  21.511  0.00  0.00    +0.000 A 
ENDBRANCH  21  23
ENDBRANCH   5  19
TORSDOF 5
ENDMDL
