MODEL 1
REMARK VINA RESULT:      -6.4      0.000      0.000
REMARK  Name = 
REMARK  9 active torsions:
REMARK  status: ('A' for Active; 'I' for Inactive)
REMARK    1  A    between atoms: C_1  and  C_2
REMARK    2  A    between atoms: C_2  and  C_3
REMARK    3  A    between atoms: C_3  and  C_4
REMARK    4  A    between atoms: C_4  and  O_6
REMARK    5  A    between atoms: C_8  and  C_9
REMARK    6  A    between atoms: C_16  and  C_17
REMARK    7  A    between atoms: N_24  and  C_25
REMARK    8  A    between atoms: C_25  and  C_26
REMARK    9  A    between atoms: C_25  and  C_29
REMARK                            x       y       z     vdW  Elec       q    Type
REMARK                         _______ _______ _______ _____ _____    ______ ____
ROOT
ATOM      1  C   UNL     1       0.960  13.735  21.413  0.00  0.00    +0.000 C 
ATOM      2  C   UNL     1       0.599  13.461  19.935  0.00  0.00    +0.000 C 
ATOM      3  C   UNL     1       1.210  12.127  19.439  0.00  0.00    +0.000 C 
ATOM      4  C   UNL     1       0.507  10.860  19.977  0.00  0.00    +0.000 C 
ATOM      5  C   UNL     1      -1.045  11.013  19.853  0.00  0.00    +0.000 C 
ATOM      6  N   UNL     1      -1.454  12.272  20.532  0.00  0.00    +0.000 N 
ATOM      7  C   UNL     1      -0.941  13.404  19.906  0.00  0.00    +0.000 C 
ATOM      8  O   UNL     1      -1.619  14.313  19.441  0.00  0.00    +0.000 OA
ENDROOT
BRANCH   4   9
ATOM      9  C   UNL     1       1.120   9.535  19.505  0.00  0.00    +0.000 A 
ATOM     10  C   UNL     1       1.671   9.408  18.216  0.00  0.00    +0.000 A 
ATOM     11  C   UNL     1       2.288   8.224  17.795  0.00  0.00    +0.000 A 
ATOM     12  C   UNL     1       2.379   7.137  18.655  0.00  0.00    +0.000 A 
ATOM     13  C   UNL     1       1.875   7.250  19.943  0.00  0.00    +0.000 A 
ATOM     14 CL   UNL     1       2.002   5.924  21.035  0.00  0.00    +0.000 Cl
ATOM     15  C   UNL     1       1.274   8.439  20.371  0.00  0.00    +0.000 A 
ENDBRANCH   4   9
BRANCH   5  16
ATOM     16  C   UNL     1      -1.679  10.839  18.458  0.00  0.00    +0.000 A 
ATOM     17  C   UNL     1      -2.334   9.629  18.147  0.00  0.00    +0.000 A 
ATOM     18  C   UNL     1      -2.960   9.428  16.909  0.00  0.00    +0.000 A 
ATOM     19  C   UNL     1      -2.960  10.444  15.961  0.00  0.00    +0.000 A 
ATOM     20 CL   UNL     1      -3.768  10.222  14.459  0.00  0.00    +0.000 Cl
ATOM     21  C   UNL     1      -2.319  11.646  16.233  0.00  0.00    +0.000 A 
ATOM     22  C   UNL     1      -1.680  11.835  17.466  0.00  0.00    +0.000 A 
ENDBRANCH   5  16
BRANCH   2  23
ATOM     23  C   UNL     1       1.074  14.642  19.044  0.00  0.00    +0.000 C 
BRANCH  23  24
ATOM     24  C   UNL     1       2.549  14.654  18.685  0.00  0.00    +0.000 C 
ATOM     25  O   UNL     1       3.455  15.095  19.369  0.00  0.00    +0.000 OA
BRANCH  24  26
ATOM     26  O   UNL     1       2.785  14.068  17.487  0.00  0.00    +0.000 OA
ATOM     27  H   UNL     1       2.327  14.496  16.738  0.00  0.00    +0.000 HD
ENDBRANCH  24  26
ENDBRANCH  23  24
ENDBRANCH   2  23
BRANCH   6  28
ATOM     28  C   UNL     1      -2.740  12.328  21.264  0.00  0.00    +0.000 C 
BRANCH  28  29
ATOM     29  C   UNL     1      -2.613  13.305  22.442  0.00  0.00    +0.000 C 
ATOM     30  C   UNL     1      -3.156  13.019  23.827  0.00  0.00    +0.000 C 
ATOM     31  C   UNL     1      -1.676  13.017  23.591  0.00  0.00    +0.000 C 
ENDBRANCH  28  29
BRANCH  28  32
ATOM     32  C   UNL     1      -3.852  12.894  20.382  0.00  0.00    +0.000 C 
ATOM     33  C   UNL     1      -4.733  12.135  19.413  0.00  0.00    +0.000 C 
ATOM     34  C   UNL     1      -5.283  12.541  20.742  0.00  0.00    +0.000 C 
ENDBRANCH  28  32
ENDBRANCH   6  28
TORSDOF 8
ENDMDL
MODEL 2
REMARK VINA RESULT:      -6.2      2.184      6.116
REMARK  Name = 
REMARK  9 active torsions:
REMARK  status: ('A' for Active; 'I' for Inactive)
REMARK    1  A    between atoms: C_1  and  C_2
REMARK    2  A    between atoms: C_2  and  C_3
REMARK    3  A    between atoms: C_3  and  C_4
REMARK    4  A    between atoms: C_4  and  O_6
REMARK    5  A    between atoms: C_8  and  C_9
REMARK    6  A    between atoms: C_16  and  C_17
REMARK    7  A    between atoms: N_24  and  C_25
REMARK    8  A    between atoms: C_25  and  C_26
REMARK    9  A    between atoms: C_25  and  C_29
REMARK                            x       y       z     vdW  Elec       q    Type
REMARK                         _______ _______ _______ _____ _____    ______ ____
ROOT
ATOM      1  C   UNL     1      -2.721  15.639  22.086  0.00  0.00    +0.000 C 
ATOM      2  C   UNL     1      -2.295  14.175  22.345  0.00  0.00    +0.000 C 
ATOM      3  C   UNL     1      -3.086  13.187  21.453  0.00  0.00    +0.000 C 
ATOM      4  C   UNL     1      -2.659  13.180  19.968  0.00  0.00    +0.000 C 
ATOM      5  C   UNL     1      -1.100  13.136  19.857  0.00  0.00    +0.000 C 
ATOM      6  N   UNL     1      -0.534  14.261  20.648  0.00  0.00    +0.000 N 
ATOM      7  C   UNL     1      -0.791  14.135  22.011  0.00  0.00    +0.000 C 
ATOM      8  O   UNL     1       0.070  14.073  22.881  0.00  0.00    +0.000 OA
ENDROOT
BRANCH   4   9
ATOM      9  C   UNL     1      -3.453  12.217  19.075  0.00  0.00    +0.000 A 
ATOM     10  C   UNL     1      -4.832  12.017  19.268  0.00  0.00    +0.000 A 
ATOM     11  C   UNL     1      -5.579  11.189  18.422  0.00  0.00    +0.000 A 
ATOM     12  C   UNL     1      -4.967  10.543  17.354  0.00  0.00    +0.000 A 
ATOM     13  C   UNL     1      -3.615  10.753  17.123  0.00  0.00    +0.000 A 
ATOM     14 CL   UNL     1      -2.844   9.985  15.787  0.00  0.00    +0.000 Cl
ATOM     15  C   UNL     1      -2.872  11.595  17.956  0.00  0.00    +0.000 A 
ENDBRANCH   4   9
BRANCH   5  16
ATOM     16  C   UNL     1      -0.394  11.790  20.122  0.00  0.00    +0.000 A 
ATOM     17  C   UNL     1      -0.605  11.135  21.354  0.00  0.00    +0.000 A 
ATOM     18  C   UNL     1      -0.019   9.894  21.637  0.00  0.00    +0.000 A 
ATOM     19  C   UNL     1       0.776   9.270  20.683  0.00  0.00    +0.000 A 
ATOM     20 CL   UNL     1       1.457   7.725  21.005  0.00  0.00    +0.000 Cl
ATOM     21  C   UNL     1       1.008   9.890  19.462  0.00  0.00    +0.000 A 
ATOM     22  C   UNL     1       0.434  11.140  19.191  0.00  0.00    +0.000 A 
ENDBRANCH   5  16
BRANCH   2  23
ATOM     23  C   UNL     1      -2.484  13.824  23.847  0.00  0.00    +0.000 C 
BRANCH  23  24
ATOM     24  C   UNL     1      -3.764  13.089  24.203  0.00  0.00    +0.000 C 
ATOM     25  O   UNL     1      -3.927  11.881  24.201  0.00  0.00    +0.000 OA
BRANCH  24  26
ATOM     26  O   UNL     1      -4.752  13.938  24.574  0.00  0.00    +0.000 OA
ATOM     27  H   UNL     1      -5.647  13.549  24.535  0.00  0.00    +0.000 HD
ENDBRANCH  24  26
ENDBRANCH  23  24
ENDBRANCH   2  23
BRANCH   6  28
ATOM     28  C   UNL     1       0.678  14.962  20.168  0.00  0.00    +0.000 C 
BRANCH  28  29
ATOM     29  C   UNL     1       1.761  13.930  19.824  0.00  0.00    +0.000 C 
ATOM     30  C   UNL     1       3.208  14.294  19.562  0.00  0.00    +0.000 C 
ATOM     31  C   UNL     1       2.837  13.572  20.822  0.00  0.00    +0.000 C 
ENDBRANCH  28  29
BRANCH  28  32
ATOM     32  C   UNL     1       0.401  15.713  18.866  0.00  0.00    +0.000 C 
ATOM     33  C   UNL     1      -0.670  16.753  18.614  0.00  0.00    +0.000 C 
ATOM     34  C   UNL     1       0.744  17.190  18.819  0.00  0.00    +0.000 C 
ENDBRANCH  28  32
ENDBRANCH   6  28
TORSDOF 8
ENDMDL
MODEL 3
REMARK VINA RESULT:      -6.2      1.406      2.076
REMARK  Name = 
REMARK  9 active torsions:
REMARK  status: ('A' for Active; 'I' for Inactive)
REMARK    1  A    between atoms: C_1  and  C_2
REMARK    2  A    between atoms: C_2  and  C_3
REMARK    3  A    between atoms: C_3  and  C_4
REMARK    4  A    between atoms: C_4  and  O_6
REMARK    5  A    between atoms: C_8  and  C_9
REMARK    6  A    between atoms: C_16  and  C_17
REMARK    7  A    between atoms: N_24  and  C_25
REMARK    8  A    between atoms: C_25  and  C_26
REMARK    9  A    between atoms: C_25  and  C_29
REMARK                            x       y       z     vdW  Elec       q    Type
REMARK                         _______ _______ _______ _____ _____    ______ ____
ROOT
ATOM      1  C   UNL     1       2.453  13.872  20.396  0.00  0.00    +0.000 C 
ATOM      2  C   UNL     1       1.689  13.454  19.120  0.00  0.00    +0.000 C 
ATOM      3  C   UNL     1       2.014  11.996  18.714  0.00  0.00    +0.000 C 
ATOM      4  C   UNL     1       1.359  10.919  19.609  0.00  0.00    +0.000 C 
ATOM      5  C   UNL     1      -0.147  11.264  19.850  0.00  0.00    +0.000 C 
ATOM      6  N   UNL     1      -0.238  12.646  20.393  0.00  0.00    +0.000 N 
ATOM      7  C   UNL     1       0.198  13.604  19.483  0.00  0.00    +0.000 C 
ATOM      8  O   UNL     1      -0.488  14.527  19.058  0.00  0.00    +0.000 OA
ENDROOT
BRANCH   4   9
ATOM      9  C   UNL     1       1.694   9.472  19.223  0.00  0.00    +0.000 A 
ATOM     10  C   UNL     1       2.288   9.169  17.984  0.00  0.00    +0.000 A 
ATOM     11  C   UNL     1       2.654   7.861  17.646  0.00  0.00    +0.000 A 
ATOM     12  C   UNL     1       2.443   6.821  18.542  0.00  0.00    +0.000 A 
ATOM     13  C   UNL     1       1.892   7.100  19.785  0.00  0.00    +0.000 A 
ATOM     14 CL   UNL     1       1.649   5.829  20.921  0.00  0.00    +0.000 Cl
ATOM     15  C   UNL     1       1.542   8.409  20.131  0.00  0.00    +0.000 A 
ENDBRANCH   4   9
BRANCH   5  16
ATOM     16  C   UNL     1      -1.143  10.994  18.703  0.00  0.00    +0.000 A 
ATOM     17  C   UNL     1      -2.301  11.793  18.597  0.00  0.00    +0.000 A 
ATOM     18  C   UNL     1      -3.222  11.617  17.556  0.00  0.00    +0.000 A 
ATOM     19  C   UNL     1      -2.994  10.649  16.585  0.00  0.00    +0.000 A 
ATOM     20 CL   UNL     1      -4.096  10.461  15.279  0.00  0.00    +0.000 Cl
ATOM     21  C   UNL     1      -1.868   9.842  16.665  0.00  0.00    +0.000 A 
ATOM     22  C   UNL     1      -0.958  10.009  17.717  0.00  0.00    +0.000 A 
ENDBRANCH   5  16
BRANCH   2  23
ATOM     23  C   UNL     1       2.022  14.430  17.957  0.00  0.00    +0.000 C 
BRANCH  23  24
ATOM     24  C   UNL     1       3.365  15.131  18.041  0.00  0.00    +0.000 C 
ATOM     25  O   UNL     1       3.570  16.250  18.478  0.00  0.00    +0.000 OA
BRANCH  24  26
ATOM     26  O   UNL     1       4.376  14.348  17.594  0.00  0.00    +0.000 OA
ATOM     27  H   UNL     1       5.115  14.844  17.191  0.00  0.00    +0.000 HD
ENDBRANCH  24  26
ENDBRANCH  23  24
ENDBRANCH   2  23
BRANCH   6  28
ATOM     28  C   UNL     1      -1.271  12.973  21.402  0.00  0.00    +0.000 C 
BRANCH  28  29
ATOM     29  C   UNL     1      -1.809  11.675  22.020  0.00  0.00    +0.000 C 
ATOM     30  C   UNL     1      -1.098  10.919  23.124  0.00  0.00    +0.000 C 
ATOM     31  C   UNL     1      -2.367  11.658  23.424  0.00  0.00    +0.000 C 
ENDBRANCH  28  29
BRANCH  28  32
ATOM     32  C   UNL     1      -0.674  13.763  22.567  0.00  0.00    +0.000 C 
ATOM     33  C   UNL     1      -0.011  15.123  22.511  0.00  0.00    +0.000 C 
ATOM     34  C   UNL     1      -1.410  15.008  23.023  0.00  0.00    +0.000 C 
ENDBRANCH  28  32
ENDBRANCH   6  28
TORSDOF 8
ENDMDL
MODEL 4
REMARK VINA RESULT:      -6.2      2.678      6.683
REMARK  Name = 
REMARK  9 active torsions:
REMARK  status: ('A' for Active; 'I' for Inactive)
REMARK    1  A    between atoms: C_1  and  C_2
REMARK    2  A    between atoms: C_2  and  C_3
REMARK    3  A    between atoms: C_3  and  C_4
REMARK    4  A    between atoms: C_4  and  O_6
REMARK    5  A    between atoms: C_8  and  C_9
REMARK    6  A    between atoms: C_16  and  C_17
REMARK    7  A    between atoms: N_24  and  C_25
REMARK    8  A    between atoms: C_25  and  C_26
REMARK    9  A    between atoms: C_25  and  C_29
REMARK                            x       y       z     vdW  Elec       q    Type
REMARK                         _______ _______ _______ _____ _____    ______ ____
ROOT
ATOM      1  C   UNL     1      -2.066  16.712  22.500  0.00  0.00    +0.000 C 
ATOM      2  C   UNL     1      -1.752  15.253  22.901  0.00  0.00    +0.000 C 
ATOM      3  C   UNL     1      -2.972  14.326  22.677  0.00  0.00    +0.000 C 
ATOM      4  C   UNL     1      -3.259  13.990  21.196  0.00  0.00    +0.000 C 
ATOM      5  C   UNL     1      -1.933  13.596  20.467  0.00  0.00    +0.000 C 
ATOM      6  N   UNL     1      -0.941  14.687  20.663  0.00  0.00    +0.000 N 
ATOM      7  C   UNL     1      -0.574  14.839  21.997  0.00  0.00    +0.000 C 
ATOM      8  O   UNL     1       0.571  14.735  22.423  0.00  0.00    +0.000 OA
ENDROOT
BRANCH   4   9
ATOM      9  C   UNL     1      -4.479  13.087  20.967  0.00  0.00    +0.000 A 
ATOM     10  C   UNL     1      -5.457  12.920  21.965  0.00  0.00    +0.000 A 
ATOM     11  C   UNL     1      -6.605  12.150  21.746  0.00  0.00    +0.000 A 
ATOM     12  C   UNL     1      -6.810  11.531  20.519  0.00  0.00    +0.000 A 
ATOM     13  C   UNL     1      -5.877  11.711  19.507  0.00  0.00    +0.000 A 
ATOM     14 CL   UNL     1      -6.127  10.977  17.969  0.00  0.00    +0.000 Cl
ATOM     15  C   UNL     1      -4.739  12.496  19.718  0.00  0.00    +0.000 A 
ENDBRANCH   4   9
BRANCH   5  16
ATOM     16  C   UNL     1      -1.353  12.190  20.731  0.00  0.00    +0.000 A 
ATOM     17  C   UNL     1      -0.986  11.382  19.634  0.00  0.00    +0.000 A 
ATOM     18  C   UNL     1      -0.421  10.112  19.813  0.00  0.00    +0.000 A 
ATOM     19  C   UNL     1      -0.192   9.631  21.097  0.00  0.00    +0.000 A 
ATOM     20 CL   UNL     1       0.545   8.095  21.323  0.00  0.00    +0.000 Cl
ATOM     21  C   UNL     1      -0.547  10.400  22.198  0.00  0.00    +0.000 A 
ATOM     22  C   UNL     1      -1.128  11.662  22.014  0.00  0.00    +0.000 A 
ENDBRANCH   5  16
BRANCH   2  23
ATOM     23  C   UNL     1      -1.290  15.197  24.383  0.00  0.00    +0.000 C 
BRANCH  23  24
ATOM     24  C   UNL     1      -2.261  15.760  25.405  0.00  0.00    +0.000 C 
ATOM     25  O   UNL     1      -2.248  16.887  25.869  0.00  0.00    +0.000 OA
BRANCH  24  26
ATOM     26  O   UNL     1      -3.215  14.863  25.748  0.00  0.00    +0.000 OA
ATOM     27  H   UNL     1      -3.651  14.434  24.987  0.00  0.00    +0.000 HD
ENDBRANCH  24  26
ENDBRANCH  23  24
ENDBRANCH   2  23
BRANCH   6  28
ATOM     28  C   UNL     1       0.004  15.026  19.574  0.00  0.00    +0.000 C 
BRANCH  28  29
ATOM     29  C   UNL     1       0.054  16.551  19.400  0.00  0.00    +0.000 C 
ATOM     30  C   UNL     1      -0.105  17.244  18.062  0.00  0.00    +0.000 C 
ATOM     31  C   UNL     1      -1.197  17.337  19.084  0.00  0.00    +0.000 C 
ENDBRANCH  28  29
BRANCH  28  32
ATOM     32  C   UNL     1       1.430  14.610  19.932  0.00  0.00    +0.000 C 
ATOM     33  C   UNL     1       2.028  13.220  19.862  0.00  0.00    +0.000 C 
ATOM     34  C   UNL     1       2.354  14.215  18.795  0.00  0.00    +0.000 C 
ENDBRANCH  28  32
ENDBRANCH   6  28
TORSDOF 8
ENDMDL
MODEL 5
REMARK VINA RESULT:      -6.1      2.888      6.589
REMARK  Name = 
REMARK  9 active torsions:
REMARK  status: ('A' for Active; 'I' for Inactive)
REMARK    1  A    between atoms: C_1  and  C_2
REMARK    2  A    between atoms: C_2  and  C_3
REMARK    3  A    between atoms: C_3  and  C_4
REMARK    4  A    between atoms: C_4  and  O_6
REMARK    5  A    between atoms: C_8  and  C_9
REMARK    6  A    between atoms: C_16  and  C_17
REMARK    7  A    between atoms: N_24  and  C_25
REMARK    8  A    between atoms: C_25  and  C_26
REMARK    9  A    between atoms: C_25  and  C_29
REMARK                            x       y       z     vdW  Elec       q    Type
REMARK                         _______ _______ _______ _____ _____    ______ ____
ROOT
ATOM      1  C   UNL     1      -2.678  16.443  22.271  0.00  0.00    +0.000 C 
ATOM      2  C   UNL     1      -2.365  14.987  22.685  0.00  0.00    +0.000 C 
ATOM      3  C   UNL     1      -3.444  14.005  22.168  0.00  0.00    +0.000 C 
ATOM      4  C   UNL     1      -3.379  13.720  20.650  0.00  0.00    +0.000 C 
ATOM      5  C   UNL     1      -1.902  13.434  20.220  0.00  0.00    +0.000 C 
ATOM      6  N   UNL     1      -1.049  14.569  20.665  0.00  0.00    +0.000 N 
ATOM      7  C   UNL     1      -0.994  14.681  22.051  0.00  0.00    +0.000 C 
ATOM      8  O   UNL     1       0.035  14.623  22.716  0.00  0.00    +0.000 OA
ENDROOT
BRANCH   4   9
ATOM      9  C   UNL     1      -4.458  12.762  20.129  0.00  0.00    +0.000 A 
ATOM     10  C   UNL     1      -4.298  12.085  18.905  0.00  0.00    +0.000 A 
ATOM     11  C   UNL     1      -5.246  11.162  18.448  0.00  0.00    +0.000 A 
ATOM     12  C   UNL     1      -6.376  10.883  19.207  0.00  0.00    +0.000 A 
ATOM     13  C   UNL     1      -6.537  11.511  20.435  0.00  0.00    +0.000 A 
ATOM     14 CL   UNL     1      -7.916  11.158  21.405  0.00  0.00    +0.000 Cl
ATOM     15  C   UNL     1      -5.582  12.420  20.901  0.00  0.00    +0.000 A 
ENDBRANCH   4   9
BRANCH   5  16
ATOM     16  C   UNL     1      -1.304  12.053  20.561  0.00  0.00    +0.000 A 
ATOM     17  C   UNL     1      -0.777  11.258  19.522  0.00  0.00    +0.000 A 
ATOM     18  C   UNL     1      -0.189  10.011  19.776  0.00  0.00    +0.000 A 
ATOM     19  C   UNL     1      -0.098   9.542  21.080  0.00  0.00    +0.000 A 
ATOM     20 CL   UNL     1       0.666   8.036  21.404  0.00  0.00    +0.000 Cl
ATOM     21  C   UNL     1      -0.612  10.298  22.126  0.00  0.00    +0.000 A 
ATOM     22  C   UNL     1      -1.215  11.536  21.865  0.00  0.00    +0.000 A 
ENDBRANCH   5  16
BRANCH   2  23
ATOM     23  C   UNL     1      -2.236  14.890  24.231  0.00  0.00    +0.000 C 
BRANCH  23  24
ATOM     24  C   UNL     1      -3.058  15.884  25.031  0.00  0.00    +0.000 C 
ATOM     25  O   UNL     1      -2.652  16.914  25.539  0.00  0.00    +0.000 OA
BRANCH  24  26
ATOM     26  O   UNL     1      -4.361  15.522  25.107  0.00  0.00    +0.000 OA
ATOM     27  H   UNL     1      -4.501  14.599  25.396  0.00  0.00    +0.000 HD
ENDBRANCH  24  26
ENDBRANCH  23  24
ENDBRANCH   2  23
BRANCH   6  28
ATOM     28  C   UNL     1       0.086  15.010  19.823  0.00  0.00    +0.000 C 
BRANCH  28  29
ATOM     29  C   UNL     1       0.105  16.543  19.756  0.00  0.00    +0.000 C 
ATOM     30  C   UNL     1       0.406  17.320  18.490  0.00  0.00    +0.000 C 
ATOM     31  C   UNL     1      -0.988  17.302  19.041  0.00  0.00    +0.000 C 
ENDBRANCH  28  29
BRANCH  28  32
ATOM     32  C   UNL     1       1.423  14.612  20.449  0.00  0.00    +0.000 C 
ATOM     33  C   UNL     1       2.058  13.238  20.465  0.00  0.00    +0.000 C 
ATOM     34  C   UNL     1       2.565  14.270  19.511  0.00  0.00    +0.000 C 
ENDBRANCH  28  32
ENDBRANCH   6  28
TORSDOF 8
ENDMDL
MODEL 6
REMARK VINA RESULT:      -6.0      2.336      6.295
REMARK  Name = 
REMARK  9 active torsions:
REMARK  status: ('A' for Active; 'I' for Inactive)
REMARK    1  A    between atoms: C_1  and  C_2
REMARK    2  A    between atoms: C_2  and  C_3
REMARK    3  A    between atoms: C_3  and  C_4
REMARK    4  A    between atoms: C_4  and  O_6
REMARK    5  A    between atoms: C_8  and  C_9
REMARK    6  A    between atoms: C_16  and  C_17
REMARK    7  A    between atoms: N_24  and  C_25
REMARK    8  A    between atoms: C_25  and  C_26
REMARK    9  A    between atoms: C_25  and  C_29
REMARK                            x       y       z     vdW  Elec       q    Type
REMARK                         _______ _______ _______ _____ _____    ______ ____
ROOT
ATOM      1  C   UNL     1      -2.703  16.109  22.088  0.00  0.00    +0.000 C 
ATOM      2  C   UNL     1      -2.352  14.656  22.482  0.00  0.00    +0.000 C 
ATOM      3  C   UNL     1      -3.250  13.634  21.743  0.00  0.00    +0.000 C 
ATOM      4  C   UNL     1      -2.911  13.444  20.248  0.00  0.00    +0.000 C 
ATOM      5  C   UNL     1      -1.366  13.286  20.063  0.00  0.00    +0.000 C 
ATOM      6  N   UNL     1      -0.690  14.449  20.698  0.00  0.00    +0.000 N 
ATOM      7  C   UNL     1      -0.874  14.483  22.077  0.00  0.00    +0.000 C 
ATOM      8  O   UNL     1       0.031  14.457  22.905  0.00  0.00    +0.000 OA
ENDROOT
BRANCH   4   9
ATOM      9  C   UNL     1      -3.810  12.446  19.506  0.00  0.00    +0.000 A 
ATOM     10  C   UNL     1      -5.162  12.282  19.863  0.00  0.00    +0.000 A 
ATOM     11  C   UNL     1      -6.008  11.421  19.155  0.00  0.00    +0.000 A 
ATOM     12  C   UNL     1      -5.528  10.706  18.064  0.00  0.00    +0.000 A 
ATOM     13  C   UNL     1      -4.208  10.879  17.671  0.00  0.00    +0.000 A 
ATOM     14 CL   UNL     1      -3.600  10.024  16.305  0.00  0.00    +0.000 Cl
ATOM     15  C   UNL     1      -3.366  11.753  18.367  0.00  0.00    +0.000 A 
ENDBRANCH   4   9
BRANCH   5  16
ATOM     16  C   UNL     1      -0.727  11.932  20.436  0.00  0.00    +0.000 A 
ATOM     17  C   UNL     1      -0.195  11.119  19.414  0.00  0.00    +0.000 A 
ATOM     18  C   UNL     1       0.429   9.896  19.696  0.00  0.00    +0.000 A 
ATOM     19  C   UNL     1       0.551   9.469  21.013  0.00  0.00    +0.000 A 
ATOM     20 CL   UNL     1       1.358   7.994  21.371  0.00  0.00    +0.000 Cl
ATOM     21  C   UNL     1       0.032  10.243  22.043  0.00  0.00    +0.000 A 
ATOM     22  C   UNL     1      -0.607  11.457  21.754  0.00  0.00    +0.000 A 
ENDBRANCH   5  16
BRANCH   2  23
ATOM     23  C   UNL     1      -2.474  14.478  24.021  0.00  0.00    +0.000 C 
BRANCH  23  24
ATOM     24  C   UNL     1      -3.885  14.351  24.566  0.00  0.00    +0.000 C 
ATOM     25  O   UNL     1      -4.790  15.155  24.422  0.00  0.00    +0.000 OA
BRANCH  24  26
ATOM     26  O   UNL     1      -4.070  13.187  25.233  0.00  0.00    +0.000 OA
ATOM     27  H   UNL     1      -4.947  12.781  25.090  0.00  0.00    +0.000 HD
ENDBRANCH  24  26
ENDBRANCH  23  24
ENDBRANCH   2  23
BRANCH   6  28
ATOM     28  C   UNL     1       0.533  15.015  20.084  0.00  0.00    +0.000 C 
BRANCH  28  29
ATOM     29  C   UNL     1       1.483  13.874  19.694  0.00  0.00    +0.000 C 
ATOM     30  C   UNL     1       2.940  14.085  19.338  0.00  0.00    +0.000 C 
ATOM     31  C   UNL     1       2.578  13.422  20.632  0.00  0.00    +0.000 C 
ENDBRANCH  28  29
BRANCH  28  32
ATOM     32  C   UNL     1       0.208  15.739  18.777  0.00  0.00    +0.000 C 
ATOM     33  C   UNL     1      -0.757  16.889  18.579  0.00  0.00    +0.000 C 
ATOM     34  C   UNL     1       0.712  17.161  18.618  0.00  0.00    +0.000 C 
ENDBRANCH  28  32
ENDBRANCH   6  28
TORSDOF 8
ENDMDL
MODEL 7
REMARK VINA RESULT:      -6.0      2.547      6.309
REMARK  Name = 
REMARK  9 active torsions:
REMARK  status: ('A' for Active; 'I' for Inactive)
REMARK    1  A    between atoms: C_1  and  C_2
REMARK    2  A    between atoms: C_2  and  C_3
REMARK    3  A    between atoms: C_3  and  C_4
REMARK    4  A    between atoms: C_4  and  O_6
REMARK    5  A    between atoms: C_8  and  C_9
REMARK    6  A    between atoms: C_16  and  C_17
REMARK    7  A    between atoms: N_24  and  C_25
REMARK    8  A    between atoms: C_25  and  C_26
REMARK    9  A    between atoms: C_25  and  C_29
REMARK                            x       y       z     vdW  Elec       q    Type
REMARK                         _______ _______ _______ _____ _____    ______ ____
ROOT
ATOM      1  C   UNL     1      -2.485  16.016  22.300  0.00  0.00    +0.000 C 
ATOM      2  C   UNL     1      -2.124  14.540  22.585  0.00  0.00    +0.000 C 
ATOM      3  C   UNL     1      -3.063  13.569  21.829  0.00  0.00    +0.000 C 
ATOM      4  C   UNL     1      -2.799  13.471  20.310  0.00  0.00    +0.000 C 
ATOM      5  C   UNL     1      -1.265  13.320  20.040  0.00  0.00    +0.000 C 
ATOM      6  N   UNL     1      -0.552  14.439  20.712  0.00  0.00    +0.000 N 
ATOM      7  C   UNL     1      -0.669  14.388  22.098  0.00  0.00    +0.000 C 
ATOM      8  O   UNL     1       0.275  14.307  22.877  0.00  0.00    +0.000 OA
ENDROOT
BRANCH   4   9
ATOM      9  C   UNL     1      -3.739  12.524  19.553  0.00  0.00    +0.000 A 
ATOM     10  C   UNL     1      -3.265  11.716  18.502  0.00  0.00    +0.000 A 
ATOM     11  C   UNL     1      -4.099  10.804  17.845  0.00  0.00    +0.000 A 
ATOM     12  C   UNL     1      -5.428  10.668  18.227  0.00  0.00    +0.000 A 
ATOM     13  C   UNL     1      -5.909  11.428  19.284  0.00  0.00    +0.000 A 
ATOM     14 CL   UNL     1      -7.546  11.255  19.791  0.00  0.00    +0.000 Cl
ATOM     15  C   UNL     1      -5.072  12.327  19.953  0.00  0.00    +0.000 A 
ENDBRANCH   4   9
BRANCH   5  16
ATOM     16  C   UNL     1      -0.618  11.944  20.297  0.00  0.00    +0.000 A 
ATOM     17  C   UNL     1      -0.761  11.343  21.565  0.00  0.00    +0.000 A 
ATOM     18  C   UNL     1      -0.226  10.078  21.844  0.00  0.00    +0.000 A 
ATOM     19  C   UNL     1       0.449   9.378  20.852  0.00  0.00    +0.000 A 
ATOM     20 CL   UNL     1       1.066   7.805  21.174  0.00  0.00    +0.000 Cl
ATOM     21  C   UNL     1       0.614   9.944  19.595  0.00  0.00    +0.000 A 
ATOM     22  C   UNL     1       0.092  11.216  19.325  0.00  0.00    +0.000 A 
ENDBRANCH   5  16
BRANCH   2  23
ATOM     23  C   UNL     1      -2.172  14.267  24.114  0.00  0.00    +0.000 C 
BRANCH  23  24
ATOM     24  C   UNL     1      -3.532  13.905  24.682  0.00  0.00    +0.000 C 
ATOM     25  O   UNL     1      -3.929  12.783  24.947  0.00  0.00    +0.000 OA
BRANCH  24  26
ATOM     26  O   UNL     1      -4.295  15.000  24.913  0.00  0.00    +0.000 OA
ATOM     27  H   UNL     1      -3.861  15.843  24.680  0.00  0.00    +0.000 HD
ENDBRANCH  24  26
ENDBRANCH  23  24
ENDBRANCH   2  23
BRANCH   6  28
ATOM     28  C   UNL     1       0.643  15.039  20.075  0.00  0.00    +0.000 C 
BRANCH  28  29
ATOM     29  C   UNL     1       1.629  13.926  19.694  0.00  0.00    +0.000 C 
ATOM     30  C   UNL     1       3.091  14.177  19.382  0.00  0.00    +0.000 C 
ATOM     31  C   UNL     1       2.708  13.484  20.654  0.00  0.00    +0.000 C 
ENDBRANCH  28  29
BRANCH  28  32
ATOM     32  C   UNL     1       0.278  15.729  18.761  0.00  0.00    +0.000 C 
ATOM     33  C   UNL     1      -0.749  16.822  18.550  0.00  0.00    +0.000 C 
ATOM     34  C   UNL     1       0.703  17.174  18.584  0.00  0.00    +0.000 C 
ENDBRANCH  28  32
ENDBRANCH   6  28
TORSDOF 8
ENDMDL
MODEL 8
REMARK VINA RESULT:      -6.0      2.106      6.192
REMARK  Name = 
REMARK  9 active torsions:
REMARK  status: ('A' for Active; 'I' for Inactive)
REMARK    1  A    between atoms: C_1  and  C_2
REMARK    2  A    between atoms: C_2  and  C_3
REMARK    3  A    between atoms: C_3  and  C_4
REMARK    4  A    between atoms: C_4  and  O_6
REMARK    5  A    between atoms: C_8  and  C_9
REMARK    6  A    between atoms: C_16  and  C_17
REMARK    7  A    between atoms: N_24  and  C_25
REMARK    8  A    between atoms: C_25  and  C_26
REMARK    9  A    between atoms: C_25  and  C_29
REMARK                            x       y       z     vdW  Elec       q    Type
REMARK                         _______ _______ _______ _____ _____    ______ ____
ROOT
ATOM      1  C   UNL     1      -2.275  15.458  21.818  0.00  0.00    +0.000 C 
ATOM      2  C   UNL     1      -1.993  13.967  22.109  0.00  0.00    +0.000 C 
ATOM      3  C   UNL     1      -2.794  13.041  21.160  0.00  0.00    +0.000 C 
ATOM      4  C   UNL     1      -2.258  12.989  19.712  0.00  0.00    +0.000 C 
ATOM      5  C   UNL     1      -0.704  12.814  19.719  0.00  0.00    +0.000 C 
ATOM      6  N   UNL     1      -0.108  13.895  20.551  0.00  0.00    +0.000 N 
ATOM      7  C   UNL     1      -0.477  13.799  21.890  0.00  0.00    +0.000 C 
ATOM      8  O   UNL     1       0.308  13.672  22.823  0.00  0.00    +0.000 OA
ENDROOT
BRANCH   4   9
ATOM      9  C   UNL     1      -3.059  12.089  18.762  0.00  0.00    +0.000 A 
ATOM     10  C   UNL     1      -4.419  11.812  18.997  0.00  0.00    +0.000 A 
ATOM     11  C   UNL     1      -5.176  11.043  18.106  0.00  0.00    +0.000 A 
ATOM     12  C   UNL     1      -4.596  10.536  16.949  0.00  0.00    +0.000 A 
ATOM     13  C   UNL     1      -3.266  10.826  16.677  0.00  0.00    +0.000 A 
ATOM     14 CL   UNL     1      -2.535  10.232  15.235  0.00  0.00    +0.000 Cl
ATOM     15  C   UNL     1      -2.513  11.609  17.558  0.00  0.00    +0.000 A 
ENDBRANCH   4   9
BRANCH   5  16
ATOM     16  C   UNL     1      -0.135  11.416  20.038  0.00  0.00    +0.000 A 
ATOM     17  C   UNL     1      -0.476  10.798  21.259  0.00  0.00    +0.000 A 
ATOM     18  C   UNL     1      -0.018   9.515  21.587  0.00  0.00    +0.000 A 
ATOM     19  C   UNL     1       0.776   8.813  20.689  0.00  0.00    +0.000 A 
ATOM     20 CL   UNL     1       1.301   7.219  21.065  0.00  0.00    +0.000 Cl
ATOM     21  C   UNL     1       1.135   9.396  19.481  0.00  0.00    +0.000 A 
ATOM     22  C   UNL     1       0.690  10.686  19.165  0.00  0.00    +0.000 A 
ENDBRANCH   5  16
BRANCH   2  23
ATOM     23  C   UNL     1      -2.324  13.643  23.593  0.00  0.00    +0.000 C 
BRANCH  23  24
ATOM     24  C   UNL     1      -3.768  13.282  23.889  0.00  0.00    +0.000 C 
ATOM     25  O   UNL     1      -4.722  14.040  23.862  0.00  0.00    +0.000 OA
BRANCH  24  26
ATOM     26  O   UNL     1      -3.916  11.966  24.170  0.00  0.00    +0.000 OA
ATOM     27  H   UNL     1      -4.324  11.787  25.039  0.00  0.00    +0.000 HD
ENDBRANCH  24  26
ENDBRANCH  23  24
ENDBRANCH   2  23
BRANCH   6  28
ATOM     28  C   UNL     1       1.191  14.490  20.164  0.00  0.00    +0.000 C 
BRANCH  28  29
ATOM     29  C   UNL     1       1.475  14.176  18.688  0.00  0.00    +0.000 C 
ATOM     30  C   UNL     1       2.668  14.725  17.932  0.00  0.00    +0.000 C 
ATOM     31  C   UNL     1       2.619  13.272  18.293  0.00  0.00    +0.000 C 
ENDBRANCH  28  29
BRANCH  28  32
ATOM     32  C   UNL     1       1.148  16.015  20.256  0.00  0.00    +0.000 C 
ATOM     33  C   UNL     1       1.005  16.857  21.506  0.00  0.00    +0.000 C 
ATOM     34  C   UNL     1       2.347  16.716  20.865  0.00  0.00    +0.000 C 
ENDBRANCH  28  32
ENDBRANCH   6  28
TORSDOF 8
ENDMDL
MODEL 9
REMARK VINA RESULT:      -6.0      2.612      6.521
REMARK  Name = 
REMARK  9 active torsions:
REMARK  status: ('A' for Active; 'I' for Inactive)
REMARK    1  A    between atoms: C_1  and  C_2
REMARK    2  A    between atoms: C_2  and  C_3
REMARK    3  A    between atoms: C_3  and  C_4
REMARK    4  A    between atoms: C_4  and  O_6
REMARK    5  A    between atoms: C_8  and  C_9
REMARK    6  A    between atoms: C_16  and  C_17
REMARK    7  A    between atoms: N_24  and  C_25
REMARK    8  A    between atoms: C_25  and  C_26
REMARK    9  A    between atoms: C_25  and  C_29
REMARK                            x       y       z     vdW  Elec       q    Type
REMARK                         _______ _______ _______ _____ _____    ______ ____
ROOT
ATOM      1  C   UNL     1      -2.187  16.611  22.570  0.00  0.00    +0.000 C 
ATOM      2  C   UNL     1      -1.845  15.138  22.892  0.00  0.00    +0.000 C 
ATOM      3  C   UNL     1      -2.974  14.180  22.439  0.00  0.00    +0.000 C 
ATOM      4  C   UNL     1      -3.053  13.958  20.912  0.00  0.00    +0.000 C 
ATOM      5  C   UNL     1      -1.625  13.688  20.333  0.00  0.00    +0.000 C 
ATOM      6  N   UNL     1      -0.728  14.802  20.742  0.00  0.00    +0.000 N 
ATOM      7  C   UNL     1      -0.541  14.856  22.120  0.00  0.00    +0.000 C 
ATOM      8  O   UNL     1       0.545  14.768  22.682  0.00  0.00    +0.000 OA
ENDROOT
BRANCH   4   9
ATOM      9  C   UNL     1      -4.182  13.024  20.455  0.00  0.00    +0.000 A 
ATOM     10  C   UNL     1      -5.292  12.769  21.281  0.00  0.00    +0.000 A 
ATOM     11  C   UNL     1      -6.357  11.969  20.852  0.00  0.00    +0.000 A 
ATOM     12  C   UNL     1      -6.345  11.408  19.581  0.00  0.00    +0.000 A 
ATOM     13  C   UNL     1      -5.278  11.675  18.734  0.00  0.00    +0.000 A 
ATOM     14 CL   UNL     1      -5.257  11.014  17.144  0.00  0.00    +0.000 Cl
ATOM     15  C   UNL     1      -4.222  12.490  19.156  0.00  0.00    +0.000 A 
ENDBRANCH   4   9
BRANCH   5  16
ATOM     16  C   UNL     1      -1.006  12.293  20.558  0.00  0.00    +0.000 A 
ATOM     17  C   UNL     1      -0.733  11.867  21.875  0.00  0.00    +0.000 A 
ATOM     18  C   UNL     1      -0.204  10.598  22.144  0.00  0.00    +0.000 A 
ATOM     19  C   UNL     1       0.045   9.717  21.098  0.00  0.00    +0.000 A 
ATOM     20 CL   UNL     1       0.648   8.140  21.424  0.00  0.00    +0.000 Cl
ATOM     21  C   UNL     1      -0.207  10.107  19.789  0.00  0.00    +0.000 A 
ATOM     22  C   UNL     1      -0.719  11.384  19.525  0.00  0.00    +0.000 A 
ENDBRANCH   5  16
BRANCH   2  23
ATOM     23  C   UNL     1      -1.571  14.977  24.413  0.00  0.00    +0.000 C 
BRANCH  23  24
ATOM     24  C   UNL     1      -2.676  15.448  25.342  0.00  0.00    +0.000 C 
ATOM     25  O   UNL     1      -2.956  16.606  25.601  0.00  0.00    +0.000 OA
BRANCH  24  26
ATOM     26  O   UNL     1      -3.381  14.415  25.859  0.00  0.00    +0.000 OA
ATOM     27  H   UNL     1      -4.012  14.011  25.232  0.00  0.00    +0.000 HD
ENDBRANCH  24  26
ENDBRANCH  23  24
ENDBRANCH   2  23
BRANCH   6  28
ATOM     28  C   UNL     1       0.326  15.275  19.815  0.00  0.00    +0.000 C 
BRANCH  28  29
ATOM     29  C   UNL     1       1.065  14.066  19.224  0.00  0.00    +0.000 C 
ATOM     30  C   UNL     1       2.406  14.167  18.526  0.00  0.00    +0.000 C 
ATOM     31  C   UNL     1       2.316  13.527  19.878  0.00  0.00    +0.000 C 
ENDBRANCH  28  29
BRANCH  28  32
ATOM     32  C   UNL     1      -0.280  16.007  18.619  0.00  0.00    +0.000 C 
ATOM     33  C   UNL     1      -1.147  17.249  18.643  0.00  0.00    +0.000 C 
ATOM     34  C   UNL     1       0.294  17.365  18.261  0.00  0.00    +0.000 C 
ENDBRANCH  28  32
ENDBRANCH   6  28
TORSDOF 8
ENDMDL
