MODEL 1
REMARK VINA RESULT:      -7.3      0.000      0.000
REMARK  Name = 
REMARK  8 active torsions:
REMARK  status: ('A' for Active; 'I' for Inactive)
REMARK    1  A    between atoms: C_1  and  O_2
REMARK    2  A    between atoms: O_2  and  C_3
REMARK    3  A    between atoms: C_6  and  C_7
REMARK    4  A    between atoms: C_10  and  S_11
REMARK    5  A    between atoms: S_11  and  C_12
REMARK    6  A    between atoms: C_12  and  C_21
REMARK    7  A    between atoms: C_13  and  C_14
REMARK    8  A    between atoms: C_21  and  O_23
REMARK                            x       y       z     vdW  Elec       q    Type
REMARK                         _______ _______ _______ _____ _____    ______ ____
ROOT
ATOM      1  S   UNL     1       6.334   6.860  16.085  0.00  0.00    +0.000 S 
ENDROOT
BRANCH   1   5
ATOM      2  C   UNL     1       8.546   8.916  18.439  0.00  0.00    +0.000 A 
ATOM      3  N   UNL     1       8.626   7.751  19.050  0.00  0.00    +0.000 NA
ATOM      4  N   UNL     1       7.874   6.867  18.312  0.00  0.00    +0.000 NA
ATOM      5  C   UNL     1       7.416   7.531  17.271  0.00  0.00    +0.000 A 
ATOM      6  O   UNL     1       7.787   8.854  17.294  0.00  0.00    +0.000 OA
BRANCH   2  10
ATOM      7  C   UNL     1      10.392  12.613  19.579  0.00  0.00    +0.000 A 
ATOM      8  C   UNL     1       9.938  11.709  20.539  0.00  0.00    +0.000 A 
ATOM      9  C   UNL     1       9.334  10.508  20.155  0.00  0.00    +0.000 A 
ATOM     10  C   UNL     1       9.161  10.189  18.798  0.00  0.00    +0.000 A 
ATOM     11  C   UNL     1       9.590  11.119  17.841  0.00  0.00    +0.000 A 
ATOM     12  C   UNL     1      10.202  12.323  18.228  0.00  0.00    +0.000 A 
BRANCH   7  14
ATOM     13  C   UNL     1      10.092  14.877  20.192  0.00  0.00    +0.000 C 
ATOM     14  O   UNL     1      10.958  13.754  20.074  0.00  0.00    +0.000 OA
ENDBRANCH   7  14
ENDBRANCH   2  10
ENDBRANCH   1   5
BRANCH   1  15
ATOM     15  C   UNL     1       5.312   5.813  17.054  0.00  0.00    +0.000 C 
ATOM     16  C   UNL     1       4.165   6.208  17.638  0.00  0.00    +0.000 C 
BRANCH  16  17
ATOM     17  C   UNL     1       3.253   5.414  18.474  0.00  0.00    +0.000 A 
ATOM     18  C   UNL     1       2.245   4.647  17.876  0.00  0.00    +0.000 A 
ATOM     19  C   UNL     1       1.424   3.828  18.658  0.00  0.00    +0.000 A 
ATOM     20  C   UNL     1       1.611   3.774  20.037  0.00  0.00    +0.000 A 
ATOM     21 CL   UNL     1       0.621   2.740  20.993  0.00  0.00    +0.000 Cl
ATOM     22  C   UNL     1       2.603   4.541  20.644  0.00  0.00    +0.000 A 
ATOM     23  C   UNL     1       3.425   5.360  19.862  0.00  0.00    +0.000 A 
ENDBRANCH  16  17
BRANCH  15  24
ATOM     24  C   UNL     1       5.747   4.369  17.098  0.00  0.00    +0.000 C 
ATOM     25  O   UNL     1       5.449   3.521  16.274  0.00  0.00    +0.000 OA
BRANCH  24  26
ATOM     26  O   UNL     1       6.536   4.068  18.158  0.00  0.00    +0.000 OA
ATOM     27  H   UNL     1       7.457   4.371  18.048  0.00  0.00    +0.000 HD
ENDBRANCH  24  26
ENDBRANCH  15  24
ENDBRANCH   1  15
TORSDOF 7
ENDMDL
MODEL 2
REMARK VINA RESULT:      -7.0      1.151      1.304
REMARK  Name = 
REMARK  8 active torsions:
REMARK  status: ('A' for Active; 'I' for Inactive)
REMARK    1  A    between atoms: C_1  and  O_2
REMARK    2  A    between atoms: O_2  and  C_3
REMARK    3  A    between atoms: C_6  and  C_7
REMARK    4  A    between atoms: C_10  and  S_11
REMARK    5  A    between atoms: S_11  and  C_12
REMARK    6  A    between atoms: C_12  and  C_21
REMARK    7  A    between atoms: C_13  and  C_14
REMARK    8  A    between atoms: C_21  and  O_23
REMARK                            x       y       z     vdW  Elec       q    Type
REMARK                         _______ _______ _______ _____ _____    ______ ____
ROOT
ATOM      1  S   UNL     1       6.265   6.812  16.469  0.00  0.00    +0.000 S 
ENDROOT
BRANCH   1   5
ATOM      2  C   UNL     1       8.506   9.351  18.255  0.00  0.00    +0.000 A 
ATOM      3  N   UNL     1       8.772   8.291  18.991  0.00  0.00    +0.000 NA
ATOM      4  N   UNL     1       8.036   7.254  18.468  0.00  0.00    +0.000 NA
ATOM      5  C   UNL     1       7.399   7.728  17.418  0.00  0.00    +0.000 A 
ATOM      6  O   UNL     1       7.634   9.070  17.230  0.00  0.00    +0.000 OA
BRANCH   2  10
ATOM      7  C   UNL     1      10.124  13.304  18.618  0.00  0.00    +0.000 A 
ATOM      8  C   UNL     1      10.664  12.236  19.335  0.00  0.00    +0.000 A 
ATOM      9  C   UNL     1      10.125  10.953  19.211  0.00  0.00    +0.000 A 
ATOM     10  C   UNL     1       9.025  10.710  18.373  0.00  0.00    +0.000 A 
ATOM     11  C   UNL     1       8.467  11.795  17.683  0.00  0.00    +0.000 A 
ATOM     12  C   UNL     1       9.014  13.084  17.804  0.00  0.00    +0.000 A 
BRANCH   7  14
ATOM     13  C   UNL     1      10.837  15.357  17.687  0.00  0.00    +0.000 C 
ATOM     14  O   UNL     1      10.730  14.511  18.826  0.00  0.00    +0.000 OA
ENDBRANCH   7  14
ENDBRANCH   2  10
ENDBRANCH   1   5
BRANCH   1  15
ATOM     15  C   UNL     1       5.463   5.828  17.682  0.00  0.00    +0.000 C 
ATOM     16  C   UNL     1       4.127   5.731  17.811  0.00  0.00    +0.000 C 
BRANCH  16  17
ATOM     17  C   UNL     1       3.366   4.949  18.796  0.00  0.00    +0.000 A 
ATOM     18  C   UNL     1       3.292   3.556  18.677  0.00  0.00    +0.000 A 
ATOM     19  C   UNL     1       2.637   2.798  19.654  0.00  0.00    +0.000 A 
ATOM     20  C   UNL     1       2.056   3.433  20.749  0.00  0.00    +0.000 A 
ATOM     21 CL   UNL     1       1.279   2.495  21.966  0.00  0.00    +0.000 Cl
ATOM     22  C   UNL     1       2.114   4.820  20.872  0.00  0.00    +0.000 A 
ATOM     23  C   UNL     1       2.770   5.578  19.896  0.00  0.00    +0.000 A 
ENDBRANCH  16  17
BRANCH  15  24
ATOM     24  C   UNL     1       6.387   4.981  18.521  0.00  0.00    +0.000 C 
ATOM     25  O   UNL     1       7.091   4.080  18.097  0.00  0.00    +0.000 OA
BRANCH  24  26
ATOM     26  O   UNL     1       6.389   5.312  19.835  0.00  0.00    +0.000 OA
ATOM     27  H   UNL     1       6.859   6.148  20.019  0.00  0.00    +0.000 HD
ENDBRANCH  24  26
ENDBRANCH  15  24
ENDBRANCH   1  15
TORSDOF 7
ENDMDL
MODEL 3
REMARK VINA RESULT:      -6.9      5.829      7.869
REMARK  Name = 
REMARK  8 active torsions:
REMARK  status: ('A' for Active; 'I' for Inactive)
REMARK    1  A    between atoms: C_1  and  O_2
REMARK    2  A    between atoms: O_2  and  C_3
REMARK    3  A    between atoms: C_6  and  C_7
REMARK    4  A    between atoms: C_10  and  S_11
REMARK    5  A    between atoms: S_11  and  C_12
REMARK    6  A    between atoms: C_12  and  C_21
REMARK    7  A    between atoms: C_13  and  C_14
REMARK    8  A    between atoms: C_21  and  O_23
REMARK                            x       y       z     vdW  Elec       q    Type
REMARK                         _______ _______ _______ _____ _____    ______ ____
ROOT
ATOM      1  S   UNL     1       2.634   4.891  20.232  0.00  0.00    +0.000 S 
ENDROOT
BRANCH   1   5
ATOM      2  C   UNL     1       1.201   8.428  20.539  0.00  0.00    +0.000 A 
ATOM      3  N   UNL     1       1.847   8.569  19.399  0.00  0.00    +0.000 NA
ATOM      4  N   UNL     1       2.430   7.354  19.126  0.00  0.00    +0.000 NA
ATOM      5  C   UNL     1       2.071   6.531  20.088  0.00  0.00    +0.000 A 
ATOM      6  O   UNL     1       1.300   7.152  21.042  0.00  0.00    +0.000 OA
BRANCH   2  10
ATOM      7  C   UNL     1      -1.177  11.328  22.616  0.00  0.00    +0.000 A 
ATOM      8  C   UNL     1      -0.795  11.527  21.289  0.00  0.00    +0.000 A 
ATOM      9  C   UNL     1      -0.017  10.575  20.624  0.00  0.00    +0.000 A 
ATOM     10  C   UNL     1       0.408   9.406  21.276  0.00  0.00    +0.000 A 
ATOM     11  C   UNL     1       0.048   9.231  22.619  0.00  0.00    +0.000 A 
ATOM     12  C   UNL     1      -0.740  10.185  23.285  0.00  0.00    +0.000 A 
BRANCH   7  14
ATOM     13  C   UNL     1      -1.282  13.587  23.307  0.00  0.00    +0.000 C 
ATOM     14  O   UNL     1      -1.930  12.329  23.162  0.00  0.00    +0.000 OA
ENDBRANCH   7  14
ENDBRANCH   2  10
ENDBRANCH   1   5
BRANCH   1  15
ATOM     15  C   UNL     1       3.842   4.792  18.962  0.00  0.00    +0.000 C 
ATOM     16  C   UNL     1       3.619   5.139  17.681  0.00  0.00    +0.000 C 
BRANCH  16  17
ATOM     17  C   UNL     1       4.557   5.080  16.550  0.00  0.00    +0.000 A 
ATOM     18  C   UNL     1       5.118   6.260  16.044  0.00  0.00    +0.000 A 
ATOM     19  C   UNL     1       6.071   6.205  15.021  0.00  0.00    +0.000 A 
ATOM     20  C   UNL     1       6.462   4.973  14.503  0.00  0.00    +0.000 A 
ATOM     21 CL   UNL     1       7.658   4.907  13.267  0.00  0.00    +0.000 Cl
ATOM     22  C   UNL     1       5.901   3.794  14.991  0.00  0.00    +0.000 A 
ATOM     23  C   UNL     1       4.949   3.848  16.015  0.00  0.00    +0.000 A 
ENDBRANCH  16  17
BRANCH  15  24
ATOM     24  C   UNL     1       5.220   4.394  19.430  0.00  0.00    +0.000 C 
ATOM     25  O   UNL     1       6.113   5.171  19.725  0.00  0.00    +0.000 OA
BRANCH  24  26
ATOM     26  O   UNL     1       5.403   3.054  19.513  0.00  0.00    +0.000 OA
ATOM     27  H   UNL     1       4.565   2.555  19.551  0.00  0.00    +0.000 HD
ENDBRANCH  24  26
ENDBRANCH  15  24
ENDBRANCH   1  15
TORSDOF 7
ENDMDL
MODEL 4
REMARK VINA RESULT:      -6.9      6.208      8.301
REMARK  Name = 
REMARK  8 active torsions:
REMARK  status: ('A' for Active; 'I' for Inactive)
REMARK    1  A    between atoms: C_1  and  O_2
REMARK    2  A    between atoms: O_2  and  C_3
REMARK    3  A    between atoms: C_6  and  C_7
REMARK    4  A    between atoms: C_10  and  S_11
REMARK    5  A    between atoms: S_11  and  C_12
REMARK    6  A    between atoms: C_12  and  C_21
REMARK    7  A    between atoms: C_13  and  C_14
REMARK    8  A    between atoms: C_21  and  O_23
REMARK                            x       y       z     vdW  Elec       q    Type
REMARK                         _______ _______ _______ _____ _____    ______ ____
ROOT
ATOM      1  S   UNL     1       2.088   5.442  20.627  0.00  0.00    +0.000 S 
ENDROOT
BRANCH   1   5
ATOM      2  C   UNL     1       0.683   9.002  20.712  0.00  0.00    +0.000 A 
ATOM      3  N   UNL     1       1.444   9.110  19.642  0.00  0.00    +0.000 NA
ATOM      4  N   UNL     1       2.034   7.882  19.455  0.00  0.00    +0.000 NA
ATOM      5  C   UNL     1       1.567   7.085  20.392  0.00  0.00    +0.000 A 
ATOM      6  O   UNL     1       0.711   7.737  21.249  0.00  0.00    +0.000 OA
BRANCH   2  10
ATOM      7  C   UNL     1      -1.864  11.964  22.477  0.00  0.00    +0.000 A 
ATOM      8  C   UNL     1      -1.503  12.035  21.131  0.00  0.00    +0.000 A 
ATOM      9  C   UNL     1      -0.669  11.064  20.569  0.00  0.00    +0.000 A 
ATOM     10  C   UNL     1      -0.167  10.006  21.343  0.00  0.00    +0.000 A 
ATOM     11  C   UNL     1      -0.508   9.963  22.702  0.00  0.00    +0.000 A 
ATOM     12  C   UNL     1      -1.351  10.935  23.266  0.00  0.00    +0.000 A 
BRANCH   7  14
ATOM     13  C   UNL     1      -3.620  12.617  23.920  0.00  0.00    +0.000 C 
ATOM     14  O   UNL     1      -2.677  12.972  22.916  0.00  0.00    +0.000 OA
ENDBRANCH   7  14
ENDBRANCH   2  10
ENDBRANCH   1   5
BRANCH   1  15
ATOM     15  C   UNL     1       2.741   5.023  19.053  0.00  0.00    +0.000 C 
ATOM     16  C   UNL     1       3.959   5.399  18.617  0.00  0.00    +0.000 C 
BRANCH  16  17
ATOM     17  C   UNL     1       4.585   5.110  17.319  0.00  0.00    +0.000 A 
ATOM     18  C   UNL     1       4.813   6.148  16.406  0.00  0.00    +0.000 A 
ATOM     19  C   UNL     1       5.480   5.895  15.203  0.00  0.00    +0.000 A 
ATOM     20  C   UNL     1       5.919   4.606  14.911  0.00  0.00    +0.000 A 
ATOM     21 CL   UNL     1       6.768   4.304  13.444  0.00  0.00    +0.000 Cl
ATOM     22  C   UNL     1       5.688   3.564  15.807  0.00  0.00    +0.000 A 
ATOM     23  C   UNL     1       5.022   3.817  17.012  0.00  0.00    +0.000 A 
ENDBRANCH  16  17
BRANCH  15  24
ATOM     24  C   UNL     1       1.879   4.091  18.237  0.00  0.00    +0.000 C 
ATOM     25  O   UNL     1       1.144   4.433  17.326  0.00  0.00    +0.000 OA
BRANCH  24  26
ATOM     26  O   UNL     1       1.990   2.790  18.597  0.00  0.00    +0.000 OA
ATOM     27  H   UNL     1       1.190   2.268  18.398  0.00  0.00    +0.000 HD
ENDBRANCH  24  26
ENDBRANCH  15  24
ENDBRANCH   1  15
TORSDOF 7
ENDMDL
MODEL 5
REMARK VINA RESULT:      -6.9      6.995      9.605
REMARK  Name = 
REMARK  8 active torsions:
REMARK  status: ('A' for Active; 'I' for Inactive)
REMARK    1  A    between atoms: C_1  and  O_2
REMARK    2  A    between atoms: O_2  and  C_3
REMARK    3  A    between atoms: C_6  and  C_7
REMARK    4  A    between atoms: C_10  and  S_11
REMARK    5  A    between atoms: S_11  and  C_12
REMARK    6  A    between atoms: C_12  and  C_21
REMARK    7  A    between atoms: C_13  and  C_14
REMARK    8  A    between atoms: C_21  and  O_23
REMARK                            x       y       z     vdW  Elec       q    Type
REMARK                         _______ _______ _______ _____ _____    ______ ____
ROOT
ATOM      1  S   UNL     1      -0.825  11.692  21.202  0.00  0.00    +0.000 S 
ENDROOT
BRANCH   1   5
ATOM      2  C   UNL     1       1.295   8.508  21.044  0.00  0.00    +0.000 A 
ATOM      3  N   UNL     1       1.560   8.866  22.283  0.00  0.00    +0.000 NA
ATOM      4  N   UNL     1       0.852  10.022  22.518  0.00  0.00    +0.000 NA
ATOM      5  C   UNL     1       0.162  10.277  21.426  0.00  0.00    +0.000 A 
ATOM      6  O   UNL     1       0.410   9.362  20.430  0.00  0.00    +0.000 OA
BRANCH   2  10
ATOM      7  C   UNL     1       2.791   5.177  18.798  0.00  0.00    +0.000 A 
ATOM      8  C   UNL     1       2.818   6.469  18.273  0.00  0.00    +0.000 A 
ATOM      9  C   UNL     1       2.324   7.546  19.014  0.00  0.00    +0.000 A 
ATOM     10  C   UNL     1       1.780   7.353  20.295  0.00  0.00    +0.000 A 
ATOM     11  C   UNL     1       1.727   6.047  20.800  0.00  0.00    +0.000 A 
ATOM     12  C   UNL     1       2.230   4.965  20.056  0.00  0.00    +0.000 A 
BRANCH   7  14
ATOM     13  C   UNL     1       4.313   4.619  17.075  0.00  0.00    +0.000 C 
ATOM     14  O   UNL     1       3.295   4.205  17.980  0.00  0.00    +0.000 OA
ENDBRANCH   7  14
ENDBRANCH   2  10
ENDBRANCH   1   5
BRANCH   1  15
ATOM     15  C   UNL     1      -1.236  11.602  19.498  0.00  0.00    +0.000 C 
ATOM     16  C   UNL     1      -2.286  10.914  19.011  0.00  0.00    +0.000 C 
BRANCH  16  17
ATOM     17  C   UNL     1      -2.702  10.769  17.608  0.00  0.00    +0.000 A 
ATOM     18  C   UNL     1      -2.014   9.890  16.762  0.00  0.00    +0.000 A 
ATOM     19  C   UNL     1      -2.453   9.688  15.449  0.00  0.00    +0.000 A 
ATOM     20  C   UNL     1      -3.577  10.364  14.982  0.00  0.00    +0.000 A 
ATOM     21 CL   UNL     1      -4.133  10.088  13.376  0.00  0.00    +0.000 Cl
ATOM     22  C   UNL     1      -4.263  11.249  15.812  0.00  0.00    +0.000 A 
ATOM     23  C   UNL     1      -3.825  11.450  17.126  0.00  0.00    +0.000 A 
ENDBRANCH  16  17
BRANCH  15  24
ATOM     24  C   UNL     1      -0.386  12.463  18.597  0.00  0.00    +0.000 C 
ATOM     25  O   UNL     1       0.781  12.246  18.316  0.00  0.00    +0.000 OA
BRANCH  24  26
ATOM     26  O   UNL     1      -1.041  13.535  18.089  0.00  0.00    +0.000 OA
ATOM     27  H   UNL     1      -1.538  13.329  17.275  0.00  0.00    +0.000 HD
ENDBRANCH  24  26
ENDBRANCH  15  24
ENDBRANCH   1  15
TORSDOF 7
ENDMDL
MODEL 6
REMARK VINA RESULT:      -6.9      0.941      1.641
REMARK  Name = 
REMARK  8 active torsions:
REMARK  status: ('A' for Active; 'I' for Inactive)
REMARK    1  A    between atoms: C_1  and  O_2
REMARK    2  A    between atoms: O_2  and  C_3
REMARK    3  A    between atoms: C_6  and  C_7
REMARK    4  A    between atoms: C_10  and  S_11
REMARK    5  A    between atoms: S_11  and  C_12
REMARK    6  A    between atoms: C_12  and  C_21
REMARK    7  A    between atoms: C_13  and  C_14
REMARK    8  A    between atoms: C_21  and  O_23
REMARK                            x       y       z     vdW  Elec       q    Type
REMARK                         _______ _______ _______ _____ _____    ______ ____
ROOT
ATOM      1  S   UNL     1       5.691   6.646  16.420  0.00  0.00    +0.000 S 
ENDROOT
BRANCH   1   5
ATOM      2  C   UNL     1       8.228   8.927  18.159  0.00  0.00    +0.000 A 
ATOM      3  N   UNL     1       8.580   7.779  18.703  0.00  0.00    +0.000 NA
ATOM      4  N   UNL     1       7.752   6.821  18.167  0.00  0.00    +0.000 NA
ATOM      5  C   UNL     1       6.974   7.429  17.297  0.00  0.00    +0.000 A 
ATOM      6  O   UNL     1       7.206   8.783  17.251  0.00  0.00    +0.000 OA
BRANCH   2  10
ATOM      7  C   UNL     1       9.779  12.878  18.755  0.00  0.00    +0.000 A 
ATOM      8  C   UNL     1       8.845  12.615  17.754  0.00  0.00    +0.000 A 
ATOM      9  C   UNL     1       8.349  11.322  17.568  0.00  0.00    +0.000 A 
ATOM     10  C   UNL     1       8.787  10.258  18.373  0.00  0.00    +0.000 A 
ATOM     11  C   UNL     1       9.751  10.525  19.355  0.00  0.00    +0.000 A 
ATOM     12  C   UNL     1      10.244  11.827  19.545  0.00  0.00    +0.000 A 
BRANCH   7  14
ATOM     13  C   UNL     1       9.559  14.972  19.833  0.00  0.00    +0.000 C 
ATOM     14  O   UNL     1      10.195  14.177  18.838  0.00  0.00    +0.000 OA
ENDBRANCH   7  14
ENDBRANCH   2  10
ENDBRANCH   1   5
BRANCH   1  15
ATOM     15  C   UNL     1       5.019   5.559  17.623  0.00  0.00    +0.000 C 
ATOM     16  C   UNL     1       3.739   5.592  18.038  0.00  0.00    +0.000 C 
BRANCH  16  17
ATOM     17  C   UNL     1       3.090   4.737  19.043  0.00  0.00    +0.000 A 
ATOM     18  C   UNL     1       2.906   5.208  20.349  0.00  0.00    +0.000 A 
ATOM     19  C   UNL     1       2.219   4.432  21.288  0.00  0.00    +0.000 A 
ATOM     20  C   UNL     1       1.716   3.185  20.923  0.00  0.00    +0.000 A 
ATOM     21 CL   UNL     1       0.843   2.247  22.072  0.00  0.00    +0.000 Cl
ATOM     22  C   UNL     1       1.903   2.702  19.629  0.00  0.00    +0.000 A 
ATOM     23  C   UNL     1       2.589   3.479  18.689  0.00  0.00    +0.000 A 
ENDBRANCH  16  17
BRANCH  15  24
ATOM     24  C   UNL     1       5.959   4.476  18.092  0.00  0.00    +0.000 C 
ATOM     25  O   UNL     1       6.070   4.094  19.245  0.00  0.00    +0.000 OA
BRANCH  24  26
ATOM     26  O   UNL     1       6.699   3.926  17.099  0.00  0.00    +0.000 OA
ATOM     27  H   UNL     1       6.196   3.292  16.553  0.00  0.00    +0.000 HD
ENDBRANCH  24  26
ENDBRANCH  15  24
ENDBRANCH   1  15
TORSDOF 7
ENDMDL
MODEL 7
REMARK VINA RESULT:      -6.9      6.198      8.144
REMARK  Name = 
REMARK  8 active torsions:
REMARK  status: ('A' for Active; 'I' for Inactive)
REMARK    1  A    between atoms: C_1  and  O_2
REMARK    2  A    between atoms: O_2  and  C_3
REMARK    3  A    between atoms: C_6  and  C_7
REMARK    4  A    between atoms: C_10  and  S_11
REMARK    5  A    between atoms: S_11  and  C_12
REMARK    6  A    between atoms: C_12  and  C_21
REMARK    7  A    between atoms: C_13  and  C_14
REMARK    8  A    between atoms: C_21  and  O_23
REMARK                            x       y       z     vdW  Elec       q    Type
REMARK                         _______ _______ _______ _____ _____    ______ ____
ROOT
ATOM      1  S   UNL     1       2.222   5.265  20.523  0.00  0.00    +0.000 S 
ENDROOT
BRANCH   1   5
ATOM      2  C   UNL     1       0.821   8.826  20.634  0.00  0.00    +0.000 A 
ATOM      3  N   UNL     1       1.561   8.933  19.549  0.00  0.00    +0.000 NA
ATOM      4  N   UNL     1       2.147   7.705  19.351  0.00  0.00    +0.000 NA
ATOM      5  C   UNL     1       1.697   6.908  20.298  0.00  0.00    +0.000 A 
ATOM      6  O   UNL     1       0.859   7.561  21.171  0.00  0.00    +0.000 OA
BRANCH   2  10
ATOM      7  C   UNL     1      -1.589  11.758  22.626  0.00  0.00    +0.000 A 
ATOM      8  C   UNL     1      -1.142  10.619  23.295  0.00  0.00    +0.000 A 
ATOM      9  C   UNL     1      -0.359   9.669  22.633  0.00  0.00    +0.000 A 
ATOM     10  C   UNL     1      -0.016   9.831  21.282  0.00  0.00    +0.000 A 
ATOM     11  C   UNL     1      -0.498  10.962  20.608  0.00  0.00    +0.000 A 
ATOM     12  C   UNL     1      -1.279  11.920  21.276  0.00  0.00    +0.000 A 
BRANCH   7  14
ATOM     13  C   UNL     1      -3.712  12.738  22.979  0.00  0.00    +0.000 C 
ATOM     14  O   UNL     1      -2.351  12.612  23.374  0.00  0.00    +0.000 OA
ENDBRANCH   7  14
ENDBRANCH   2  10
ENDBRANCH   1   5
BRANCH   1  15
ATOM     15  C   UNL     1       2.903   4.866  18.955  0.00  0.00    +0.000 C 
ATOM     16  C   UNL     1       4.126   5.251  18.544  0.00  0.00    +0.000 C 
BRANCH  16  17
ATOM     17  C   UNL     1       4.775   4.980  17.253  0.00  0.00    +0.000 A 
ATOM     18  C   UNL     1       5.156   3.673  16.922  0.00  0.00    +0.000 A 
ATOM     19  C   UNL     1       5.702   3.395  15.665  0.00  0.00    +0.000 A 
ATOM     20  C   UNL     1       5.867   4.422  14.738  0.00  0.00    +0.000 A 
ATOM     21 CL   UNL     1       6.508   4.070  13.180  0.00  0.00    +0.000 Cl
ATOM     22  C   UNL     1       5.501   5.727  15.060  0.00  0.00    +0.000 A 
ATOM     23  C   UNL     1       4.954   6.006  16.318  0.00  0.00    +0.000 A 
ENDBRANCH  16  17
BRANCH  15  24
ATOM     24  C   UNL     1       2.057   3.941  18.115  0.00  0.00    +0.000 C 
ATOM     25  O   UNL     1       1.285   4.297  17.240  0.00  0.00    +0.000 OA
BRANCH  24  26
ATOM     26  O   UNL     1       2.230   2.629  18.404  0.00  0.00    +0.000 OA
ATOM     27  H   UNL     1       1.790   2.358  19.232  0.00  0.00    +0.000 HD
ENDBRANCH  24  26
ENDBRANCH  15  24
ENDBRANCH   1  15
TORSDOF 7
ENDMDL
MODEL 8
REMARK VINA RESULT:      -6.8      1.673      1.770
REMARK  Name = 
REMARK  8 active torsions:
REMARK  status: ('A' for Active; 'I' for Inactive)
REMARK    1  A    between atoms: C_1  and  O_2
REMARK    2  A    between atoms: O_2  and  C_3
REMARK    3  A    between atoms: C_6  and  C_7
REMARK    4  A    between atoms: C_10  and  S_11
REMARK    5  A    between atoms: S_11  and  C_12
REMARK    6  A    between atoms: C_12  and  C_21
REMARK    7  A    between atoms: C_13  and  C_14
REMARK    8  A    between atoms: C_21  and  O_23
REMARK                            x       y       z     vdW  Elec       q    Type
REMARK                         _______ _______ _______ _____ _____    ______ ____
ROOT
ATOM      1  S   UNL     1       8.180   5.679  18.862  0.00  0.00    +0.000 S 
ENDROOT
BRANCH   1   5
ATOM      2  C   UNL     1       8.432   9.439  18.181  0.00  0.00    +0.000 A 
ATOM      3  N   UNL     1       7.516   9.131  17.285  0.00  0.00    +0.000 NA
ATOM      4  N   UNL     1       7.291   7.779  17.401  0.00  0.00    +0.000 NA
ATOM      5  C   UNL     1       8.048   7.348  18.389  0.00  0.00    +0.000 A 
ATOM      6  O   UNL     1       8.823   8.350  18.924  0.00  0.00    +0.000 OA
BRANCH   2  10
ATOM      7  C   UNL     1      10.265  13.203  19.100  0.00  0.00    +0.000 A 
ATOM      8  C   UNL     1      10.568  12.057  19.834  0.00  0.00    +0.000 A 
ATOM      9  C   UNL     1       9.961  10.836  19.527  0.00  0.00    +0.000 A 
ATOM     10  C   UNL     1       9.026  10.737  18.483  0.00  0.00    +0.000 A 
ATOM     11  C   UNL     1       8.703  11.901  17.772  0.00  0.00    +0.000 A 
ATOM     12  C   UNL     1       9.319  13.127  18.079  0.00  0.00    +0.000 A 
BRANCH   7  14
ATOM     13  C   UNL     1      10.720  15.485  18.676  0.00  0.00    +0.000 C 
ATOM     14  O   UNL     1      10.915  14.338  19.496  0.00  0.00    +0.000 OA
ENDBRANCH   7  14
ENDBRANCH   2  10
ENDBRANCH   1   5
BRANCH   1  15
ATOM     15  C   UNL     1       6.590   5.048  18.469  0.00  0.00    +0.000 C 
ATOM     16  C   UNL     1       5.627   4.811  19.379  0.00  0.00    +0.000 C 
BRANCH  16  17
ATOM     17  C   UNL     1       4.277   4.274  19.151  0.00  0.00    +0.000 A 
ATOM     18  C   UNL     1       4.112   2.938  18.764  0.00  0.00    +0.000 A 
ATOM     19  C   UNL     1       2.828   2.399  18.623  0.00  0.00    +0.000 A 
ATOM     20  C   UNL     1       1.711   3.194  18.867  0.00  0.00    +0.000 A 
ATOM     21 CL   UNL     1       0.135   2.519  18.723  0.00  0.00    +0.000 Cl
ATOM     22  C   UNL     1       1.864   4.528  19.241  0.00  0.00    +0.000 A 
ATOM     23  C   UNL     1       3.147   5.067  19.384  0.00  0.00    +0.000 A 
ENDBRANCH  16  17
BRANCH  15  24
ATOM     24  C   UNL     1       6.319   4.890  16.993  0.00  0.00    +0.000 C 
ATOM     25  O   UNL     1       6.850   4.067  16.266  0.00  0.00    +0.000 OA
BRANCH  24  26
ATOM     26  O   UNL     1       5.397   5.758  16.512  0.00  0.00    +0.000 OA
ATOM     27  H   UNL     1       5.374   6.603  16.999  0.00  0.00    +0.000 HD
ENDBRANCH  24  26
ENDBRANCH  15  24
ENDBRANCH   1  15
TORSDOF 7
ENDMDL
MODEL 9
REMARK VINA RESULT:      -6.8      1.545      1.952
REMARK  Name = 
REMARK  8 active torsions:
REMARK  status: ('A' for Active; 'I' for Inactive)
REMARK    1  A    between atoms: C_1  and  O_2
REMARK    2  A    between atoms: O_2  and  C_3
REMARK    3  A    between atoms: C_6  and  C_7
REMARK    4  A    between atoms: C_10  and  S_11
REMARK    5  A    between atoms: S_11  and  C_12
REMARK    6  A    between atoms: C_12  and  C_21
REMARK    7  A    between atoms: C_13  and  C_14
REMARK    8  A    between atoms: C_21  and  O_23
REMARK                            x       y       z     vdW  Elec       q    Type
REMARK                         _______ _______ _______ _____ _____    ______ ____
ROOT
ATOM      1  S   UNL     1       8.083   5.284  18.403  0.00  0.00    +0.000 S 
ENDROOT
BRANCH   1   5
ATOM      2  C   UNL     1       8.268   9.102  18.188  0.00  0.00    +0.000 A 
ATOM      3  N   UNL     1       7.333   8.893  17.283  0.00  0.00    +0.000 NA
ATOM      4  N   UNL     1       7.129   7.534  17.236  0.00  0.00    +0.000 NA
ATOM      5  C   UNL     1       7.917   6.996  18.144  0.00  0.00    +0.000 A 
ATOM      6  O   UNL     1       8.693   7.937  18.780  0.00  0.00    +0.000 OA
BRANCH   2  10
ATOM      7  C   UNL     1       9.912  12.855  19.449  0.00  0.00    +0.000 A 
ATOM      8  C   UNL     1       9.260  12.731  18.222  0.00  0.00    +0.000 A 
ATOM      9  C   UNL     1       8.731  11.500  17.821  0.00  0.00    +0.000 A 
ATOM     10  C   UNL     1       8.853  10.362  18.634  0.00  0.00    +0.000 A 
ATOM     11  C   UNL     1       9.539  10.489  19.850  0.00  0.00    +0.000 A 
ATOM     12  C   UNL     1      10.065  11.728  20.255  0.00  0.00    +0.000 A 
BRANCH   7  14
ATOM     13  C   UNL     1       9.414  15.119  19.915  0.00  0.00    +0.000 C 
ATOM     14  O   UNL     1      10.393  14.103  19.730  0.00  0.00    +0.000 OA
ENDBRANCH   7  14
ENDBRANCH   2  10
ENDBRANCH   1   5
BRANCH   1  15
ATOM     15  C   UNL     1       6.433   4.713  18.227  0.00  0.00    +0.000 C 
ATOM     16  C   UNL     1       5.602   4.478  19.260  0.00  0.00    +0.000 C 
BRANCH  16  17
ATOM     17  C   UNL     1       4.216   3.989  19.216  0.00  0.00    +0.000 A 
ATOM     18  C   UNL     1       3.153   4.900  19.205  0.00  0.00    +0.000 A 
ATOM     19  C   UNL     1       1.836   4.445  19.082  0.00  0.00    +0.000 A 
ATOM     20  C   UNL     1       1.581   3.080  18.972  0.00  0.00    +0.000 A 
ATOM     21 CL   UNL     1      -0.038   2.526  18.789  0.00  0.00    +0.000 Cl
ATOM     22  C   UNL     1       2.631   2.164  18.993  0.00  0.00    +0.000 A 
ATOM     23  C   UNL     1       3.949   2.619  19.114  0.00  0.00    +0.000 A 
ENDBRANCH  16  17
BRANCH  15  24
ATOM     24  C   UNL     1       5.948   4.608  16.802  0.00  0.00    +0.000 C 
ATOM     25  O   UNL     1       6.237   3.712  16.027  0.00  0.00    +0.000 OA
BRANCH  24  26
ATOM     26  O   UNL     1       5.125   5.617  16.430  0.00  0.00    +0.000 OA
ATOM     27  H   UNL     1       4.675   5.451  15.580  0.00  0.00    +0.000 HD
ENDBRANCH  24  26
ENDBRANCH  15  24
ENDBRANCH   1  15
TORSDOF 7
ENDMDL
