MODEL 1
REMARK VINA RESULT:      -6.9      0.000      0.000
REMARK  Name = 
REMARK  1 active torsions:
REMARK  status: ('A' for Active; 'I' for Inactive)
REMARK    1  A    between atoms: C_1  and  N_2
REMARK                            x       y       z     vdW  Elec       q    Type
REMARK                         _______ _______ _______ _____ _____    ______ ____
ROOT
ATOM      1  C   UNL     1       0.828   2.405  18.772  0.00  0.00    +0.000 C 
ATOM      2  N   UNL     1       2.140   3.012  18.556  0.00  0.00    +0.000 NA
ATOM      3  C   UNL     1       2.970   2.841  19.755  0.00  0.00    +0.000 C 
ATOM      4  C   UNL     1       4.374   3.343  19.467  0.00  0.00    +0.000 C 
ATOM      5  C   UNL     1       4.271   4.844  19.305  0.00  0.00    +0.000 C 
ATOM      6  C   UNL     1       3.330   5.175  18.165  0.00  0.00    +0.000 C 
ATOM      7  C   UNL     1       3.867   6.089  17.332  0.00  0.00    +0.000 C 
ATOM      8  C   UNL     1       5.252   6.318  17.751  0.00  0.00    +0.000 A 
ATOM      9  C   UNL     1       6.257   7.080  17.185  0.00  0.00    +0.000 A 
ATOM     10  C   UNL     1       7.553   6.964  17.705  0.00  0.00    +0.000 A 
ATOM     11  C   UNL     1       7.825   6.110  18.791  0.00  0.00    +0.000 A 
ATOM     12  C   UNL     1       6.802   5.395  19.389  0.00  0.00    +0.000 A 
ATOM     13  C   UNL     1       5.527   5.512  18.861  0.00  0.00    +0.000 A 
ATOM     14  C   UNL     1       2.036   4.413  18.083  0.00  0.00    +0.000 C 
ENDROOT
TORSDOF 0
ENDMDL
MODEL 2
REMARK VINA RESULT:      -6.9      2.045      2.791
REMARK  Name = 
REMARK  1 active torsions:
REMARK  status: ('A' for Active; 'I' for Inactive)
REMARK    1  A    between atoms: C_1  and  N_2
REMARK                            x       y       z     vdW  Elec       q    Type
REMARK                         _______ _______ _______ _____ _____    ______ ____
ROOT
ATOM      1  C   UNL     1       1.478   2.618  21.845  0.00  0.00    +0.000 C 
ATOM      2  N   UNL     1       2.365   3.248  20.868  0.00  0.00    +0.000 NA
ATOM      3  C   UNL     1       2.037   4.674  20.748  0.00  0.00    +0.000 C 
ATOM      4  C   UNL     1       3.057   5.345  19.843  0.00  0.00    +0.000 C 
ATOM      5  C   UNL     1       2.825   4.799  18.451  0.00  0.00    +0.000 C 
ATOM      6  C   UNL     1       3.006   3.295  18.452  0.00  0.00    +0.000 C 
ATOM      7  C   UNL     1       3.797   2.893  17.436  0.00  0.00    +0.000 C 
ATOM      8  C   UNL     1       4.329   4.091  16.782  0.00  0.00    +0.000 A 
ATOM      9  C   UNL     1       5.249   4.232  15.760  0.00  0.00    +0.000 A 
ATOM     10  C   UNL     1       5.716   5.519  15.459  0.00  0.00    +0.000 A 
ATOM     11  C   UNL     1       5.245   6.644  16.162  0.00  0.00    +0.000 A 
ATOM     12  C   UNL     1       4.280   6.499  17.144  0.00  0.00    +0.000 A 
ATOM     13  C   UNL     1       3.834   5.222  17.438  0.00  0.00    +0.000 A 
ATOM     14  C   UNL     1       2.383   2.517  19.578  0.00  0.00    +0.000 C 
ENDROOT
TORSDOF 0
ENDMDL
MODEL 3
REMARK VINA RESULT:      -6.7      2.092      4.983
REMARK  Name = 
REMARK  1 active torsions:
REMARK  status: ('A' for Active; 'I' for Inactive)
REMARK    1  A    between atoms: C_1  and  N_2
REMARK                            x       y       z     vdW  Elec       q    Type
REMARK                         _______ _______ _______ _____ _____    ______ ____
ROOT
ATOM      1  C   UNL     1       7.045   5.171  15.751  0.00  0.00    +0.000 C 
ATOM      2  N   UNL     1       5.947   4.999  16.701  0.00  0.00    +0.000 NA
ATOM      3  C   UNL     1       6.485   4.678  18.028  0.00  0.00    +0.000 C 
ATOM      4  C   UNL     1       5.346   4.646  19.034  0.00  0.00    +0.000 C 
ATOM      5  C   UNL     1       4.495   3.445  18.684  0.00  0.00    +0.000 C 
ATOM      6  C   UNL     1       3.969   3.581  17.271  0.00  0.00    +0.000 C 
ATOM      7  C   UNL     1       2.645   3.328  17.210  0.00  0.00    +0.000 C 
ATOM      8  C   UNL     1       2.158   3.164  18.582  0.00  0.00    +0.000 A 
ATOM      9  C   UNL     1       0.879   2.985  19.075  0.00  0.00    +0.000 A 
ATOM     10  C   UNL     1       0.686   3.045  20.461  0.00  0.00    +0.000 A 
ATOM     11  C   UNL     1       1.768   3.259  21.336  0.00  0.00    +0.000 A 
ATOM     12  C   UNL     1       3.054   3.379  20.837  0.00  0.00    +0.000 A 
ATOM     13  C   UNL     1       3.231   3.327  19.465  0.00  0.00    +0.000 A 
ATOM     14  C   UNL     1       4.930   4.040  16.208  0.00  0.00    +0.000 C 
ENDROOT
TORSDOF 0
ENDMDL
MODEL 4
REMARK VINA RESULT:      -6.6      2.095      5.048
REMARK  Name = 
REMARK  1 active torsions:
REMARK  status: ('A' for Active; 'I' for Inactive)
REMARK    1  A    between atoms: C_1  and  N_2
REMARK                            x       y       z     vdW  Elec       q    Type
REMARK                         _______ _______ _______ _____ _____    ______ ____
ROOT
ATOM      1  C   UNL     1       7.240   5.267  15.719  0.00  0.00    +0.000 C 
ATOM      2  N   UNL     1       6.196   4.740  16.597  0.00  0.00    +0.000 NA
ATOM      3  C   UNL     1       5.115   4.161  15.791  0.00  0.00    +0.000 C 
ATOM      4  C   UNL     1       4.111   3.489  16.713  0.00  0.00    +0.000 C 
ATOM      5  C   UNL     1       3.433   4.595  17.493  0.00  0.00    +0.000 C 
ATOM      6  C   UNL     1       4.464   5.371  18.286  0.00  0.00    +0.000 C 
ATOM      7  C   UNL     1       4.076   5.542  19.566  0.00  0.00    +0.000 C 
ATOM      8  C   UNL     1       2.849   4.767  19.768  0.00  0.00    +0.000 A 
ATOM      9  C   UNL     1       2.105   4.530  20.909  0.00  0.00    +0.000 A 
ATOM     10  C   UNL     1       1.070   3.587  20.843  0.00  0.00    +0.000 A 
ATOM     11  C   UNL     1       0.778   2.913  19.642  0.00  0.00    +0.000 A 
ATOM     12  C   UNL     1       1.491   3.200  18.491  0.00  0.00    +0.000 A 
ATOM     13  C   UNL     1       2.516   4.127  18.570  0.00  0.00    +0.000 A 
ATOM     14  C   UNL     1       5.745   5.744  17.591  0.00  0.00    +0.000 C 
ENDROOT
TORSDOF 0
ENDMDL
MODEL 5
REMARK VINA RESULT:      -6.6      2.251      5.070
REMARK  Name = 
REMARK  1 active torsions:
REMARK  status: ('A' for Active; 'I' for Inactive)
REMARK    1  A    between atoms: C_1  and  N_2
REMARK                            x       y       z     vdW  Elec       q    Type
REMARK                         _______ _______ _______ _____ _____    ______ ____
ROOT
ATOM      1  C   UNL     1       6.533   5.157  14.716  0.00  0.00    +0.000 C 
ATOM      2  N   UNL     1       5.392   5.002  15.616  0.00  0.00    +0.000 NA
ATOM      3  C   UNL     1       5.377   6.098  16.593  0.00  0.00    +0.000 C 
ATOM      4  C   UNL     1       4.110   6.007  17.426  0.00  0.00    +0.000 C 
ATOM      5  C   UNL     1       4.240   4.761  18.276  0.00  0.00    +0.000 C 
ATOM      6  C   UNL     1       4.396   3.545  17.387  0.00  0.00    +0.000 C 
ATOM      7  C   UNL     1       3.567   2.550  17.764  0.00  0.00    +0.000 C 
ATOM      8  C   UNL     1       2.692   3.071  18.817  0.00  0.00    +0.000 A 
ATOM      9  C   UNL     1       1.619   2.495  19.471  0.00  0.00    +0.000 A 
ATOM     10  C   UNL     1       0.842   3.303  20.312  0.00  0.00    +0.000 A 
ATOM     11  C   UNL     1       1.156   4.661  20.507  0.00  0.00    +0.000 A 
ATOM     12  C   UNL     1       2.267   5.214  19.894  0.00  0.00    +0.000 A 
ATOM     13  C   UNL     1       3.022   4.409  19.059  0.00  0.00    +0.000 A 
ATOM     14  C   UNL     1       5.338   3.648  16.219  0.00  0.00    +0.000 C 
ENDROOT
TORSDOF 0
ENDMDL
MODEL 6
REMARK VINA RESULT:      -6.5      2.070      5.025
REMARK  Name = 
REMARK  1 active torsions:
REMARK  status: ('A' for Active; 'I' for Inactive)
REMARK    1  A    between atoms: C_1  and  N_2
REMARK                            x       y       z     vdW  Elec       q    Type
REMARK                         _______ _______ _______ _____ _____    ______ ____
ROOT
ATOM      1  C   UNL     1       7.676   7.694  17.446  0.00  0.00    +0.000 C 
ATOM      2  N   UNL     1       6.670   6.701  17.818  0.00  0.00    +0.000 NA
ATOM      3  C   UNL     1       7.103   5.368  17.385  0.00  0.00    +0.000 C 
ATOM      4  C   UNL     1       6.122   4.331  17.905  0.00  0.00    +0.000 C 
ATOM      5  C   UNL     1       4.823   4.553  17.161  0.00  0.00    +0.000 C 
ATOM      6  C   UNL     1       4.317   5.957  17.417  0.00  0.00    +0.000 C 
ATOM      7  C   UNL     1       3.010   5.958  17.748  0.00  0.00    +0.000 C 
ATOM      8  C   UNL     1       2.585   4.563  17.894  0.00  0.00    +0.000 A 
ATOM      9  C   UNL     1       1.383   4.020  18.308  0.00  0.00    +0.000 A 
ATOM     10  C   UNL     1       1.319   2.639  18.533  0.00  0.00    +0.000 A 
ATOM     11  C   UNL     1       2.443   1.817  18.323  0.00  0.00    +0.000 A 
ATOM     12  C   UNL     1       3.626   2.361  17.852  0.00  0.00    +0.000 A 
ATOM     13  C   UNL     1       3.679   3.728  17.642  0.00  0.00    +0.000 A 
ATOM     14  C   UNL     1       5.314   7.082  17.354  0.00  0.00    +0.000 C 
ENDROOT
TORSDOF 0
ENDMDL
MODEL 7
REMARK VINA RESULT:      -6.5      1.975      2.737
REMARK  Name = 
REMARK  1 active torsions:
REMARK  status: ('A' for Active; 'I' for Inactive)
REMARK    1  A    between atoms: C_1  and  N_2
REMARK                            x       y       z     vdW  Elec       q    Type
REMARK                         _______ _______ _______ _____ _____    ______ ____
ROOT
ATOM      1  C   UNL     1       1.051   2.992  20.592  0.00  0.00    +0.000 C 
ATOM      2  N   UNL     1       1.963   3.534  19.586  0.00  0.00    +0.000 NA
ATOM      3  C   UNL     1       1.749   2.852  18.303  0.00  0.00    +0.000 C 
ATOM      4  C   UNL     1       2.596   3.523  17.235  0.00  0.00    +0.000 C 
ATOM      5  C   UNL     1       4.040   3.220  17.574  0.00  0.00    +0.000 C 
ATOM      6  C   UNL     1       4.370   3.762  18.949  0.00  0.00    +0.000 C 
ATOM      7  C   UNL     1       5.524   4.459  18.941  0.00  0.00    +0.000 C 
ATOM      8  C   UNL     1       5.967   4.573  17.549  0.00  0.00    +0.000 A 
ATOM      9  C   UNL     1       7.028   5.260  16.989  0.00  0.00    +0.000 A 
ATOM     10  C   UNL     1       7.102   5.345  15.592  0.00  0.00    +0.000 A 
ATOM     11  C   UNL     1       6.135   4.727  14.776  0.00  0.00    +0.000 A 
ATOM     12  C   UNL     1       5.110   3.992  15.344  0.00  0.00    +0.000 A 
ATOM     13  C   UNL     1       5.042   3.923  16.725  0.00  0.00    +0.000 A 
ATOM     14  C   UNL     1       3.371   3.531  20.050  0.00  0.00    +0.000 C 
ENDROOT
TORSDOF 0
ENDMDL
MODEL 8
REMARK VINA RESULT:      -6.5      2.027      2.406
REMARK  Name = 
REMARK  1 active torsions:
REMARK  status: ('A' for Active; 'I' for Inactive)
REMARK    1  A    between atoms: C_1  and  N_2
REMARK                            x       y       z     vdW  Elec       q    Type
REMARK                         _______ _______ _______ _____ _____    ______ ____
ROOT
ATOM      1  C   UNL     1       1.170   2.925  21.009  0.00  0.00    +0.000 C 
ATOM      2  N   UNL     1       1.873   3.261  19.772  0.00  0.00    +0.000 NA
ATOM      3  C   UNL     1       2.783   2.169  19.405  0.00  0.00    +0.000 C 
ATOM      4  C   UNL     1       3.396   2.465  18.047  0.00  0.00    +0.000 C 
ATOM      5  C   UNL     1       4.311   3.655  18.235  0.00  0.00    +0.000 C 
ATOM      6  C   UNL     1       3.516   4.840  18.743  0.00  0.00    +0.000 C 
ATOM      7  C   UNL     1       3.793   5.958  18.041  0.00  0.00    +0.000 C 
ATOM      8  C   UNL     1       4.661   5.579  16.923  0.00  0.00    +0.000 A 
ATOM      9  C   UNL     1       5.151   6.321  15.865  0.00  0.00    +0.000 A 
ATOM     10  C   UNL     1       5.813   5.647  14.830  0.00  0.00    +0.000 A 
ATOM     11  C   UNL     1       5.996   4.252  14.874  0.00  0.00    +0.000 A 
ATOM     12  C   UNL     1       5.553   3.525  15.965  0.00  0.00    +0.000 A 
ATOM     13  C   UNL     1       4.893   4.201  16.977  0.00  0.00    +0.000 A 
ATOM     14  C   UNL     1       2.519   4.594  19.842  0.00  0.00    +0.000 C 
ENDROOT
TORSDOF 0
ENDMDL
MODEL 9
REMARK VINA RESULT:      -6.4      0.792      2.172
REMARK  Name = 
REMARK  1 active torsions:
REMARK  status: ('A' for Active; 'I' for Inactive)
REMARK    1  A    between atoms: C_1  and  N_2
REMARK                            x       y       z     vdW  Elec       q    Type
REMARK                         _______ _______ _______ _____ _____    ______ ____
ROOT
ATOM      1  C   UNL     1       0.769   2.774  19.156  0.00  0.00    +0.000 C 
ATOM      2  N   UNL     1       1.895   3.700  19.048  0.00  0.00    +0.000 NA
ATOM      3  C   UNL     1       1.768   4.497  17.822  0.00  0.00    +0.000 C 
ATOM      4  C   UNL     1       2.861   5.551  17.797  0.00  0.00    +0.000 C 
ATOM      5  C   UNL     1       4.170   4.813  17.618  0.00  0.00    +0.000 C 
ATOM      6  C   UNL     1       4.375   3.844  18.765  0.00  0.00    +0.000 C 
ATOM      7  C   UNL     1       5.615   3.950  19.285  0.00  0.00    +0.000 C 
ATOM      8  C   UNL     1       6.273   5.091  18.643  0.00  0.00    +0.000 A 
ATOM      9  C   UNL     1       7.502   5.679  18.878  0.00  0.00    +0.000 A 
ATOM     10  C   UNL     1       7.796   6.887  18.231  0.00  0.00    +0.000 A 
ATOM     11  C   UNL     1       6.875   7.479  17.346  0.00  0.00    +0.000 A 
ATOM     12  C   UNL     1       5.671   6.853  17.072  0.00  0.00    +0.000 A 
ATOM     13  C   UNL     1       5.388   5.665  17.724  0.00  0.00    +0.000 A 
ATOM     14  C   UNL     1       3.199   3.009  19.193  0.00  0.00    +0.000 C 
ENDROOT
TORSDOF 0
ENDMDL
