MODEL 1
REMARK VINA RESULT:      -8.4      0.000      0.000
REMARK  Name = 
REMARK  9 active torsions:
REMARK  status: ('A' for Active; 'I' for Inactive)
REMARK    1  A    between atoms: C_1  and  O_2
REMARK    2  A    between atoms: O_2  and  C_3
REMARK    3  A    between atoms: C_7  and  C_8
REMARK    4  A    between atoms: C_11  and  S_12
REMARK    5  A    between atoms: S_12  and  N_15
REMARK    6  A    between atoms: N_15  and  C_16
REMARK    7  A    between atoms: N_19  and  C_20
REMARK    8  A    between atoms: C_20  and  C_21
REMARK    9  A    between atoms: C_25  and  C_26
REMARK                            x       y       z     vdW  Elec       q    Type
REMARK                         _______ _______ _______ _____ _____    ______ ____
ROOT
ATOM      1  C   UNL     1       1.489   7.301  20.129  0.00  0.00    +0.000 C 
ATOM      2  C   UNL     1       2.231   7.957  18.970  0.00  0.00    +0.000 C 
ATOM      3  C   UNL     1       2.724   6.812  18.115  0.00  0.00    +0.000 C 
ATOM      4  N   UNL     1       2.843   5.709  19.025  0.00  0.00    +0.000 N 
ATOM      5  C   UNL     1       2.132   5.912  20.200  0.00  0.00    +0.000 C 
ATOM      6  O   UNL     1       2.001   5.125  21.123  0.00  0.00    +0.000 OA
ENDROOT
BRANCH   1   7
ATOM      7  N   UNL     1       1.685   8.040  21.392  0.00  0.00    +0.000 NA
ATOM      8  H   UNL     1       2.083   7.467  22.140  0.00  0.00    +0.000 HD
BRANCH   7   9
ATOM      9  S   UNL     1       0.425   9.009  21.953  0.00  0.00    +0.000 S 
ATOM     10  O   UNL     1       0.868   9.745  23.116  0.00  0.00    +0.000 OA
ATOM     11  O   UNL     1      -0.771   8.199  21.968  0.00  0.00    +0.000 OA
BRANCH   9  15
ATOM     12  C   UNL     1       0.278  12.440  19.560  0.00  0.00    +0.000 A 
ATOM     13  C   UNL     1      -0.601  11.564  18.945  0.00  0.00    +0.000 A 
ATOM     14  C   UNL     1      -0.678  10.304  19.609  0.00  0.00    +0.000 A 
ATOM     15  C   UNL     1       0.135  10.257  20.723  0.00  0.00    +0.000 A 
ATOM     16  S   UNL     1       0.981  11.719  20.950  0.00  0.00    +0.000 S 
BRANCH  12  21
ATOM     17  C   UNL     1       2.182  15.246  18.377  0.00  0.00    +0.000 A 
ATOM     18  N   UNL     1       1.362  16.304  18.403  0.00  0.00    +0.000 NA
ATOM     19  C   UNL     1       0.124  16.085  18.868  0.00  0.00    +0.000 A 
ATOM     20  C   UNL     1      -0.316  14.855  19.293  0.00  0.00    +0.000 A 
ATOM     21  C   UNL     1       0.599  13.826  19.205  0.00  0.00    +0.000 A 
ATOM     22  N   UNL     1       1.862  14.001  18.764  0.00  0.00    +0.000 NA
BRANCH  17  24
ATOM     23  C   UNL     1       4.134  16.495  18.661  0.00  0.00    +0.000 C 
ATOM     24  O   UNL     1       3.446  15.514  17.900  0.00  0.00    +0.000 OA
ENDBRANCH  17  24
ENDBRANCH  12  21
ENDBRANCH   9  15
ENDBRANCH   7   9
ENDBRANCH   1   7
BRANCH   4  25
ATOM     25  C   UNL     1       3.522   4.481  18.652  0.00  0.00    +0.000 C 
BRANCH  25  26
ATOM     26  C   UNL     1       4.932   4.733  18.180  0.00  0.00    +0.000 A 
ATOM     27  C   UNL     1       5.963   5.051  19.078  0.00  0.00    +0.000 A 
ATOM     28  C   UNL     1       7.270   5.243  18.622  0.00  0.00    +0.000 A 
ATOM     29  C   UNL     1       7.569   5.110  17.264  0.00  0.00    +0.000 A 
ATOM     30  C   UNL     1       6.553   4.796  16.356  0.00  0.00    +0.000 A 
ATOM     31  C   UNL     1       5.242   4.618  16.816  0.00  0.00    +0.000 A 
BRANCH  30  32
ATOM     32  C   UNL     1       6.848   4.592  14.908  0.00  0.00    +0.000 C 
ATOM     33  N   UNL     1       7.632   5.363  14.223  0.00  0.00    +0.000 NA
ATOM     34  N   UNL     1       6.293   3.539  14.243  0.00  0.00    +0.000 N 
ATOM     35  H   UNL     1       7.973   6.147  14.782  0.00  0.00    +0.000 HD
ATOM     36  H   UNL     1       6.179   2.684  14.774  0.00  0.00    +0.000 HD
ATOM     37  H   UNL     1       6.748   3.390  13.348  0.00  0.00    +0.000 HD
ENDBRANCH  30  32
ENDBRANCH  25  26
ENDBRANCH   4  25
TORSDOF 8
ENDMDL
MODEL 2
REMARK VINA RESULT:      -8.4      4.813     10.919
REMARK  Name = 
REMARK  9 active torsions:
REMARK  status: ('A' for Active; 'I' for Inactive)
REMARK    1  A    between atoms: C_1  and  O_2
REMARK    2  A    between atoms: O_2  and  C_3
REMARK    3  A    between atoms: C_7  and  C_8
REMARK    4  A    between atoms: C_11  and  S_12
REMARK    5  A    between atoms: S_12  and  N_15
REMARK    6  A    between atoms: N_15  and  C_16
REMARK    7  A    between atoms: N_19  and  C_20
REMARK    8  A    between atoms: C_20  and  C_21
REMARK    9  A    between atoms: C_25  and  C_26
REMARK                            x       y       z     vdW  Elec       q    Type
REMARK                         _______ _______ _______ _____ _____    ______ ____
ROOT
ATOM      1  C   UNL     1      -1.577  11.066  18.519  0.00  0.00    +0.000 C 
ATOM      2  C   UNL     1      -2.166  10.035  17.562  0.00  0.00    +0.000 C 
ATOM      3  C   UNL     1      -3.454  10.648  17.061  0.00  0.00    +0.000 C 
ATOM      4  N   UNL     1      -3.854  11.547  18.105  0.00  0.00    +0.000 N 
ATOM      5  C   UNL     1      -2.812  11.853  18.970  0.00  0.00    +0.000 C 
ATOM      6  O   UNL     1      -2.842  12.634  19.907  0.00  0.00    +0.000 OA
ENDROOT
BRANCH   1   7
ATOM      7  N   UNL     1      -0.909  10.426  19.669  0.00  0.00    +0.000 NA
ATOM      8  H   UNL     1      -1.361  10.628  20.565  0.00  0.00    +0.000 HD
BRANCH   7   9
ATOM      9  S   UNL     1       0.769  10.535  19.779  0.00  0.00    +0.000 S 
ATOM     10  O   UNL     1       1.129  11.117  21.053  0.00  0.00    +0.000 OA
ATOM     11  O   UNL     1       1.251  11.072  18.528  0.00  0.00    +0.000 OA
BRANCH   9  15
ATOM     12  C   UNL     1       2.489   6.777  19.120  0.00  0.00    +0.000 A 
ATOM     13  C   UNL     1       1.977   6.691  20.403  0.00  0.00    +0.000 A 
ATOM     14  C   UNL     1       1.357   7.902  20.831  0.00  0.00    +0.000 A 
ATOM     15  C   UNL     1       1.400   8.877  19.856  0.00  0.00    +0.000 A 
ATOM     16  S   UNL     1       2.189   8.328  18.448  0.00  0.00    +0.000 S 
BRANCH  12  21
ATOM     17  C   UNL     1       5.141   5.003  17.471  0.00  0.00    +0.000 A 
ATOM     18  N   UNL     1       4.598   3.893  16.956  0.00  0.00    +0.000 NA
ATOM     19  C   UNL     1       3.279   3.740  17.135  0.00  0.00    +0.000 A 
ATOM     20  C   UNL     1       2.498   4.645  17.812  0.00  0.00    +0.000 A 
ATOM     21  C   UNL     1       3.158   5.744  18.321  0.00  0.00    +0.000 A 
ATOM     22  N   UNL     1       4.480   5.954  18.149  0.00  0.00    +0.000 NA
BRANCH  17  24
ATOM     23  C   UNL     1       6.949   6.472  17.302  0.00  0.00    +0.000 C 
ATOM     24  O   UNL     1       6.497   5.127  17.259  0.00  0.00    +0.000 OA
ENDBRANCH  17  24
ENDBRANCH  12  21
ENDBRANCH   9  15
ENDBRANCH   7   9
ENDBRANCH   1   7
BRANCH   4  25
ATOM     25  C   UNL     1      -5.173  12.154  18.126  0.00  0.00    +0.000 C 
BRANCH  25  26
ATOM     26  C   UNL     1      -6.105  11.454  19.082  0.00  0.00    +0.000 A 
ATOM     27  C   UNL     1      -6.572  10.153  18.836  0.00  0.00    +0.000 A 
ATOM     28  C   UNL     1      -7.405   9.510  19.755  0.00  0.00    +0.000 A 
ATOM     29  C   UNL     1      -7.776  10.152  20.939  0.00  0.00    +0.000 A 
ATOM     30  C   UNL     1      -7.322  11.449  21.199  0.00  0.00    +0.000 A 
ATOM     31  C   UNL     1      -6.499  12.095  20.267  0.00  0.00    +0.000 A 
BRANCH  30  32
ATOM     32  C   UNL     1      -7.654  12.142  22.478  0.00  0.00    +0.000 C 
ATOM     33  N   UNL     1      -7.707  11.540  23.623  0.00  0.00    +0.000 NA
ATOM     34  N   UNL     1      -7.905  13.481  22.480  0.00  0.00    +0.000 N 
ATOM     35  H   UNL     1      -7.547  10.535  23.530  0.00  0.00    +0.000 HD
ATOM     36  H   UNL     1      -7.368  14.038  21.826  0.00  0.00    +0.000 HD
ATOM     37  H   UNL     1      -7.891  13.856  23.422  0.00  0.00    +0.000 HD
ENDBRANCH  30  32
ENDBRANCH  25  26
ENDBRANCH   4  25
TORSDOF 8
ENDMDL
MODEL 3
REMARK VINA RESULT:      -8.3      2.825      3.799
REMARK  Name = 
REMARK  9 active torsions:
REMARK  status: ('A' for Active; 'I' for Inactive)
REMARK    1  A    between atoms: C_1  and  O_2
REMARK    2  A    between atoms: O_2  and  C_3
REMARK    3  A    between atoms: C_7  and  C_8
REMARK    4  A    between atoms: C_11  and  S_12
REMARK    5  A    between atoms: S_12  and  N_15
REMARK    6  A    between atoms: N_15  and  C_16
REMARK    7  A    between atoms: N_19  and  C_20
REMARK    8  A    between atoms: C_20  and  C_21
REMARK    9  A    between atoms: C_25  and  C_26
REMARK                            x       y       z     vdW  Elec       q    Type
REMARK                         _______ _______ _______ _____ _____    ______ ____
ROOT
ATOM      1  C   UNL     1       1.502   7.392  20.118  0.00  0.00    +0.000 C 
ATOM      2  C   UNL     1       2.223   8.059  18.951  0.00  0.00    +0.000 C 
ATOM      3  C   UNL     1       2.713   6.922  18.084  0.00  0.00    +0.000 C 
ATOM      4  N   UNL     1       2.852   5.815  18.987  0.00  0.00    +0.000 N 
ATOM      5  C   UNL     1       2.155   6.007  20.172  0.00  0.00    +0.000 C 
ATOM      6  O   UNL     1       2.042   5.214  21.092  0.00  0.00    +0.000 OA
ENDROOT
BRANCH   1   7
ATOM      7  N   UNL     1       1.710   8.126  21.381  0.00  0.00    +0.000 NA
ATOM      8  H   UNL     1       2.124   7.552  22.120  0.00  0.00    +0.000 HD
BRANCH   7   9
ATOM      9  S   UNL     1       0.449   9.079  21.967  0.00  0.00    +0.000 S 
ATOM     10  O   UNL     1       0.962   9.991  22.965  0.00  0.00    +0.000 OA
ATOM     11  O   UNL     1      -0.670   8.204  22.231  0.00  0.00    +0.000 OA
BRANCH   9  15
ATOM     12  C   UNL     1      -1.423  10.945  18.721  0.00  0.00    +0.000 A 
ATOM     13  C   UNL     1      -0.323  11.745  18.980  0.00  0.00    +0.000 A 
ATOM     14  C   UNL     1       0.448  11.282  20.087  0.00  0.00    +0.000 A 
ATOM     15  C   UNL     1      -0.077  10.130  20.635  0.00  0.00    +0.000 A 
ATOM     16  S   UNL     1      -1.488   9.628  19.821  0.00  0.00    +0.000 S 
BRANCH  12  21
ATOM     17  C   UNL     1      -2.944  10.583  15.489  0.00  0.00    +0.000 A 
ATOM     18  N   UNL     1      -4.175  11.102  15.583  0.00  0.00    +0.000 NA
ATOM     19  C   UNL     1      -4.507  11.630  16.770  0.00  0.00    +0.000 A 
ATOM     20  C   UNL     1      -3.661  11.646  17.853  0.00  0.00    +0.000 A 
ATOM     21  C   UNL     1      -2.424  11.066  17.657  0.00  0.00    +0.000 A 
ATOM     22  N   UNL     1      -2.036  10.542  16.476  0.00  0.00    +0.000 NA
BRANCH  17  24
ATOM     23  C   UNL     1      -3.763   9.975  13.388  0.00  0.00    +0.000 C 
ATOM     24  O   UNL     1      -2.640  10.058  14.252  0.00  0.00    +0.000 OA
ENDBRANCH  17  24
ENDBRANCH  12  21
ENDBRANCH   9  15
ENDBRANCH   7   9
ENDBRANCH   1   7
BRANCH   4  25
ATOM     25  C   UNL     1       3.534   4.594  18.597  0.00  0.00    +0.000 C 
BRANCH  25  26
ATOM     26  C   UNL     1       4.937   4.858  18.113  0.00  0.00    +0.000 A 
ATOM     27  C   UNL     1       5.959   5.248  18.993  0.00  0.00    +0.000 A 
ATOM     28  C   UNL     1       7.261   5.450  18.527  0.00  0.00    +0.000 A 
ATOM     29  C   UNL     1       7.564   5.255  17.177  0.00  0.00    +0.000 A 
ATOM     30  C   UNL     1       6.558   4.869  16.287  0.00  0.00    +0.000 A 
ATOM     31  C   UNL     1       5.251   4.682  16.756  0.00  0.00    +0.000 A 
BRANCH  30  32
ATOM     32  C   UNL     1       6.859   4.599  14.851  0.00  0.00    +0.000 C 
ATOM     33  N   UNL     1       7.679   5.313  14.147  0.00  0.00    +0.000 NA
ATOM     34  N   UNL     1       6.270   3.545  14.219  0.00  0.00    +0.000 N 
ATOM     35  H   UNL     1       8.046   6.103  14.680  0.00  0.00    +0.000 HD
ATOM     36  H   UNL     1       6.116   2.716  14.781  0.00  0.00    +0.000 HD
ATOM     37  H   UNL     1       6.727   3.345  13.336  0.00  0.00    +0.000 HD
ENDBRANCH  30  32
ENDBRANCH  25  26
ENDBRANCH   4  25
TORSDOF 8
ENDMDL
MODEL 4
REMARK VINA RESULT:      -8.2      4.703     10.918
REMARK  Name = 
REMARK  9 active torsions:
REMARK  status: ('A' for Active; 'I' for Inactive)
REMARK    1  A    between atoms: C_1  and  O_2
REMARK    2  A    between atoms: O_2  and  C_3
REMARK    3  A    between atoms: C_7  and  C_8
REMARK    4  A    between atoms: C_11  and  S_12
REMARK    5  A    between atoms: S_12  and  N_15
REMARK    6  A    between atoms: N_15  and  C_16
REMARK    7  A    between atoms: N_19  and  C_20
REMARK    8  A    between atoms: C_20  and  C_21
REMARK    9  A    between atoms: C_25  and  C_26
REMARK                            x       y       z     vdW  Elec       q    Type
REMARK                         _______ _______ _______ _____ _____    ______ ____
ROOT
ATOM      1  C   UNL     1      -0.947  11.244  21.123  0.00  0.00    +0.000 C 
ATOM      2  C   UNL     1      -0.872  11.098  22.639  0.00  0.00    +0.000 C 
ATOM      3  C   UNL     1      -2.134  11.744  23.163  0.00  0.00    +0.000 C 
ATOM      4  N   UNL     1      -2.491  12.703  22.157  0.00  0.00    +0.000 N 
ATOM      5  C   UNL     1      -1.862  12.459  20.944  0.00  0.00    +0.000 C 
ATOM      6  O   UNL     1      -2.022  13.069  19.900  0.00  0.00    +0.000 OA
ENDROOT
BRANCH   1   7
ATOM      7  N   UNL     1       0.382  11.490  20.531  0.00  0.00    +0.000 NA
ATOM      8  H   UNL     1       0.642  12.480  20.515  0.00  0.00    +0.000 HD
BRANCH   7   9
ATOM      9  S   UNL     1       0.765  10.723  19.080  0.00  0.00    +0.000 S 
ATOM     10  O   UNL     1       1.887  11.396  18.464  0.00  0.00    +0.000 OA
ATOM     11  O   UNL     1      -0.473  10.494  18.372  0.00  0.00    +0.000 OA
BRANCH   9  15
ATOM     12  C   UNL     1       2.463   6.899  19.186  0.00  0.00    +0.000 A 
ATOM     13  C   UNL     1       1.943   7.071  20.458  0.00  0.00    +0.000 A 
ATOM     14  C   UNL     1       1.329   8.346  20.634  0.00  0.00    +0.000 A 
ATOM     15  C   UNL     1       1.384   9.109  19.486  0.00  0.00    +0.000 A 
ATOM     16  S   UNL     1       2.177   8.290  18.220  0.00  0.00    +0.000 S 
BRANCH  12  21
ATOM     17  C   UNL     1       5.068   4.531  18.479  0.00  0.00    +0.000 A 
ATOM     18  N   UNL     1       4.518   3.568  17.728  0.00  0.00    +0.000 NA
ATOM     19  C   UNL     1       3.225   3.728  17.411  0.00  0.00    +0.000 A 
ATOM     20  C   UNL     1       2.474   4.802  17.824  0.00  0.00    +0.000 A 
ATOM     21  C   UNL     1       3.129   5.726  18.611  0.00  0.00    +0.000 A 
ATOM     22  N   UNL     1       4.434   5.620  18.939  0.00  0.00    +0.000 NA
BRANCH  17  24
ATOM     23  C   UNL     1       7.094   5.538  19.056  0.00  0.00    +0.000 C 
ATOM     24  O   UNL     1       6.398   4.333  18.776  0.00  0.00    +0.000 OA
ENDBRANCH  17  24
ENDBRANCH  12  21
ENDBRANCH   9  15
ENDBRANCH   7   9
ENDBRANCH   1   7
BRANCH   4  25
ATOM     25  C   UNL     1      -3.512  13.709  22.391  0.00  0.00    +0.000 C 
BRANCH  25  26
ATOM     26  C   UNL     1      -4.900  13.120  22.388  0.00  0.00    +0.000 A 
ATOM     27  C   UNL     1      -5.702  13.121  23.541  0.00  0.00    +0.000 A 
ATOM     28  C   UNL     1      -7.000  12.604  23.505  0.00  0.00    +0.000 A 
ATOM     29  C   UNL     1      -7.520  12.087  22.316  0.00  0.00    +0.000 A 
ATOM     30  C   UNL     1      -6.734  12.077  21.160  0.00  0.00    +0.000 A 
ATOM     31  C   UNL     1      -5.428  12.583  21.204  0.00  0.00    +0.000 A 
BRANCH  30  32
ATOM     32  C   UNL     1      -7.277  11.584  19.861  0.00  0.00    +0.000 C 
ATOM     33  N   UNL     1      -7.589  12.364  18.875  0.00  0.00    +0.000 NA
ATOM     34  N   UNL     1      -7.453  10.248  19.660  0.00  0.00    +0.000 N 
ATOM     35  H   UNL     1      -7.467  13.349  19.119  0.00  0.00    +0.000 HD
ATOM     36  H   UNL     1      -6.767   9.637  20.089  0.00  0.00    +0.000 HD
ATOM     37  H   UNL     1      -7.607  10.041  18.679  0.00  0.00    +0.000 HD
ENDBRANCH  30  32
ENDBRANCH  25  26
ENDBRANCH   4  25
TORSDOF 8
ENDMDL
MODEL 5
REMARK VINA RESULT:      -8.0      3.550     10.177
REMARK  Name = 
REMARK  9 active torsions:
REMARK  status: ('A' for Active; 'I' for Inactive)
REMARK    1  A    between atoms: C_1  and  O_2
REMARK    2  A    between atoms: O_2  and  C_3
REMARK    3  A    between atoms: C_7  and  C_8
REMARK    4  A    between atoms: C_11  and  S_12
REMARK    5  A    between atoms: S_12  and  N_15
REMARK    6  A    between atoms: N_15  and  C_16
REMARK    7  A    between atoms: N_19  and  C_20
REMARK    8  A    between atoms: C_20  and  C_21
REMARK    9  A    between atoms: C_25  and  C_26
REMARK                            x       y       z     vdW  Elec       q    Type
REMARK                         _______ _______ _______ _____ _____    ______ ____
ROOT
ATOM      1  C   UNL     1       2.268   6.260  19.697  0.00  0.00    +0.000 C 
ATOM      2  C   UNL     1       1.743   7.022  20.910  0.00  0.00    +0.000 C 
ATOM      3  C   UNL     1       1.130   8.285  20.351  0.00  0.00    +0.000 C 
ATOM      4  N   UNL     1       1.831   8.510  19.119  0.00  0.00    +0.000 N 
ATOM      5  C   UNL     1       2.489   7.374  18.668  0.00  0.00    +0.000 C 
ATOM      6  O   UNL     1       3.110   7.252  17.625  0.00  0.00    +0.000 OA
ENDROOT
BRANCH   1   7
ATOM      7  N   UNL     1       3.531   5.558  19.997  0.00  0.00    +0.000 NA
ATOM      8  H   UNL     1       4.348   6.175  19.998  0.00  0.00    +0.000 HD
BRANCH   7   9
ATOM      9  S   UNL     1       3.847   4.108  19.198  0.00  0.00    +0.000 S 
ATOM     10  O   UNL     1       2.712   3.758  18.374  0.00  0.00    +0.000 OA
ATOM     11  O   UNL     1       4.402   3.192  20.168  0.00  0.00    +0.000 OA
BRANCH   9  15
ATOM     12  C   UNL     1       6.343   4.573  15.871  0.00  0.00    +0.000 A 
ATOM     13  C   UNL     1       7.156   4.885  16.947  0.00  0.00    +0.000 A 
ATOM     14  C   UNL     1       6.473   4.807  18.196  0.00  0.00    +0.000 A 
ATOM     15  C   UNL     1       5.157   4.421  18.041  0.00  0.00    +0.000 A 
ATOM     16  S   UNL     1       4.761   4.169  16.403  0.00  0.00    +0.000 S 
BRANCH  12  21
ATOM     17  C   UNL     1       6.235   3.507  12.443  0.00  0.00    +0.000 A 
ATOM     18  N   UNL     1       7.092   4.286  11.772  0.00  0.00    +0.000 NA
ATOM     19  C   UNL     1       7.767   5.189  12.497  0.00  0.00    +0.000 A 
ATOM     20  C   UNL     1       7.605   5.342  13.853  0.00  0.00    +0.000 A 
ATOM     21  C   UNL     1       6.682   4.505  14.446  0.00  0.00    +0.000 A 
ATOM     22  N   UNL     1       5.995   3.566  13.762  0.00  0.00    +0.000 NA
BRANCH  17  24
ATOM     23  C   UNL     1       4.285   3.033  11.249  0.00  0.00    +0.000 C 
ATOM     24  O   UNL     1       5.568   2.588  11.664  0.00  0.00    +0.000 OA
ENDBRANCH  17  24
ENDBRANCH  12  21
ENDBRANCH   9  15
ENDBRANCH   7   9
ENDBRANCH   1   7
BRANCH   4  25
ATOM     25  C   UNL     1       1.712   9.760  18.390  0.00  0.00    +0.000 C 
BRANCH  25  26
ATOM     26  C   UNL     1       0.308  10.310  18.432  0.00  0.00    +0.000 A 
ATOM     27  C   UNL     1      -0.743   9.698  17.733  0.00  0.00    +0.000 A 
ATOM     28  C   UNL     1      -2.044  10.204  17.817  0.00  0.00    +0.000 A 
ATOM     29  C   UNL     1      -2.314  11.323  18.608  0.00  0.00    +0.000 A 
ATOM     30  C   UNL     1      -1.277  11.946  19.309  0.00  0.00    +0.000 A 
ATOM     31  C   UNL     1       0.027  11.444  19.210  0.00  0.00    +0.000 A 
BRANCH  30  32
ATOM     32  C   UNL     1      -1.542  13.108  20.206  0.00  0.00    +0.000 C 
ATOM     33  N   UNL     1      -2.649  13.780  20.197  0.00  0.00    +0.000 NA
ATOM     34  N   UNL     1      -0.597  13.501  21.106  0.00  0.00    +0.000 N 
ATOM     35  H   UNL     1      -3.286  13.450  19.470  0.00  0.00    +0.000 HD
ATOM     36  H   UNL     1      -0.043  12.762  21.525  0.00  0.00    +0.000 HD
ATOM     37  H   UNL     1      -0.986  14.139  21.792  0.00  0.00    +0.000 HD
ENDBRANCH  30  32
ENDBRANCH  25  26
ENDBRANCH   4  25
TORSDOF 8
ENDMDL
MODEL 6
REMARK VINA RESULT:      -7.9      1.124      1.461
REMARK  Name = 
REMARK  9 active torsions:
REMARK  status: ('A' for Active; 'I' for Inactive)
REMARK    1  A    between atoms: C_1  and  O_2
REMARK    2  A    between atoms: O_2  and  C_3
REMARK    3  A    between atoms: C_7  and  C_8
REMARK    4  A    between atoms: C_11  and  S_12
REMARK    5  A    between atoms: S_12  and  N_15
REMARK    6  A    between atoms: N_15  and  C_16
REMARK    7  A    between atoms: N_19  and  C_20
REMARK    8  A    between atoms: C_20  and  C_21
REMARK    9  A    between atoms: C_25  and  C_26
REMARK                            x       y       z     vdW  Elec       q    Type
REMARK                         _______ _______ _______ _____ _____    ______ ____
ROOT
ATOM      1  C   UNL     1       2.155   7.459  20.162  0.00  0.00    +0.000 C 
ATOM      2  C   UNL     1       1.536   6.223  20.805  0.00  0.00    +0.000 C 
ATOM      3  C   UNL     1       2.157   5.048  20.085  0.00  0.00    +0.000 C 
ATOM      4  N   UNL     1       2.516   5.565  18.796  0.00  0.00    +0.000 N 
ATOM      5  C   UNL     1       2.561   6.952  18.775  0.00  0.00    +0.000 C 
ATOM      6  O   UNL     1       2.895   7.660  17.839  0.00  0.00    +0.000 OA
ENDROOT
BRANCH   1   7
ATOM      7  N   UNL     1       1.184   8.566  20.058  0.00  0.00    +0.000 NA
ATOM      8  H   UNL     1       1.459   9.284  19.383  0.00  0.00    +0.000 HD
BRANCH   7   9
ATOM      9  S   UNL     1       0.592   9.244  21.483  0.00  0.00    +0.000 S 
ATOM     10  O   UNL     1       1.684   9.436  22.412  0.00  0.00    +0.000 OA
ATOM     11  O   UNL     1      -0.603   8.518  21.845  0.00  0.00    +0.000 OA
BRANCH   9  15
ATOM     12  C   UNL     1       0.107  13.197  20.197  0.00  0.00    +0.000 A 
ATOM     13  C   UNL     1      -1.058  12.926  20.895  0.00  0.00    +0.000 A 
ATOM     14  C   UNL     1      -1.097  11.595  21.405  0.00  0.00    +0.000 A 
ATOM     15  C   UNL     1       0.047  10.889  21.095  0.00  0.00    +0.000 A 
ATOM     16  S   UNL     1       1.144  11.829  20.191  0.00  0.00    +0.000 S 
BRANCH  12  21
ATOM     17  C   UNL     1       2.222  15.542  18.487  0.00  0.00    +0.000 A 
ATOM     18  N   UNL     1       1.482  16.637  18.268  0.00  0.00    +0.000 NA
ATOM     19  C   UNL     1       0.229  16.611  18.740  0.00  0.00    +0.000 A 
ATOM     20  C   UNL     1      -0.305  15.534  19.407  0.00  0.00    +0.000 A 
ATOM     21  C   UNL     1       0.533  14.449  19.562  0.00  0.00    +0.000 A 
ATOM     22  N   UNL     1       1.809  14.436  19.124  0.00  0.00    +0.000 NA
BRANCH  17  24
ATOM     23  C   UNL     1       4.298  16.601  18.634  0.00  0.00    +0.000 C 
ATOM     24  O   UNL     1       3.506  15.612  17.994  0.00  0.00    +0.000 OA
ENDBRANCH  17  24
ENDBRANCH  12  21
ENDBRANCH   9  15
ENDBRANCH   7   9
ENDBRANCH   1   7
BRANCH   4  25
ATOM     25  C   UNL     1       2.920   4.691  17.709  0.00  0.00    +0.000 C 
BRANCH  25  26
ATOM     26  C   UNL     1       4.410   4.723  17.479  0.00  0.00    +0.000 A 
ATOM     27  C   UNL     1       5.319   4.773  18.548  0.00  0.00    +0.000 A 
ATOM     28  C   UNL     1       6.697   4.764  18.312  0.00  0.00    +0.000 A 
ATOM     29  C   UNL     1       7.187   4.695  17.005  0.00  0.00    +0.000 A 
ATOM     30  C   UNL     1       6.295   4.648  15.929  0.00  0.00    +0.000 A 
ATOM     31  C   UNL     1       4.916   4.671  16.170  0.00  0.00    +0.000 A 
BRANCH  30  32
ATOM     32  C   UNL     1       6.785   4.518  14.526  0.00  0.00    +0.000 C 
ATOM     33  N   UNL     1       6.372   3.603  13.707  0.00  0.00    +0.000 NA
ATOM     34  N   UNL     1       7.703   5.401  14.042  0.00  0.00    +0.000 N 
ATOM     35  H   UNL     1       5.718   2.960  14.157  0.00  0.00    +0.000 HD
ATOM     36  H   UNL     1       7.625   6.355  14.375  0.00  0.00    +0.000 HD
ATOM     37  H   UNL     1       7.774   5.340  13.032  0.00  0.00    +0.000 HD
ENDBRANCH  30  32
ENDBRANCH  25  26
ENDBRANCH   4  25
TORSDOF 8
ENDMDL
MODEL 7
REMARK VINA RESULT:      -7.8      4.180      5.495
REMARK  Name = 
REMARK  9 active torsions:
REMARK  status: ('A' for Active; 'I' for Inactive)
REMARK    1  A    between atoms: C_1  and  O_2
REMARK    2  A    between atoms: O_2  and  C_3
REMARK    3  A    between atoms: C_7  and  C_8
REMARK    4  A    between atoms: C_11  and  S_12
REMARK    5  A    between atoms: S_12  and  N_15
REMARK    6  A    between atoms: N_15  and  C_16
REMARK    7  A    between atoms: N_19  and  C_20
REMARK    8  A    between atoms: C_20  and  C_21
REMARK    9  A    between atoms: C_25  and  C_26
REMARK                            x       y       z     vdW  Elec       q    Type
REMARK                         _______ _______ _______ _____ _____    ______ ____
ROOT
ATOM      1  C   UNL     1       1.016   9.548  19.139  0.00  0.00    +0.000 C 
ATOM      2  C   UNL     1       1.961   9.379  17.954  0.00  0.00    +0.000 C 
ATOM      3  C   UNL     1       2.369   7.923  17.977  0.00  0.00    +0.000 C 
ATOM      4  N   UNL     1       2.232   7.533  19.351  0.00  0.00    +0.000 N 
ATOM      5  C   UNL     1       1.440   8.412  20.076  0.00  0.00    +0.000 C 
ATOM      6  O   UNL     1       1.102   8.302  21.243  0.00  0.00    +0.000 OA
ENDROOT
BRANCH   1   7
ATOM      7  N   UNL     1       1.185  10.862  19.789  0.00  0.00    +0.000 NA
ATOM      8  H   UNL     1       1.274  10.803  20.807  0.00  0.00    +0.000 HD
BRANCH   7   9
ATOM      9  S   UNL     1       0.161  12.119  19.327  0.00  0.00    +0.000 S 
ATOM     10  O   UNL     1      -0.764  11.639  18.325  0.00  0.00    +0.000 OA
ATOM     11  O   UNL     1       0.981  13.289  19.114  0.00  0.00    +0.000 OA
BRANCH   9  15
ATOM     12  C   UNL     1      -2.901  12.713  22.118  0.00  0.00    +0.000 A 
ATOM     13  C   UNL     1      -1.780  13.247  22.730  0.00  0.00    +0.000 A 
ATOM     14  C   UNL     1      -0.603  13.121  21.934  0.00  0.00    +0.000 A 
ATOM     15  C   UNL     1      -0.861  12.505  20.726  0.00  0.00    +0.000 A 
ATOM     16  S   UNL     1      -2.505  12.082  20.570  0.00  0.00    +0.000 S 
BRANCH  12  21
ATOM     17  C   UNL     1      -6.473  12.356  22.026  0.00  0.00    +0.000 A 
ATOM     18  N   UNL     1      -6.904  12.491  23.286  0.00  0.00    +0.000 NA
ATOM     19  C   UNL     1      -5.968  12.747  24.210  0.00  0.00    +0.000 A 
ATOM     20  C   UNL     1      -4.630  12.861  23.918  0.00  0.00    +0.000 A 
ATOM     21  C   UNL     1      -4.288  12.684  22.593  0.00  0.00    +0.000 A 
ATOM     22  N   UNL     1      -5.196  12.446  21.624  0.00  0.00    +0.000 NA
BRANCH  17  24
ATOM     23  C   UNL     1      -6.999  11.419  19.953  0.00  0.00    +0.000 C 
ATOM     24  O   UNL     1      -7.466  12.101  21.106  0.00  0.00    +0.000 OA
ENDBRANCH  17  24
ENDBRANCH  12  21
ENDBRANCH   9  15
ENDBRANCH   7   9
ENDBRANCH   1   7
BRANCH   4  25
ATOM     25  C   UNL     1       2.761   6.273  19.842  0.00  0.00    +0.000 C 
BRANCH  25  26
ATOM     26  C   UNL     1       3.378   5.448  18.741  0.00  0.00    +0.000 A 
ATOM     27  C   UNL     1       2.597   4.642  17.899  0.00  0.00    +0.000 A 
ATOM     28  C   UNL     1       3.186   3.915  16.860  0.00  0.00    +0.000 A 
ATOM     29  C   UNL     1       4.564   3.991  16.641  0.00  0.00    +0.000 A 
ATOM     30  C   UNL     1       5.357   4.788  17.473  0.00  0.00    +0.000 A 
ATOM     31  C   UNL     1       4.763   5.503  18.521  0.00  0.00    +0.000 A 
BRANCH  30  32
ATOM     32  C   UNL     1       6.822   4.934  17.232  0.00  0.00    +0.000 C 
ATOM     33  N   UNL     1       7.727   4.375  17.971  0.00  0.00    +0.000 NA
ATOM     34  N   UNL     1       7.268   5.676  16.179  0.00  0.00    +0.000 N 
ATOM     35  H   UNL     1       7.314   3.873  18.759  0.00  0.00    +0.000 HD
ATOM     36  H   UNL     1       6.703   5.642  15.338  0.00  0.00    +0.000 HD
ATOM     37  H   UNL     1       8.252   5.507  16.001  0.00  0.00    +0.000 HD
ENDBRANCH  30  32
ENDBRANCH  25  26
ENDBRANCH   4  25
TORSDOF 8
ENDMDL
MODEL 8
REMARK VINA RESULT:      -7.8      3.486      9.981
REMARK  Name = 
REMARK  9 active torsions:
REMARK  status: ('A' for Active; 'I' for Inactive)
REMARK    1  A    between atoms: C_1  and  O_2
REMARK    2  A    between atoms: O_2  and  C_3
REMARK    3  A    between atoms: C_7  and  C_8
REMARK    4  A    between atoms: C_11  and  S_12
REMARK    5  A    between atoms: S_12  and  N_15
REMARK    6  A    between atoms: N_15  and  C_16
REMARK    7  A    between atoms: N_19  and  C_20
REMARK    8  A    between atoms: C_20  and  C_21
REMARK    9  A    between atoms: C_25  and  C_26
REMARK                            x       y       z     vdW  Elec       q    Type
REMARK                         _______ _______ _______ _____ _____    ______ ____
ROOT
ATOM      1  C   UNL     1       2.660   6.635  19.033  0.00  0.00    +0.000 C 
ATOM      2  C   UNL     1       2.470   7.573  17.846  0.00  0.00    +0.000 C 
ATOM      3  C   UNL     1       2.111   8.911  18.450  0.00  0.00    +0.000 C 
ATOM      4  N   UNL     1       1.512   8.586  19.713  0.00  0.00    +0.000 N 
ATOM      5  C   UNL     1       1.810   7.294  20.124  0.00  0.00    +0.000 C 
ATOM      6  O   UNL     1       1.492   6.768  21.178  0.00  0.00    +0.000 OA
ENDROOT
BRANCH   1   7
ATOM      7  N   UNL     1       2.177   5.272  18.736  0.00  0.00    +0.000 NA
ATOM      8  H   UNL     1       1.254   5.074  19.132  0.00  0.00    +0.000 HD
BRANCH   7   9
ATOM      9  S   UNL     1       3.239   3.983  18.959  0.00  0.00    +0.000 S 
ATOM     10  O   UNL     1       2.650   2.778  18.417  0.00  0.00    +0.000 OA
ATOM     11  O   UNL     1       3.728   4.053  20.316  0.00  0.00    +0.000 OA
BRANCH   9  15
ATOM     12  C   UNL     1       6.038   4.440  15.881  0.00  0.00    +0.000 A 
ATOM     13  C   UNL     1       6.754   4.726  17.031  0.00  0.00    +0.000 A 
ATOM     14  C   UNL     1       5.957   4.646  18.211  0.00  0.00    +0.000 A 
ATOM     15  C   UNL     1       4.655   4.285  17.931  0.00  0.00    +0.000 A 
ATOM     16  S   UNL     1       4.408   4.058  16.260  0.00  0.00    +0.000 S 
BRANCH  12  21
ATOM     17  C   UNL     1       6.217   3.427  12.440  0.00  0.00    +0.000 A 
ATOM     18  N   UNL     1       7.157   4.188  11.865  0.00  0.00    +0.000 NA
ATOM     19  C   UNL     1       7.787   5.059  12.664  0.00  0.00    +0.000 A 
ATOM     20  C   UNL     1       7.504   5.198  14.002  0.00  0.00    +0.000 A 
ATOM     21  C   UNL     1       6.506   4.382  14.492  0.00  0.00    +0.000 A 
ATOM     22  N   UNL     1       5.858   3.475  13.732  0.00  0.00    +0.000 NA
BRANCH  17  24
ATOM     23  C   UNL     1       6.440   1.468  11.188  0.00  0.00    +0.000 C 
ATOM     24  O   UNL     1       5.599   2.540  11.587  0.00  0.00    +0.000 OA
ENDBRANCH  17  24
ENDBRANCH  12  21
ENDBRANCH   9  15
ENDBRANCH   7   9
ENDBRANCH   1   7
BRANCH   4  25
ATOM     25  C   UNL     1       0.805   9.580  20.500  0.00  0.00    +0.000 C 
BRANCH  25  26
ATOM     26  C   UNL     1       0.147  10.626  19.636  0.00  0.00    +0.000 A 
ATOM     27  C   UNL     1       0.600  11.954  19.613  0.00  0.00    +0.000 A 
ATOM     28  C   UNL     1      -0.002  12.897  18.776  0.00  0.00    +0.000 A 
ATOM     29  C   UNL     1      -1.058  12.526  17.941  0.00  0.00    +0.000 A 
ATOM     30  C   UNL     1      -1.523  11.207  17.953  0.00  0.00    +0.000 A 
ATOM     31  C   UNL     1      -0.927  10.269  18.805  0.00  0.00    +0.000 A 
BRANCH  30  32
ATOM     32  C   UNL     1      -2.612  10.764  17.034  0.00  0.00    +0.000 C 
ATOM     33  N   UNL     1      -3.331   9.706  17.237  0.00  0.00    +0.000 NA
ATOM     34  N   UNL     1      -2.904  11.497  15.923  0.00  0.00    +0.000 N 
ATOM     35  H   UNL     1      -3.024   9.193  18.065  0.00  0.00    +0.000 HD
ATOM     36  H   UNL     1      -2.810  12.502  16.012  0.00  0.00    +0.000 HD
ATOM     37  H   UNL     1      -3.793  11.217  15.522  0.00  0.00    +0.000 HD
ENDBRANCH  30  32
ENDBRANCH  25  26
ENDBRANCH   4  25
TORSDOF 8
ENDMDL
MODEL 9
REMARK VINA RESULT:      -7.8      3.568      9.025
REMARK  Name = 
REMARK  9 active torsions:
REMARK  status: ('A' for Active; 'I' for Inactive)
REMARK    1  A    between atoms: C_1  and  O_2
REMARK    2  A    between atoms: O_2  and  C_3
REMARK    3  A    between atoms: C_7  and  C_8
REMARK    4  A    between atoms: C_11  and  S_12
REMARK    5  A    between atoms: S_12  and  N_15
REMARK    6  A    between atoms: N_15  and  C_16
REMARK    7  A    between atoms: N_19  and  C_20
REMARK    8  A    between atoms: C_20  and  C_21
REMARK    9  A    between atoms: C_25  and  C_26
REMARK                            x       y       z     vdW  Elec       q    Type
REMARK                         _______ _______ _______ _____ _____    ______ ____
ROOT
ATOM      1  C   UNL     1       1.384   6.477  20.675  0.00  0.00    +0.000 C 
ATOM      2  C   UNL     1       1.253   7.650  21.640  0.00  0.00    +0.000 C 
ATOM      3  C   UNL     1       0.999   8.857  20.767  0.00  0.00    +0.000 C 
ATOM      4  N   UNL     1       1.595   8.520  19.506  0.00  0.00    +0.000 N 
ATOM      5  C   UNL     1       1.821   7.157  19.373  0.00  0.00    +0.000 C 
ATOM      6  O   UNL     1       2.257   6.578  18.391  0.00  0.00    +0.000 OA
ENDROOT
BRANCH   1   7
ATOM      7  N   UNL     1       2.397   5.505  21.130  0.00  0.00    +0.000 NA
ATOM      8  H   UNL     1       3.356   5.778  20.896  0.00  0.00    +0.000 HD
BRANCH   7   9
ATOM      9  S   UNL     1       2.125   3.869  20.830  0.00  0.00    +0.000 S 
ATOM     10  O   UNL     1       0.731   3.668  20.502  0.00  0.00    +0.000 OA
ATOM     11  O   UNL     1       2.781   3.121  21.877  0.00  0.00    +0.000 OA
BRANCH   9  15
ATOM     12  C   UNL     1       4.551   3.692  17.423  0.00  0.00    +0.000 A 
ATOM     13  C   UNL     1       3.806   2.526  17.367  0.00  0.00    +0.000 A 
ATOM     14  C   UNL     1       2.917   2.385  18.473  0.00  0.00    +0.000 A 
ATOM     15  C   UNL     1       2.996   3.457  19.338  0.00  0.00    +0.000 A 
ATOM     16  S   UNL     1       4.138   4.608  18.816  0.00  0.00    +0.000 S 
BRANCH  12  21
ATOM     17  C   UNL     1       7.153   5.767  16.074  0.00  0.00    +0.000 A 
ATOM     18  N   UNL     1       7.469   5.256  14.878  0.00  0.00    +0.000 NA
ATOM     19  C   UNL     1       6.761   4.190  14.482  0.00  0.00    +0.000 A 
ATOM     20  C   UNL     1       5.767   3.619  15.239  0.00  0.00    +0.000 A 
ATOM     21  C   UNL     1       5.533   4.208  16.465  0.00  0.00    +0.000 A 
ATOM     22  N   UNL     1       6.204   5.295  16.898  0.00  0.00    +0.000 NA
BRANCH  17  24
ATOM     23  C   UNL     1       7.395   7.522  17.596  0.00  0.00    +0.000 C 
ATOM     24  O   UNL     1       7.897   6.866  16.441  0.00  0.00    +0.000 OA
ENDBRANCH  17  24
ENDBRANCH  12  21
ENDBRANCH   9  15
ENDBRANCH   7   9
ENDBRANCH   1   7
BRANCH   4  25
ATOM     25  C   UNL     1       1.785   9.512  18.462  0.00  0.00    +0.000 C 
BRANCH  25  26
ATOM     26  C   UNL     1       0.750  10.607  18.524  0.00  0.00    +0.000 A 
ATOM     27  C   UNL     1       1.020  11.843  19.132  0.00  0.00    +0.000 A 
ATOM     28  C   UNL     1       0.058  12.856  19.144  0.00  0.00    +0.000 A 
ATOM     29  C   UNL     1      -1.186  12.653  18.540  0.00  0.00    +0.000 A 
ATOM     30  C   UNL     1      -1.472  11.427  17.932  0.00  0.00    +0.000 A 
ATOM     31  C   UNL     1      -0.509  10.409  17.936  0.00  0.00    +0.000 A 
BRANCH  30  32
ATOM     32  C   UNL     1      -2.769  11.197  17.231  0.00  0.00    +0.000 C 
ATOM     33  N   UNL     1      -3.840  11.887  17.466  0.00  0.00    +0.000 NA
ATOM     34  N   UNL     1      -2.863  10.230  16.276  0.00  0.00    +0.000 N 
ATOM     35  H   UNL     1      -3.698  12.561  18.219  0.00  0.00    +0.000 HD
ATOM     36  H   UNL     1      -2.041  10.088  15.700  0.00  0.00    +0.000 HD
ATOM     37  H   UNL     1      -3.713  10.332  15.732  0.00  0.00    +0.000 HD
ENDBRANCH  30  32
ENDBRANCH  25  26
ENDBRANCH   4  25
TORSDOF 8
ENDMDL
