MODEL 1
REMARK VINA RESULT:      -7.1      0.000      0.000
REMARK  Name = 
REMARK  5 active torsions:
REMARK  status: ('A' for Active; 'I' for Inactive)
REMARK    1  A    between atoms: C_1  and  C_2
REMARK    2  A    between atoms: C_2  and  N_3
REMARK    3  A    between atoms: N_3  and  C_4
REMARK    4  A    between atoms: C_4  and  N_6
REMARK    5  A    between atoms: C_17  and  C_18
REMARK                            x       y       z     vdW  Elec       q    Type
REMARK                         _______ _______ _______ _____ _____    ______ ____
ROOT
ATOM      1  N   UNL     1       3.371   3.522  17.309  0.00  0.00    +0.000 N 
ATOM      2  C   UNL     1       4.472   4.252  17.719  0.00  0.00    +0.000 A 
ATOM      3  N   UNL     1       4.690   4.618  18.972  0.00  0.00    +0.000 NA
ATOM      4  N   UNL     1       5.753   5.462  19.026  0.00  0.00    +0.000 NA
ATOM      5  C   UNL     1       6.210   5.564  17.804  0.00  0.00    +0.000 A 
ATOM      6  C   UNL     1       7.317   6.336  17.356  0.00  0.00    +0.000 A 
ATOM      7 CL   UNL     1       8.156   7.362  18.439  0.00  0.00    +0.000 Cl
ATOM      8  N   UNL     1       7.711   6.294  16.123  0.00  0.00    +0.000 NA
ATOM      9  C   UNL     1       7.024   5.443  15.230  0.00  0.00    +0.000 A 
ATOM     10  C   UNL     1       7.519   5.367  13.929  0.00  0.00    +0.000 A 
ATOM     11  C   UNL     1       6.909   4.544  12.988  0.00  0.00    +0.000 A 
ATOM     12  C   UNL     1       5.795   3.769  13.337  0.00  0.00    +0.000 A 
ATOM     13  C   UNL     1       5.154   2.879  12.309  0.00  0.00    +0.000 C 
ATOM     14  C   UNL     1       5.289   3.825  14.648  0.00  0.00    +0.000 A 
ATOM     15  C   UNL     1       5.894   4.665  15.587  0.00  0.00    +0.000 A 
ATOM     16  N   UNL     1       5.486   4.780  16.935  0.00  0.00    +0.000 N 
ATOM     17  H   UNL     1       3.119   3.496  16.333  0.00  0.00    +0.000 HD
ENDROOT
BRANCH   1  18
ATOM     18  C   UNL     1       2.392   3.088  18.178  0.00  0.00    +0.000 C 
ATOM     19  S   UNL     1       2.431   1.483  18.656  0.00  0.00    +0.000 S 
BRANCH  18  20
ATOM     20  N   UNL     1       1.484   4.017  18.605  0.00  0.00    +0.000 N 
ATOM     21  H   UNL     1       0.800   4.274  17.897  0.00  0.00    +0.000 HD
BRANCH  20  23
ATOM     22  C   UNL     1       1.731   5.337  20.649  0.00  0.00    +0.000 C 
ATOM     23  C   UNL     1       1.000   4.195  19.964  0.00  0.00    +0.000 C 
ENDBRANCH  20  23
ENDBRANCH  18  20
ENDBRANCH   1  18
TORSDOF 3
ENDMDL
MODEL 2
REMARK VINA RESULT:      -6.9      3.097      6.466
REMARK  Name = 
REMARK  5 active torsions:
REMARK  status: ('A' for Active; 'I' for Inactive)
REMARK    1  A    between atoms: C_1  and  C_2
REMARK    2  A    between atoms: C_2  and  N_3
REMARK    3  A    between atoms: N_3  and  C_4
REMARK    4  A    between atoms: C_4  and  N_6
REMARK    5  A    between atoms: C_17  and  C_18
REMARK                            x       y       z     vdW  Elec       q    Type
REMARK                         _______ _______ _______ _____ _____    ______ ____
ROOT
ATOM      1  N   UNL     1       4.979   5.936  16.902  0.00  0.00    +0.000 N 
ATOM      2  C   UNL     1       4.622   5.213  18.026  0.00  0.00    +0.000 A 
ATOM      3  N   UNL     1       5.189   4.070  18.380  0.00  0.00    +0.000 NA
ATOM      4  N   UNL     1       4.511   3.524  19.422  0.00  0.00    +0.000 NA
ATOM      5  C   UNL     1       3.560   4.368  19.732  0.00  0.00    +0.000 A 
ATOM      6  C   UNL     1       2.588   4.236  20.761  0.00  0.00    +0.000 A 
ATOM      7 CL   UNL     1       2.501   2.805  21.696  0.00  0.00    +0.000 Cl
ATOM      8  N   UNL     1       1.740   5.183  21.010  0.00  0.00    +0.000 NA
ATOM      9  C   UNL     1       1.815   6.367  20.244  0.00  0.00    +0.000 A 
ATOM     10  C   UNL     1       0.936   7.393  20.586  0.00  0.00    +0.000 A 
ATOM     11  C   UNL     1       0.951   8.598  19.890  0.00  0.00    +0.000 A 
ATOM     12  C   UNL     1       1.857   8.802  18.843  0.00  0.00    +0.000 A 
ATOM     13  C   UNL     1       1.865  10.113  18.107  0.00  0.00    +0.000 C 
ATOM     14  C   UNL     1       2.760   7.781  18.490  0.00  0.00    +0.000 A 
ATOM     15  C   UNL     1       2.732   6.567  19.181  0.00  0.00    +0.000 A 
ATOM     16  N   UNL     1       3.606   5.485  18.930  0.00  0.00    +0.000 N 
ATOM     17  H   UNL     1       4.356   6.642  16.540  0.00  0.00    +0.000 HD
ENDROOT
BRANCH   1  18
ATOM     18  C   UNL     1       5.980   5.539  16.041  0.00  0.00    +0.000 C 
ATOM     19  S   UNL     1       5.554   4.551  14.756  0.00  0.00    +0.000 S 
BRANCH  18  20
ATOM     20  N   UNL     1       7.238   6.013  16.290  0.00  0.00    +0.000 N 
ATOM     21  H   UNL     1       7.859   5.961  15.487  0.00  0.00    +0.000 HD
BRANCH  20  23
ATOM     22  C   UNL     1       7.955   6.469  18.584  0.00  0.00    +0.000 C 
ATOM     23  C   UNL     1       7.598   7.061  17.230  0.00  0.00    +0.000 C 
ENDBRANCH  20  23
ENDBRANCH  18  20
ENDBRANCH   1  18
TORSDOF 3
ENDMDL
MODEL 3
REMARK VINA RESULT:      -6.8      3.067      6.281
REMARK  Name = 
REMARK  5 active torsions:
REMARK  status: ('A' for Active; 'I' for Inactive)
REMARK    1  A    between atoms: C_1  and  C_2
REMARK    2  A    between atoms: C_2  and  N_3
REMARK    3  A    between atoms: N_3  and  C_4
REMARK    4  A    between atoms: C_4  and  N_6
REMARK    5  A    between atoms: C_17  and  C_18
REMARK                            x       y       z     vdW  Elec       q    Type
REMARK                         _______ _______ _______ _____ _____    ______ ____
ROOT
ATOM      1  N   UNL     1       5.753   5.260  17.223  0.00  0.00    +0.000 N 
ATOM      2  C   UNL     1       4.663   6.013  17.620  0.00  0.00    +0.000 A 
ATOM      3  N   UNL     1       4.317   7.163  17.062  0.00  0.00    +0.000 NA
ATOM      4  N   UNL     1       3.316   7.738  17.778  0.00  0.00    +0.000 NA
ATOM      5  C   UNL     1       3.022   6.905  18.743  0.00  0.00    +0.000 A 
ATOM      6  C   UNL     1       2.033   7.067  19.753  0.00  0.00    +0.000 A 
ATOM      7 CL   UNL     1       1.141   8.522  19.870  0.00  0.00    +0.000 Cl
ATOM      8  N   UNL     1       1.792   6.129  20.613  0.00  0.00    +0.000 NA
ATOM      9  C   UNL     1       2.523   4.924  20.513  0.00  0.00    +0.000 A 
ATOM     10  C   UNL     1       2.188   3.911  21.408  0.00  0.00    +0.000 A 
ATOM     11  C   UNL     1       2.852   2.688  21.371  0.00  0.00    +0.000 A 
ATOM     12  C   UNL     1       3.858   2.453  20.426  0.00  0.00    +0.000 A 
ATOM     13  C   UNL     1       4.558   1.123  20.394  0.00  0.00    +0.000 C 
ATOM     14  C   UNL     1       4.202   3.462  19.507  0.00  0.00    +0.000 A 
ATOM     15  C   UNL     1       3.545   4.695  19.557  0.00  0.00    +0.000 A 
ATOM     16  N   UNL     1       3.791   5.767  18.670  0.00  0.00    +0.000 N 
ATOM     17  H   UNL     1       6.120   4.546  17.833  0.00  0.00    +0.000 HD
ENDROOT
BRANCH   1  18
ATOM     18  C   UNL     1       6.585   5.631  16.188  0.00  0.00    +0.000 C 
ATOM     19  S   UNL     1       6.411   4.833  14.725  0.00  0.00    +0.000 S 
BRANCH  18  20
ATOM     20  N   UNL     1       7.467   6.646  16.434  0.00  0.00    +0.000 N 
ATOM     21  H   UNL     1       7.494   7.349  15.700  0.00  0.00    +0.000 HD
BRANCH  20  23
ATOM     22  C   UNL     1       7.883   8.678  17.732  0.00  0.00    +0.000 C 
ATOM     23  C   UNL     1       7.857   7.158  17.737  0.00  0.00    +0.000 C 
ENDBRANCH  20  23
ENDBRANCH  18  20
ENDBRANCH   1  18
TORSDOF 3
ENDMDL
MODEL 4
REMARK VINA RESULT:      -6.7      2.424      5.757
REMARK  Name = 
REMARK  5 active torsions:
REMARK  status: ('A' for Active; 'I' for Inactive)
REMARK    1  A    between atoms: C_1  and  C_2
REMARK    2  A    between atoms: C_2  and  N_3
REMARK    3  A    between atoms: N_3  and  C_4
REMARK    4  A    between atoms: C_4  and  N_6
REMARK    5  A    between atoms: C_17  and  C_18
REMARK                            x       y       z     vdW  Elec       q    Type
REMARK                         _______ _______ _______ _____ _____    ______ ____
ROOT
ATOM      1  N   UNL     1       5.337   3.557  14.169  0.00  0.00    +0.000 N 
ATOM      2  C   UNL     1       5.961   4.512  14.951  0.00  0.00    +0.000 A 
ATOM      3  N   UNL     1       6.894   5.339  14.504  0.00  0.00    +0.000 NA
ATOM      4  N   UNL     1       7.428   6.034  15.541  0.00  0.00    +0.000 NA
ATOM      5  C   UNL     1       6.778   5.661  16.614  0.00  0.00    +0.000 A 
ATOM      6  C   UNL     1       6.978   6.113  17.948  0.00  0.00    +0.000 A 
ATOM      7 CL   UNL     1       8.253   7.193  18.317  0.00  0.00    +0.000 Cl
ATOM      8  N   UNL     1       6.214   5.714  18.914  0.00  0.00    +0.000 NA
ATOM      9  C   UNL     1       5.157   4.828  18.610  0.00  0.00    +0.000 A 
ATOM     10  C   UNL     1       4.311   4.475  19.659  0.00  0.00    +0.000 A 
ATOM     11  C   UNL     1       3.238   3.616  19.444  0.00  0.00    +0.000 A 
ATOM     12  C   UNL     1       2.985   3.101  18.167  0.00  0.00    +0.000 A 
ATOM     13  C   UNL     1       1.816   2.181  17.950  0.00  0.00    +0.000 C 
ATOM     14  C   UNL     1       3.822   3.455  17.092  0.00  0.00    +0.000 A 
ATOM     15  C   UNL     1       4.908   4.306  17.315  0.00  0.00    +0.000 A 
ATOM     16  N   UNL     1       5.797   4.746  16.308  0.00  0.00    +0.000 N 
ATOM     17  H   UNL     1       4.840   2.796  14.606  0.00  0.00    +0.000 HD
ENDROOT
BRANCH   1  18
ATOM     18  C   UNL     1       5.619   3.381  12.831  0.00  0.00    +0.000 C 
ATOM     19  S   UNL     1       4.398   3.704  11.730  0.00  0.00    +0.000 S 
BRANCH  18  20
ATOM     20  N   UNL     1       6.888   2.986  12.510  0.00  0.00    +0.000 N 
ATOM     21  H   UNL     1       7.446   2.715  13.315  0.00  0.00    +0.000 HD
BRANCH  20  23
ATOM     22  C   UNL     1       6.626   1.000  11.106  0.00  0.00    +0.000 C 
ATOM     23  C   UNL     1       7.310   2.347  11.275  0.00  0.00    +0.000 C 
ENDBRANCH  20  23
ENDBRANCH  18  20
ENDBRANCH   1  18
TORSDOF 3
ENDMDL
MODEL 5
REMARK VINA RESULT:      -6.7      1.137      1.221
REMARK  Name = 
REMARK  5 active torsions:
REMARK  status: ('A' for Active; 'I' for Inactive)
REMARK    1  A    between atoms: C_1  and  C_2
REMARK    2  A    between atoms: C_2  and  N_3
REMARK    3  A    between atoms: N_3  and  C_4
REMARK    4  A    between atoms: C_4  and  N_6
REMARK    5  A    between atoms: C_17  and  C_18
REMARK                            x       y       z     vdW  Elec       q    Type
REMARK                         _______ _______ _______ _____ _____    ______ ____
ROOT
ATOM      1  N   UNL     1       3.570   3.460  17.513  0.00  0.00    +0.000 N 
ATOM      2  C   UNL     1       4.651   4.236  17.890  0.00  0.00    +0.000 A 
ATOM      3  N   UNL     1       4.888   4.616  19.136  0.00  0.00    +0.000 NA
ATOM      4  N   UNL     1       5.916   5.503  19.159  0.00  0.00    +0.000 NA
ATOM      5  C   UNL     1       6.335   5.619  17.925  0.00  0.00    +0.000 A 
ATOM      6  C   UNL     1       7.397   6.435  17.445  0.00  0.00    +0.000 A 
ATOM      7 CL   UNL     1       8.221   7.499  18.502  0.00  0.00    +0.000 Cl
ATOM      8  N   UNL     1       7.758   6.404  16.202  0.00  0.00    +0.000 NA
ATOM      9  C   UNL     1       7.083   5.522  15.329  0.00  0.00    +0.000 A 
ATOM     10  C   UNL     1       7.545   5.462  14.016  0.00  0.00    +0.000 A 
ATOM     11  C   UNL     1       6.944   4.610  13.094  0.00  0.00    +0.000 A 
ATOM     12  C   UNL     1       5.874   3.792  13.475  0.00  0.00    +0.000 A 
ATOM     13  C   UNL     1       5.242   2.872  12.468  0.00  0.00    +0.000 C 
ATOM     14  C   UNL     1       5.401   3.832  14.800  0.00  0.00    +0.000 A 
ATOM     15  C   UNL     1       5.997   4.700  15.719  0.00  0.00    +0.000 A 
ATOM     16  N   UNL     1       5.621   4.803  17.078  0.00  0.00    +0.000 N 
ATOM     17  H   UNL     1       3.294   3.420  16.544  0.00  0.00    +0.000 HD
ENDROOT
BRANCH   1  18
ATOM     18  C   UNL     1       2.634   2.989  18.409  0.00  0.00    +0.000 C 
ATOM     19  S   UNL     1       1.066   3.562  18.268  0.00  0.00    +0.000 S 
BRANCH  18  20
ATOM     20  N   UNL     1       3.058   2.067  19.324  0.00  0.00    +0.000 N 
ATOM     21  H   UNL     1       3.593   1.304  18.916  0.00  0.00    +0.000 HD
BRANCH  20  23
ATOM     22  C   UNL     1       2.141   2.730  21.493  0.00  0.00    +0.000 C 
ATOM     23  C   UNL     1       3.382   2.315  20.719  0.00  0.00    +0.000 C 
ENDBRANCH  20  23
ENDBRANCH  18  20
ENDBRANCH   1  18
TORSDOF 3
ENDMDL
MODEL 6
REMARK VINA RESULT:      -6.6      1.053      1.058
REMARK  Name = 
REMARK  5 active torsions:
REMARK  status: ('A' for Active; 'I' for Inactive)
REMARK    1  A    between atoms: C_1  and  C_2
REMARK    2  A    between atoms: C_2  and  N_3
REMARK    3  A    between atoms: N_3  and  C_4
REMARK    4  A    between atoms: C_4  and  N_6
REMARK    5  A    between atoms: C_17  and  C_18
REMARK                            x       y       z     vdW  Elec       q    Type
REMARK                         _______ _______ _______ _____ _____    ______ ____
ROOT
ATOM      1  N   UNL     1       4.081   2.605  17.259  0.00  0.00    +0.000 N 
ATOM      2  C   UNL     1       5.043   3.506  17.678  0.00  0.00    +0.000 A 
ATOM      3  N   UNL     1       5.272   3.805  18.947  0.00  0.00    +0.000 NA
ATOM      4  N   UNL     1       6.150   4.838  19.025  0.00  0.00    +0.000 NA
ATOM      5  C   UNL     1       6.493   5.130  17.796  0.00  0.00    +0.000 A 
ATOM      6  C   UNL     1       7.394   6.143  17.366  0.00  0.00    +0.000 A 
ATOM      7 CL   UNL     1       8.088   7.224  18.496  0.00  0.00    +0.000 Cl
ATOM      8  N   UNL     1       7.702   6.281  16.116  0.00  0.00    +0.000 NA
ATOM      9  C   UNL     1       7.135   5.385  15.183  0.00  0.00    +0.000 A 
ATOM     10  C   UNL     1       7.544   5.517  13.858  0.00  0.00    +0.000 A 
ATOM     11  C   UNL     1       7.043   4.667  12.876  0.00  0.00    +0.000 A 
ATOM     12  C   UNL     1       6.130   3.659  13.208  0.00  0.00    +0.000 A 
ATOM     13  C   UNL     1       5.605   2.744  12.136  0.00  0.00    +0.000 C 
ATOM     14  C   UNL     1       5.714   3.504  14.543  0.00  0.00    +0.000 A 
ATOM     15  C   UNL     1       6.207   4.369  15.524  0.00  0.00    +0.000 A 
ATOM     16  N   UNL     1       5.878   4.290  16.896  0.00  0.00    +0.000 N 
ATOM     17  H   UNL     1       3.773   2.609  16.299  0.00  0.00    +0.000 HD
ENDROOT
BRANCH   1  18
ATOM     18  C   UNL     1       3.268   1.914  18.133  0.00  0.00    +0.000 C 
ATOM     19  S   UNL     1       4.007   0.926  19.267  0.00  0.00    +0.000 S 
BRANCH  18  20
ATOM     20  N   UNL     1       1.921   2.118  18.022  0.00  0.00    +0.000 N 
ATOM     21  H   UNL     1       1.401   1.279  17.777  0.00  0.00    +0.000 HD
BRANCH  20  23
ATOM     22  C   UNL     1       1.542   4.509  18.378  0.00  0.00    +0.000 C 
ATOM     23  C   UNL     1       1.129   3.094  18.751  0.00  0.00    +0.000 C 
ENDBRANCH  20  23
ENDBRANCH  18  20
ENDBRANCH   1  18
TORSDOF 3
ENDMDL
MODEL 7
REMARK VINA RESULT:      -6.6      3.178      6.472
REMARK  Name = 
REMARK  5 active torsions:
REMARK  status: ('A' for Active; 'I' for Inactive)
REMARK    1  A    between atoms: C_1  and  C_2
REMARK    2  A    between atoms: C_2  and  N_3
REMARK    3  A    between atoms: N_3  and  C_4
REMARK    4  A    between atoms: C_4  and  N_6
REMARK    5  A    between atoms: C_17  and  C_18
REMARK                            x       y       z     vdW  Elec       q    Type
REMARK                         _______ _______ _______ _____ _____    ______ ____
ROOT
ATOM      1  N   UNL     1       4.801   5.438  16.508  0.00  0.00    +0.000 N 
ATOM      2  C   UNL     1       4.508   4.782  17.690  0.00  0.00    +0.000 A 
ATOM      3  N   UNL     1       5.022   3.611  18.032  0.00  0.00    +0.000 NA
ATOM      4  N   UNL     1       4.416   3.153  19.158  0.00  0.00    +0.000 NA
ATOM      5  C   UNL     1       3.567   4.079  19.526  0.00  0.00    +0.000 A 
ATOM      6  C   UNL     1       2.698   4.057  20.652  0.00  0.00    +0.000 A 
ATOM      7 CL   UNL     1       2.601   2.669  21.648  0.00  0.00    +0.000 Cl
ATOM      8  N   UNL     1       1.953   5.075  20.945  0.00  0.00    +0.000 NA
ATOM      9  C   UNL     1       2.037   6.224  20.129  0.00  0.00    +0.000 A 
ATOM     10  C   UNL     1       1.277   7.326  20.514  0.00  0.00    +0.000 A 
ATOM     11  C   UNL     1       1.310   8.503  19.772  0.00  0.00    +0.000 A 
ATOM     12  C   UNL     1       2.117   8.601  18.633  0.00  0.00    +0.000 A 
ATOM     13  C   UNL     1       2.148   9.883  17.847  0.00  0.00    +0.000 C 
ATOM     14  C   UNL     1       2.901   7.502  18.234  0.00  0.00    +0.000 A 
ATOM     15  C   UNL     1       2.853   6.316  18.973  0.00  0.00    +0.000 A 
ATOM     16  N   UNL     1       3.614   5.162  18.680  0.00  0.00    +0.000 N 
ATOM     17  H   UNL     1       4.200   6.178  16.181  0.00  0.00    +0.000 HD
ENDROOT
BRANCH   1  18
ATOM     18  C   UNL     1       5.677   4.936  15.568  0.00  0.00    +0.000 C 
ATOM     19  S   UNL     1       7.317   5.078  15.880  0.00  0.00    +0.000 S 
BRANCH  18  20
ATOM     20  N   UNL     1       5.130   4.334  14.469  0.00  0.00    +0.000 N 
ATOM     21  H   UNL     1       4.210   4.691  14.224  0.00  0.00    +0.000 HD
BRANCH  20  23
ATOM     22  C   UNL     1       4.905   3.486  12.186  0.00  0.00    +0.000 C 
ATOM     23  C   UNL     1       5.853   3.777  13.338  0.00  0.00    +0.000 C 
ENDBRANCH  20  23
ENDBRANCH  18  20
ENDBRANCH   1  18
TORSDOF 3
ENDMDL
MODEL 8
REMARK VINA RESULT:      -6.5      2.535      5.540
REMARK  Name = 
REMARK  5 active torsions:
REMARK  status: ('A' for Active; 'I' for Inactive)
REMARK    1  A    between atoms: C_1  and  C_2
REMARK    2  A    between atoms: C_2  and  N_3
REMARK    3  A    between atoms: N_3  and  C_4
REMARK    4  A    between atoms: C_4  and  N_6
REMARK    5  A    between atoms: C_17  and  C_18
REMARK                            x       y       z     vdW  Elec       q    Type
REMARK                         _______ _______ _______ _____ _____    ______ ____
ROOT
ATOM      1  N   UNL     1       5.382   3.781  14.193  0.00  0.00    +0.000 N 
ATOM      2  C   UNL     1       5.995   4.680  15.047  0.00  0.00    +0.000 A 
ATOM      3  N   UNL     1       6.872   5.591  14.654  0.00  0.00    +0.000 NA
ATOM      4  N   UNL     1       7.417   6.201  15.738  0.00  0.00    +0.000 NA
ATOM      5  C   UNL     1       6.827   5.691  16.789  0.00  0.00    +0.000 A 
ATOM      6  C   UNL     1       7.061   6.015  18.154  0.00  0.00    +0.000 A 
ATOM      7 CL   UNL     1       8.302   7.111  18.587  0.00  0.00    +0.000 Cl
ATOM      8  N   UNL     1       6.355   5.484  19.100  0.00  0.00    +0.000 NA
ATOM      9  C   UNL     1       5.326   4.585  18.745  0.00  0.00    +0.000 A 
ATOM     10  C   UNL     1       4.539   4.088  19.782  0.00  0.00    +0.000 A 
ATOM     11  C   UNL     1       3.496   3.205  19.518  0.00  0.00    +0.000 A 
ATOM     12  C   UNL     1       3.215   2.811  18.204  0.00  0.00    +0.000 A 
ATOM     13  C   UNL     1       2.079   1.863  17.936  0.00  0.00    +0.000 C 
ATOM     14  C   UNL     1       3.992   3.311  17.143  0.00  0.00    +0.000 A 
ATOM     15  C   UNL     1       5.048   4.185  17.413  0.00  0.00    +0.000 A 
ATOM     16  N   UNL     1       5.875   4.767  16.426  0.00  0.00    +0.000 N 
ATOM     17  H   UNL     1       4.936   2.957  14.567  0.00  0.00    +0.000 HD
ENDROOT
BRANCH   1  18
ATOM     18  C   UNL     1       5.617   3.755  12.835  0.00  0.00    +0.000 C 
ATOM     19  S   UNL     1       7.178   3.427  12.322  0.00  0.00    +0.000 S 
BRANCH  18  20
ATOM     20  N   UNL     1       4.545   3.970  12.015  0.00  0.00    +0.000 N 
ATOM     21  H   UNL     1       4.449   4.936  11.713  0.00  0.00    +0.000 HD
BRANCH  20  23
ATOM     22  C   UNL     1       3.184   3.736   9.995  0.00  0.00    +0.000 C 
ATOM     23  C   UNL     1       3.959   3.017  11.087  0.00  0.00    +0.000 C 
ENDBRANCH  20  23
ENDBRANCH  18  20
ENDBRANCH   1  18
TORSDOF 3
ENDMDL
MODEL 9
REMARK VINA RESULT:      -6.4      3.738      5.861
REMARK  Name = 
REMARK  5 active torsions:
REMARK  status: ('A' for Active; 'I' for Inactive)
REMARK    1  A    between atoms: C_1  and  C_2
REMARK    2  A    between atoms: C_2  and  N_3
REMARK    3  A    between atoms: N_3  and  C_4
REMARK    4  A    between atoms: C_4  and  N_6
REMARK    5  A    between atoms: C_17  and  C_18
REMARK                            x       y       z     vdW  Elec       q    Type
REMARK                         _______ _______ _______ _____ _____    ______ ____
ROOT
ATOM      1  N   UNL     1       1.615   7.567  19.823  0.00  0.00    +0.000 N 
ATOM      2  C   UNL     1       2.592   7.281  18.886  0.00  0.00    +0.000 A 
ATOM      3  N   UNL     1       3.186   8.197  18.136  0.00  0.00    +0.000 NA
ATOM      4  N   UNL     1       3.966   7.591  17.203  0.00  0.00    +0.000 NA
ATOM      5  C   UNL     1       3.881   6.305  17.425  0.00  0.00    +0.000 A 
ATOM      6  C   UNL     1       4.524   5.259  16.707  0.00  0.00    +0.000 A 
ATOM      7 CL   UNL     1       5.458   5.607  15.315  0.00  0.00    +0.000 Cl
ATOM      8  N   UNL     1       4.412   4.023  17.075  0.00  0.00    +0.000 NA
ATOM      9  C   UNL     1       3.648   3.734  18.227  0.00  0.00    +0.000 A 
ATOM     10  C   UNL     1       3.607   2.403  18.637  0.00  0.00    +0.000 A 
ATOM     11  C   UNL     1       2.886   2.033  19.769  0.00  0.00    +0.000 A 
ATOM     12  C   UNL     1       2.200   2.996  20.520  0.00  0.00    +0.000 A 
ATOM     13  C   UNL     1       1.434   2.580  21.744  0.00  0.00    +0.000 C 
ATOM     14  C   UNL     1       2.239   4.347  20.127  0.00  0.00    +0.000 A 
ATOM     15  C   UNL     1       2.951   4.712  18.981  0.00  0.00    +0.000 A 
ATOM     16  N   UNL     1       3.078   6.038  18.510  0.00  0.00    +0.000 N 
ATOM     17  H   UNL     1       1.021   6.830  20.170  0.00  0.00    +0.000 HD
ENDROOT
BRANCH   1  18
ATOM     18  C   UNL     1       1.172   8.847  20.079  0.00  0.00    +0.000 C 
ATOM     19  S   UNL     1       1.100   9.339  21.679  0.00  0.00    +0.000 S 
BRANCH  18  20
ATOM     20  N   UNL     1       0.856   9.623  18.999  0.00  0.00    +0.000 N 
ATOM     21  H   UNL     1       1.056   9.179  18.106  0.00  0.00    +0.000 HD
BRANCH  20  23
ATOM     22  C   UNL     1      -1.274  10.186  17.936  0.00  0.00    +0.000 C 
ATOM     23  C   UNL     1      -0.203  10.616  18.925  0.00  0.00    +0.000 C 
ENDBRANCH  20  23
ENDBRANCH  18  20
ENDBRANCH   1  18
TORSDOF 3
ENDMDL
