MODEL 1
REMARK VINA RESULT:      -8.0      0.000      0.000
REMARK  Name = 
REMARK  6 active torsions:
REMARK  status: ('A' for Active; 'I' for Inactive)
REMARK    1  A    between atoms: O_1  and  C_2
REMARK    2  A    between atoms: C_4  and  N_5
REMARK    3  A    between atoms: N_5  and  C_6
REMARK    4  A    between atoms: C_6  and  C_7
REMARK    5  A    between atoms: C_12  and  C_13
REMARK    6  A    between atoms: C_17  and  O_18
REMARK                            x       y       z     vdW  Elec       q    Type
REMARK                         _______ _______ _______ _____ _____    ______ ____
ROOT
ATOM      1  N   UNL     1       6.023   3.783  16.787  0.00  0.00    +0.000 N 
ATOM      2  H   UNL     1       6.112   2.890  17.266  0.00  0.00    +0.000 HD
ENDROOT
BRANCH   1   5
ATOM      3  C   UNL     1       7.554   6.971  17.568  0.00  0.00    +0.000 A 
ATOM      4  C   UNL     1       6.893   5.999  16.856  0.00  0.00    +0.000 A 
ATOM      5  C   UNL     1       6.719   4.780  17.489  0.00  0.00    +0.000 A 
ATOM      6  N   UNL     1       7.148   4.571  18.742  0.00  0.00    +0.000 NA
ATOM      7  C   UNL     1       7.778   5.605  19.316  0.00  0.00    +0.000 A 
ATOM      8  N   UNL     1       8.020   6.803  18.803  0.00  0.00    +0.000 NA
BRANCH   3   9
ATOM      9  O   UNL     1       7.780   8.206  17.031  0.00  0.00    +0.000 OA
ATOM     10  H   UNL     1       8.523   8.617  17.496  0.00  0.00    +0.000 HD
ENDBRANCH   3   9
BRANCH   7  11
ATOM     11  O   UNL     1       8.212   5.369  20.584  0.00  0.00    +0.000 OA
ATOM     12  H   UNL     1       8.497   6.264  20.823  0.00  0.00    +0.000 HD
ENDBRANCH   7  11
ENDBRANCH   1   5
BRANCH   1  13
ATOM     13  C   UNL     1       4.634   4.073  16.459  0.00  0.00    +0.000 C 
BRANCH  13  14
ATOM     14  C   UNL     1       3.771   3.743  17.663  0.00  0.00    +0.000 A 
ATOM     15  C   UNL     1       3.440   2.418  17.967  0.00  0.00    +0.000 A 
ATOM     16  C   UNL     1       2.662   2.132  19.089  0.00  0.00    +0.000 A 
ATOM     17  C   UNL     1       2.193   3.163  19.907  0.00  0.00    +0.000 A 
ATOM     18 CL   UNL     1       1.241   2.711  21.281  0.00  0.00    +0.000 Cl
ATOM     19  C   UNL     1       2.481   4.511  19.619  0.00  0.00    +0.000 A 
ATOM     20  C   UNL     1       3.292   4.773  18.498  0.00  0.00    +0.000 A 
BRANCH  19  21
ATOM     21  C   UNL     1       1.897   5.597  20.495  0.00  0.00    +0.000 C 
ATOM     22 CL   UNL     1       2.126   7.266  19.927  0.00  0.00    +0.000 Cl
ENDBRANCH  19  21
ENDBRANCH  13  14
ENDBRANCH   1  13
TORSDOF 6
ENDMDL
MODEL 2
REMARK VINA RESULT:      -7.5      1.032      2.310
REMARK  Name = 
REMARK  6 active torsions:
REMARK  status: ('A' for Active; 'I' for Inactive)
REMARK    1  A    between atoms: O_1  and  C_2
REMARK    2  A    between atoms: C_4  and  N_5
REMARK    3  A    between atoms: N_5  and  C_6
REMARK    4  A    between atoms: C_6  and  C_7
REMARK    5  A    between atoms: C_12  and  C_13
REMARK    6  A    between atoms: C_17  and  O_18
REMARK                            x       y       z     vdW  Elec       q    Type
REMARK                         _______ _______ _______ _____ _____    ______ ____
ROOT
ATOM      1  N   UNL     1       5.565   3.887  17.177  0.00  0.00    +0.000 N 
ATOM      2  H   UNL     1       5.408   3.119  17.824  0.00  0.00    +0.000 HD
ENDROOT
BRANCH   1   5
ATOM      3  C   UNL     1       7.553   6.887  17.591  0.00  0.00    +0.000 A 
ATOM      4  C   UNL     1       6.721   5.963  17.006  0.00  0.00    +0.000 A 
ATOM      5  C   UNL     1       6.435   4.830  17.748  0.00  0.00    +0.000 A 
ATOM      6  N   UNL     1       6.923   4.659  18.985  0.00  0.00    +0.000 NA
ATOM      7  C   UNL     1       7.723   5.637  19.431  0.00  0.00    +0.000 A 
ATOM      8  N   UNL     1       8.082   6.749  18.805  0.00  0.00    +0.000 NA
BRANCH   3   9
ATOM      9  O   UNL     1       7.899   8.036  16.940  0.00  0.00    +0.000 OA
ATOM     10  H   UNL     1       7.496   8.028  16.059  0.00  0.00    +0.000 HD
ENDBRANCH   3   9
BRANCH   7  11
ATOM     11  O   UNL     1       8.214   5.439  20.684  0.00  0.00    +0.000 OA
ATOM     12  H   UNL     1       7.615   6.015  21.182  0.00  0.00    +0.000 HD
ENDBRANCH   7  11
ENDBRANCH   1   5
BRANCH   1  13
ATOM     13  C   UNL     1       4.310   4.403  16.649  0.00  0.00    +0.000 C 
BRANCH  13  14
ATOM     14  C   UNL     1       3.575   5.128  17.763  0.00  0.00    +0.000 A 
ATOM     15  C   UNL     1       3.285   6.492  17.663  0.00  0.00    +0.000 A 
ATOM     16  C   UNL     1       2.592   7.136  18.687  0.00  0.00    +0.000 A 
ATOM     17  C   UNL     1       2.198   6.431  19.828  0.00  0.00    +0.000 A 
ATOM     18 CL   UNL     1       1.336   7.313  21.043  0.00  0.00    +0.000 Cl
ATOM     19  C   UNL     1       2.495   5.063  19.978  0.00  0.00    +0.000 A 
ATOM     20  C   UNL     1       3.170   4.428  18.918  0.00  0.00    +0.000 A 
BRANCH  19  21
ATOM     21  C   UNL     1       2.106   4.357  21.258  0.00  0.00    +0.000 C 
ATOM     22 CL   UNL     1       1.153   2.868  21.071  0.00  0.00    +0.000 Cl
ENDBRANCH  19  21
ENDBRANCH  13  14
ENDBRANCH   1  13
TORSDOF 6
ENDMDL
MODEL 3
REMARK VINA RESULT:      -7.4      0.637      1.828
REMARK  Name = 
REMARK  6 active torsions:
REMARK  status: ('A' for Active; 'I' for Inactive)
REMARK    1  A    between atoms: O_1  and  C_2
REMARK    2  A    between atoms: C_4  and  N_5
REMARK    3  A    between atoms: N_5  and  C_6
REMARK    4  A    between atoms: C_6  and  C_7
REMARK    5  A    between atoms: C_12  and  C_13
REMARK    6  A    between atoms: C_17  and  O_18
REMARK                            x       y       z     vdW  Elec       q    Type
REMARK                         _______ _______ _______ _____ _____    ______ ____
ROOT
ATOM      1  N   UNL     1       5.973   3.988  16.595  0.00  0.00    +0.000 N 
ATOM      2  H   UNL     1       6.129   3.080  17.024  0.00  0.00    +0.000 HD
ENDROOT
BRANCH   1   5
ATOM      3  C   UNL     1       7.755   5.648  19.277  0.00  0.00    +0.000 A 
ATOM      4  C   UNL     1       7.077   4.666  18.593  0.00  0.00    +0.000 A 
ATOM      5  C   UNL     1       6.644   4.987  17.319  0.00  0.00    +0.000 A 
ATOM      6  N   UNL     1       6.899   6.184  16.770  0.00  0.00    +0.000 NA
ATOM      7  C   UNL     1       7.566   7.046  17.549  0.00  0.00    +0.000 A 
ATOM      8  N   UNL     1       8.009   6.858  18.785  0.00  0.00    +0.000 NA
BRANCH   3   9
ATOM      9  O   UNL     1       8.220   5.432  20.542  0.00  0.00    +0.000 OA
ATOM     10  H   UNL     1       7.500   5.588  21.170  0.00  0.00    +0.000 HD
ENDBRANCH   3   9
BRANCH   7  11
ATOM     11  O   UNL     1       7.806   8.256  16.977  0.00  0.00    +0.000 OA
ATOM     12  H   UNL     1       7.117   8.248  16.295  0.00  0.00    +0.000 HD
ENDBRANCH   7  11
ENDBRANCH   1   5
BRANCH   1  13
ATOM     13  C   UNL     1       4.558   4.218  16.336  0.00  0.00    +0.000 C 
BRANCH  13  14
ATOM     14  C   UNL     1       3.768   3.823  17.571  0.00  0.00    +0.000 A 
ATOM     15  C   UNL     1       3.582   2.477  17.903  0.00  0.00    +0.000 A 
ATOM     16  C   UNL     1       2.870   2.133  19.051  0.00  0.00    +0.000 A 
ATOM     17  C   UNL     1       2.322   3.125  19.869  0.00  0.00    +0.000 A 
ATOM     18 CL   UNL     1       1.461   2.603  21.277  0.00  0.00    +0.000 Cl
ATOM     19  C   UNL     1       2.465   4.490  19.554  0.00  0.00    +0.000 A 
ATOM     20  C   UNL     1       3.212   4.814  18.406  0.00  0.00    +0.000 A 
BRANCH  19  21
ATOM     21  C   UNL     1       1.799   5.527  20.432  0.00  0.00    +0.000 C 
ATOM     22 CL   UNL     1       2.135   7.225  20.028  0.00  0.00    +0.000 Cl
ENDBRANCH  19  21
ENDBRANCH  13  14
ENDBRANCH   1  13
TORSDOF 6
ENDMDL
MODEL 4
REMARK VINA RESULT:      -7.3      1.101      2.736
REMARK  Name = 
REMARK  6 active torsions:
REMARK  status: ('A' for Active; 'I' for Inactive)
REMARK    1  A    between atoms: O_1  and  C_2
REMARK    2  A    between atoms: C_4  and  N_5
REMARK    3  A    between atoms: N_5  and  C_6
REMARK    4  A    between atoms: C_6  and  C_7
REMARK    5  A    between atoms: C_12  and  C_13
REMARK    6  A    between atoms: C_17  and  O_18
REMARK                            x       y       z     vdW  Elec       q    Type
REMARK                         _______ _______ _______ _____ _____    ______ ____
ROOT
ATOM      1  N   UNL     1       6.336   3.969  16.441  0.00  0.00    +0.000 N 
ATOM      2  H   UNL     1       6.373   3.079  16.932  0.00  0.00    +0.000 HD
ENDROOT
BRANCH   1   5
ATOM      3  C   UNL     1       7.846   5.647  19.273  0.00  0.00    +0.000 A 
ATOM      4  C   UNL     1       7.266   4.651  18.525  0.00  0.00    +0.000 A 
ATOM      5  C   UNL     1       6.906   4.981  17.230  0.00  0.00    +0.000 A 
ATOM      6  N   UNL     1       7.139   6.201  16.724  0.00  0.00    +0.000 NA
ATOM      7  C   UNL     1       7.709   7.075  17.565  0.00  0.00    +0.000 A 
ATOM      8  N   UNL     1       8.074   6.879  18.824  0.00  0.00    +0.000 NA
BRANCH   3   9
ATOM      9  O   UNL     1       8.233   5.424  20.563  0.00  0.00    +0.000 OA
ATOM     10  H   UNL     1       7.509   4.987  21.035  0.00  0.00    +0.000 HD
ENDBRANCH   3   9
BRANCH   7  11
ATOM     11  O   UNL     1       7.928   8.308  17.035  0.00  0.00    +0.000 OA
ATOM     12  H   UNL     1       8.802   8.159  16.642  0.00  0.00    +0.000 HD
ENDBRANCH   7  11
ENDBRANCH   1   5
BRANCH   1  13
ATOM     13  C   UNL     1       5.002   4.232  15.918  0.00  0.00    +0.000 C 
BRANCH  13  14
ATOM     14  C   UNL     1       4.059   4.466  17.085  0.00  0.00    +0.000 A 
ATOM     15  C   UNL     1       3.638   5.756  17.420  0.00  0.00    +0.000 A 
ATOM     16  C   UNL     1       2.757   5.951  18.483  0.00  0.00    +0.000 A 
ATOM     17  C   UNL     1       2.302   4.862  19.233  0.00  0.00    +0.000 A 
ATOM     18 CL   UNL     1       1.204   5.199  20.528  0.00  0.00    +0.000 Cl
ATOM     19  C   UNL     1       2.724   3.551  18.944  0.00  0.00    +0.000 A 
ATOM     20  C   UNL     1       3.591   3.377  17.849  0.00  0.00    +0.000 A 
BRANCH  19  21
ATOM     21  C   UNL     1       2.257   2.411  19.823  0.00  0.00    +0.000 C 
ATOM     22 CL   UNL     1       2.790   2.463  21.518  0.00  0.00    +0.000 Cl
ENDBRANCH  19  21
ENDBRANCH  13  14
ENDBRANCH   1  13
TORSDOF 6
ENDMDL
MODEL 5
REMARK VINA RESULT:      -7.2      1.452      2.398
REMARK  Name = 
REMARK  6 active torsions:
REMARK  status: ('A' for Active; 'I' for Inactive)
REMARK    1  A    between atoms: O_1  and  C_2
REMARK    2  A    between atoms: C_4  and  N_5
REMARK    3  A    between atoms: N_5  and  C_6
REMARK    4  A    between atoms: C_6  and  C_7
REMARK    5  A    between atoms: C_12  and  C_13
REMARK    6  A    between atoms: C_17  and  O_18
REMARK                            x       y       z     vdW  Elec       q    Type
REMARK                         _______ _______ _______ _____ _____    ______ ____
ROOT
ATOM      1  N   UNL     1       6.738   4.709  15.996  0.00  0.00    +0.000 N 
ATOM      2  H   UNL     1       6.814   3.734  16.274  0.00  0.00    +0.000 HD
ENDROOT
BRANCH   1   5
ATOM      3  C   UNL     1       7.991   5.782  19.221  0.00  0.00    +0.000 A 
ATOM      4  C   UNL     1       7.497   4.955  18.240  0.00  0.00    +0.000 A 
ATOM      5  C   UNL     1       7.219   5.543  17.018  0.00  0.00    +0.000 A 
ATOM      6  N   UNL     1       7.448   6.845  16.796  0.00  0.00    +0.000 NA
ATOM      7  C   UNL     1       7.929   7.533  17.841  0.00  0.00    +0.000 A 
ATOM      8  N   UNL     1       8.211   7.084  19.056  0.00  0.00    +0.000 NA
BRANCH   3   9
ATOM      9  O   UNL     1       8.294   5.300  20.462  0.00  0.00    +0.000 OA
ATOM     10  H   UNL     1       9.218   5.510  20.661  0.00  0.00    +0.000 HD
ENDBRANCH   3   9
BRANCH   7  11
ATOM     11  O   UNL     1       8.146   8.854  17.597  0.00  0.00    +0.000 OA
ATOM     12  H   UNL     1       9.094   8.898  17.795  0.00  0.00    +0.000 HD
ENDBRANCH   7  11
ENDBRANCH   1   5
BRANCH   1  13
ATOM     13  C   UNL     1       5.408   5.015  15.486  0.00  0.00    +0.000 C 
BRANCH  13  14
ATOM     14  C   UNL     1       4.418   4.943  16.635  0.00  0.00    +0.000 A 
ATOM     15  C   UNL     1       3.973   3.711  17.123  0.00  0.00    +0.000 A 
ATOM     16  C   UNL     1       3.079   3.665  18.192  0.00  0.00    +0.000 A 
ATOM     17  C   UNL     1       2.607   4.846  18.773  0.00  0.00    +0.000 A 
ATOM     18 CL   UNL     1       1.507   4.689  20.100  0.00  0.00    +0.000 Cl
ATOM     19  C   UNL     1       3.011   6.106  18.292  0.00  0.00    +0.000 A 
ATOM     20  C   UNL     1       3.936   6.127  17.231  0.00  0.00    +0.000 A 
BRANCH  19  21
ATOM     21  C   UNL     1       2.424   7.357  18.908  0.00  0.00    +0.000 C 
ATOM     22 CL   UNL     1       1.775   8.558  17.770  0.00  0.00    +0.000 Cl
ENDBRANCH  19  21
ENDBRANCH  13  14
ENDBRANCH   1  13
TORSDOF 6
ENDMDL
MODEL 6
REMARK VINA RESULT:      -7.1      2.177      3.564
REMARK  Name = 
REMARK  6 active torsions:
REMARK  status: ('A' for Active; 'I' for Inactive)
REMARK    1  A    between atoms: O_1  and  C_2
REMARK    2  A    between atoms: C_4  and  N_5
REMARK    3  A    between atoms: N_5  and  C_6
REMARK    4  A    between atoms: C_6  and  C_7
REMARK    5  A    between atoms: C_12  and  C_13
REMARK    6  A    between atoms: C_17  and  O_18
REMARK                            x       y       z     vdW  Elec       q    Type
REMARK                         _______ _______ _______ _____ _____    ______ ____
ROOT
ATOM      1  N   UNL     1       4.662   7.446  17.642  0.00  0.00    +0.000 N 
ATOM      2  H   UNL     1       4.919   8.398  17.392  0.00  0.00    +0.000 HD
ENDROOT
BRANCH   1   5
ATOM      3  C   UNL     1       7.268   4.933  17.516  0.00  0.00    +0.000 A 
ATOM      4  C   UNL     1       6.370   5.833  18.037  0.00  0.00    +0.000 A 
ATOM      5  C   UNL     1       5.604   6.540  17.127  0.00  0.00    +0.000 A 
ATOM      6  N   UNL     1       5.714   6.335  15.806  0.00  0.00    +0.000 NA
ATOM      7  C   UNL     1       6.631   5.431  15.437  0.00  0.00    +0.000 A 
ATOM      8  N   UNL     1       7.431   4.713  16.213  0.00  0.00    +0.000 NA
BRANCH   3   9
ATOM      9  O   UNL     1       8.072   4.189  18.330  0.00  0.00    +0.000 OA
ATOM     10  H   UNL     1       7.543   3.852  19.068  0.00  0.00    +0.000 HD
ENDBRANCH   3   9
BRANCH   7  11
ATOM     11  O   UNL     1       6.733   5.245  14.093  0.00  0.00    +0.000 OA
ATOM     12  H   UNL     1       7.669   5.465  13.973  0.00  0.00    +0.000 HD
ENDBRANCH   7  11
ENDBRANCH   1   5
BRANCH   1  13
ATOM     13  C   UNL     1       3.266   7.172  17.330  0.00  0.00    +0.000 C 
BRANCH  13  14
ATOM     14  C   UNL     1       2.753   6.114  18.290  0.00  0.00    +0.000 A 
ATOM     15  C   UNL     1       2.419   6.442  19.608  0.00  0.00    +0.000 A 
ATOM     16  C   UNL     1       1.931   5.460  20.470  0.00  0.00    +0.000 A 
ATOM     17  C   UNL     1       1.786   4.141  20.031  0.00  0.00    +0.000 A 
ATOM     18 CL   UNL     1       1.165   2.993  21.169  0.00  0.00    +0.000 Cl
ATOM     19  C   UNL     1       2.136   3.766  18.720  0.00  0.00    +0.000 A 
ATOM     20  C   UNL     1       2.600   4.780  17.860  0.00  0.00    +0.000 A 
BRANCH  19  21
ATOM     21  C   UNL     1       2.025   2.314  18.310  0.00  0.00    +0.000 C 
ATOM     22 CL   UNL     1       3.532   1.371  18.358  0.00  0.00    +0.000 Cl
ENDBRANCH  19  21
ENDBRANCH  13  14
ENDBRANCH   1  13
TORSDOF 6
ENDMDL
MODEL 7
REMARK VINA RESULT:      -7.1      1.378      1.994
REMARK  Name = 
REMARK  6 active torsions:
REMARK  status: ('A' for Active; 'I' for Inactive)
REMARK    1  A    between atoms: O_1  and  C_2
REMARK    2  A    between atoms: C_4  and  N_5
REMARK    3  A    between atoms: N_5  and  C_6
REMARK    4  A    between atoms: C_6  and  C_7
REMARK    5  A    between atoms: C_12  and  C_13
REMARK    6  A    between atoms: C_17  and  O_18
REMARK                            x       y       z     vdW  Elec       q    Type
REMARK                         _______ _______ _______ _____ _____    ______ ____
ROOT
ATOM      1  N   UNL     1       6.154   3.763  16.746  0.00  0.00    +0.000 N 
ATOM      2  H   UNL     1       6.131   2.907  17.295  0.00  0.00    +0.000 HD
ENDROOT
BRANCH   1   5
ATOM      3  C   UNL     1       7.563   6.998  17.563  0.00  0.00    +0.000 A 
ATOM      4  C   UNL     1       6.938   6.010  16.841  0.00  0.00    +0.000 A 
ATOM      5  C   UNL     1       6.814   4.777  17.458  0.00  0.00    +0.000 A 
ATOM      6  N   UNL     1       7.256   4.569  18.707  0.00  0.00    +0.000 NA
ATOM      7  C   UNL     1       7.847   5.619  19.292  0.00  0.00    +0.000 A 
ATOM      8  N   UNL     1       8.041   6.832  18.794  0.00  0.00    +0.000 NA
BRANCH   3   9
ATOM      9  O   UNL     1       7.738   8.247  17.042  0.00  0.00    +0.000 OA
ATOM     10  H   UNL     1       8.285   8.765  17.650  0.00  0.00    +0.000 HD
ENDBRANCH   3   9
BRANCH   7  11
ATOM     11  O   UNL     1       8.296   5.383  20.555  0.00  0.00    +0.000 OA
ATOM     12  H   UNL     1       8.413   6.297  20.855  0.00  0.00    +0.000 HD
ENDBRANCH   7  11
ENDBRANCH   1   5
BRANCH   1  13
ATOM     13  C   UNL     1       4.837   4.093  16.221  0.00  0.00    +0.000 C 
BRANCH  13  14
ATOM     14  C   UNL     1       3.804   3.833  17.303  0.00  0.00    +0.000 A 
ATOM     15  C   UNL     1       2.460   4.165  17.106  0.00  0.00    +0.000 A 
ATOM     16  C   UNL     1       1.521   3.901  18.104  0.00  0.00    +0.000 A 
ATOM     17  C   UNL     1       1.917   3.321  19.312  0.00  0.00    +0.000 A 
ATOM     18 CL   UNL     1       0.681   3.023  20.488  0.00  0.00    +0.000 Cl
ATOM     19  C   UNL     1       3.264   2.997  19.559  0.00  0.00    +0.000 A 
ATOM     20  C   UNL     1       4.188   3.247  18.526  0.00  0.00    +0.000 A 
BRANCH  19  21
ATOM     21  C   UNL     1       3.656   2.431  20.906  0.00  0.00    +0.000 C 
ATOM     22 CL   UNL     1       5.107   1.404  20.930  0.00  0.00    +0.000 Cl
ENDBRANCH  19  21
ENDBRANCH  13  14
ENDBRANCH   1  13
TORSDOF 6
ENDMDL
MODEL 8
REMARK VINA RESULT:      -7.1      2.188      3.251
REMARK  Name = 
REMARK  6 active torsions:
REMARK  status: ('A' for Active; 'I' for Inactive)
REMARK    1  A    between atoms: O_1  and  C_2
REMARK    2  A    between atoms: C_4  and  N_5
REMARK    3  A    between atoms: N_5  and  C_6
REMARK    4  A    between atoms: C_6  and  C_7
REMARK    5  A    between atoms: C_12  and  C_13
REMARK    6  A    between atoms: C_17  and  O_18
REMARK                            x       y       z     vdW  Elec       q    Type
REMARK                         _______ _______ _______ _____ _____    ______ ____
ROOT
ATOM      1  N   UNL     1       4.816   7.123  17.709  0.00  0.00    +0.000 N 
ATOM      2  H   UNL     1       5.151   8.055  17.480  0.00  0.00    +0.000 HD
ENDROOT
BRANCH   1   5
ATOM      3  C   UNL     1       6.218   4.955  15.168  0.00  0.00    +0.000 A 
ATOM      4  C   UNL     1       5.398   5.887  15.758  0.00  0.00    +0.000 A 
ATOM      5  C   UNL     1       5.627   6.154  17.096  0.00  0.00    +0.000 A 
ATOM      6  N   UNL     1       6.616   5.553  17.774  0.00  0.00    +0.000 NA
ATOM      7  C   UNL     1       7.336   4.664  17.076  0.00  0.00    +0.000 A 
ATOM      8  N   UNL     1       7.195   4.314  15.805  0.00  0.00    +0.000 NA
BRANCH   3   9
ATOM      9  O   UNL     1       6.071   4.619  13.853  0.00  0.00    +0.000 OA
ATOM     10  H   UNL     1       6.785   4.014  13.605  0.00  0.00    +0.000 HD
ENDBRANCH   3   9
BRANCH   7  11
ATOM     11  O   UNL     1       8.328   4.060  17.784  0.00  0.00    +0.000 OA
ATOM     12  H   UNL     1       8.017   4.247  18.684  0.00  0.00    +0.000 HD
ENDBRANCH   7  11
ENDBRANCH   1   5
BRANCH   1  13
ATOM     13  C   UNL     1       3.382   7.002  17.483  0.00  0.00    +0.000 C 
BRANCH  13  14
ATOM     14  C   UNL     1       2.824   5.972  18.448  0.00  0.00    +0.000 A 
ATOM     15  C   UNL     1       2.452   6.332  19.747  0.00  0.00    +0.000 A 
ATOM     16  C   UNL     1       1.923   5.376  20.614  0.00  0.00    +0.000 A 
ATOM     17  C   UNL     1       1.774   4.050  20.199  0.00  0.00    +0.000 A 
ATOM     18 CL   UNL     1       1.101   2.936  21.340  0.00  0.00    +0.000 Cl
ATOM     19  C   UNL     1       2.162   3.642  18.908  0.00  0.00    +0.000 A 
ATOM     20  C   UNL     1       2.667   4.630  18.043  0.00  0.00    +0.000 A 
BRANCH  19  21
ATOM     21  C   UNL     1       2.044   2.183  18.525  0.00  0.00    +0.000 C 
ATOM     22 CL   UNL     1       3.576   1.307  18.305  0.00  0.00    +0.000 Cl
ENDBRANCH  19  21
ENDBRANCH  13  14
ENDBRANCH   1  13
TORSDOF 6
ENDMDL
MODEL 9
REMARK VINA RESULT:      -7.1      2.086      2.997
REMARK  Name = 
REMARK  6 active torsions:
REMARK  status: ('A' for Active; 'I' for Inactive)
REMARK    1  A    between atoms: O_1  and  C_2
REMARK    2  A    between atoms: C_4  and  N_5
REMARK    3  A    between atoms: N_5  and  C_6
REMARK    4  A    between atoms: C_6  and  C_7
REMARK    5  A    between atoms: C_12  and  C_13
REMARK    6  A    between atoms: C_17  and  O_18
REMARK                            x       y       z     vdW  Elec       q    Type
REMARK                         _______ _______ _______ _____ _____    ______ ____
ROOT
ATOM      1  N   UNL     1       4.233   3.537  18.314  0.00  0.00    +0.000 N 
ATOM      2  H   UNL     1       4.087   3.329  19.298  0.00  0.00    +0.000 HD
ENDROOT
BRANCH   1   5
ATOM      3  C   UNL     1       6.949   5.314  16.706  0.00  0.00    +0.000 A 
ATOM      4  C   UNL     1       5.784   4.600  16.852  0.00  0.00    +0.000 A 
ATOM      5  C   UNL     1       5.434   4.245  18.143  0.00  0.00    +0.000 A 
ATOM      6  N   UNL     1       6.180   4.604  19.198  0.00  0.00    +0.000 NA
ATOM      7  C   UNL     1       7.290   5.296  18.910  0.00  0.00    +0.000 A 
ATOM      8  N   UNL     1       7.735   5.672  17.719  0.00  0.00    +0.000 NA
BRANCH   3   9
ATOM      9  O   UNL     1       7.383   5.710  15.474  0.00  0.00    +0.000 OA
ATOM     10  H   UNL     1       7.309   4.963  14.863  0.00  0.00    +0.000 HD
ENDBRANCH   3   9
BRANCH   7  11
ATOM     11  O   UNL     1       8.037   5.643  19.993  0.00  0.00    +0.000 OA
ATOM     12  H   UNL     1       8.395   4.772  20.224  0.00  0.00    +0.000 HD
ENDBRANCH   7  11
ENDBRANCH   1   5
BRANCH   1  13
ATOM     13  C   UNL     1       3.045   4.127  17.713  0.00  0.00    +0.000 C 
BRANCH  13  14
ATOM     14  C   UNL     1       2.597   5.297  18.570  0.00  0.00    +0.000 A 
ATOM     15  C   UNL     1       2.219   5.108  19.903  0.00  0.00    +0.000 A 
ATOM     16  C   UNL     1       1.829   6.198  20.681  0.00  0.00    +0.000 A 
ATOM     17  C   UNL     1       1.795   7.483  20.132  0.00  0.00    +0.000 A 
ATOM     18 CL   UNL     1       1.306   8.775  21.175  0.00  0.00    +0.000 Cl
ATOM     19  C   UNL     1       2.141   7.711  18.787  0.00  0.00    +0.000 A 
ATOM     20  C   UNL     1       2.559   6.599  18.030  0.00  0.00    +0.000 A 
BRANCH  19  21
ATOM     21  C   UNL     1       2.026   9.108  18.218  0.00  0.00    +0.000 C 
ATOM     22 CL   UNL     1       0.375   9.716  17.967  0.00  0.00    +0.000 Cl
ENDBRANCH  19  21
ENDBRANCH  13  14
ENDBRANCH   1  13
TORSDOF 6
ENDMDL
