MODEL 1
REMARK VINA RESULT:      -9.0      0.000      0.000
REMARK  Name = 
REMARK  5 active torsions:
REMARK  status: ('A' for Active; 'I' for Inactive)
REMARK    1  A    between atoms: N_3  and  C_4
REMARK    2  A    between atoms: N_14  and  C_15
REMARK    3  A    between atoms: C_15  and  C_16
REMARK    4  A    between atoms: C_15  and  C_26
REMARK    5  A    between atoms: C_19  and  C_20
REMARK                            x       y       z     vdW  Elec       q    Type
REMARK                         _______ _______ _______ _____ _____    ______ ____
ROOT
ATOM      1  O   UNL     1       8.465   7.486  18.579  0.00  0.00    +0.000 OA
ATOM      2  C   UNL     1       7.793   8.167  17.816  0.00  0.00    +0.000 C 
ATOM      3  N   UNL     1       7.847   9.542  17.665  0.00  0.00    +0.000 N 
ATOM      4  N   UNL     1       6.862   7.609  16.956  0.00  0.00    +0.000 N 
ATOM      5  H   UNL     1       7.148   9.933  17.060  0.00  0.00    +0.000 HD
ATOM      6  H   UNL     1       6.119   8.206  16.639  0.00  0.00    +0.000 HD
ENDROOT
BRANCH   3   7
ATOM      7  C   UNL     1       8.693  10.463  18.347  0.00  0.00    +0.000 A 
ATOM      8  C   UNL     1       9.704  10.014  19.208  0.00  0.00    +0.000 A 
ATOM      9  C   UNL     1      10.509  10.908  19.913  0.00  0.00    +0.000 A 
ATOM     10  C   UNL     1      10.316  12.274  19.771  0.00  0.00    +0.000 A 
ATOM     11  C   UNL     1       9.335  12.763  18.898  0.00  0.00    +0.000 A 
ATOM     12  C   UNL     1       9.147  14.139  18.747  0.00  0.00    +0.000 A 
ATOM     13  N   UNL     1       8.242  14.707  17.921  0.00  0.00    +0.000 NA
ATOM     14  C   UNL     1       7.484  13.862  17.205  0.00  0.00    +0.000 A 
ATOM     15  C   UNL     1       7.579  12.476  17.285  0.00  0.00    +0.000 A 
ATOM     16  C   UNL     1       8.517  11.874  18.154  0.00  0.00    +0.000 A 
ENDBRANCH   3   7
BRANCH   4  17
ATOM     17  C   UNL     1       6.547   6.175  16.981  0.00  0.00    +0.000 C 
BRANCH  17  18
ATOM     18  C   UNL     1       5.399   5.949  17.966  0.00  0.00    +0.000 A 
ATOM     19  C   UNL     1       5.438   4.957  18.959  0.00  0.00    +0.000 A 
ATOM     20  C   UNL     1       4.331   4.707  19.775  0.00  0.00    +0.000 A 
ATOM     21  C   UNL     1       3.143   5.429  19.609  0.00  0.00    +0.000 A 
ATOM     22  C   UNL     1       3.105   6.444  18.643  0.00  0.00    +0.000 A 
ATOM     23  C   UNL     1       4.218   6.701  17.834  0.00  0.00    +0.000 A 
BRANCH  21  24
ATOM     24  C   UNL     1       1.913   5.096  20.416  0.00  0.00    +0.000 C 
ATOM     25  F   UNL     1       0.997   4.355  19.728  0.00  0.00    +0.000 F 
ATOM     26  F   UNL     1       2.194   4.387  21.544  0.00  0.00    +0.000 F 
ATOM     27  F   UNL     1       1.247   6.211  20.829  0.00  0.00    +0.000 F 
ENDBRANCH  21  24
ENDBRANCH  17  18
BRANCH  17  28
ATOM     28  C   UNL     1       6.244   5.689  15.544  0.00  0.00    +0.000 C 
ATOM     29  C   UNL     1       7.456   5.088  14.821  0.00  0.00    +0.000 C 
ATOM     30  C   UNL     1       6.830   4.422  13.600  0.00  0.00    +0.000 C 
ATOM     31  C   UNL     1       5.449   3.953  14.055  0.00  0.00    +0.000 C 
ATOM     32  C   UNL     1       5.235   4.543  15.448  0.00  0.00    +0.000 C 
ENDBRANCH  17  28
ENDBRANCH   4  17
TORSDOF 5
ENDMDL
MODEL 2
REMARK VINA RESULT:      -8.9      0.299      1.150
REMARK  Name = 
REMARK  5 active torsions:
REMARK  status: ('A' for Active; 'I' for Inactive)
REMARK    1  A    between atoms: N_3  and  C_4
REMARK    2  A    between atoms: N_14  and  C_15
REMARK    3  A    between atoms: C_15  and  C_16
REMARK    4  A    between atoms: C_15  and  C_26
REMARK    5  A    between atoms: C_19  and  C_20
REMARK                            x       y       z     vdW  Elec       q    Type
REMARK                         _______ _______ _______ _____ _____    ______ ____
ROOT
ATOM      1  O   UNL     1       8.263   7.306  18.526  0.00  0.00    +0.000 OA
ATOM      2  C   UNL     1       7.653   8.014  17.735  0.00  0.00    +0.000 C 
ATOM      3  N   UNL     1       7.740   9.390  17.615  0.00  0.00    +0.000 N 
ATOM      4  N   UNL     1       6.768   7.489  16.809  0.00  0.00    +0.000 N 
ATOM      5  H   UNL     1       7.088   9.805  16.974  0.00  0.00    +0.000 HD
ATOM      6  H   UNL     1       6.057   8.105  16.456  0.00  0.00    +0.000 HD
ENDROOT
BRANCH   3   7
ATOM      7  C   UNL     1       8.558  10.282  18.365  0.00  0.00    +0.000 A 
ATOM      8  C   UNL     1       9.498   9.798  19.287  0.00  0.00    +0.000 A 
ATOM      9  C   UNL     1      10.272  10.665  20.059  0.00  0.00    +0.000 A 
ATOM     10  C   UNL     1      10.120  12.037  19.923  0.00  0.00    +0.000 A 
ATOM     11  C   UNL     1       9.212  12.559  18.992  0.00  0.00    +0.000 A 
ATOM     12  C   UNL     1       9.066  13.941  18.849  0.00  0.00    +0.000 A 
ATOM     13  N   UNL     1       8.232  14.541  17.972  0.00  0.00    +0.000 NA
ATOM     14  C   UNL     1       7.506  13.722  17.193  0.00  0.00    +0.000 A 
ATOM     15  C   UNL     1       7.564  12.334  17.259  0.00  0.00    +0.000 A 
ATOM     16  C   UNL     1       8.427  11.699  18.181  0.00  0.00    +0.000 A 
ENDBRANCH   3   7
BRANCH   4  17
ATOM     17  C   UNL     1       6.427   6.060  16.786  0.00  0.00    +0.000 C 
BRANCH  17  18
ATOM     18  C   UNL     1       5.207   5.841  17.683  0.00  0.00    +0.000 A 
ATOM     19  C   UNL     1       4.071   6.665  17.629  0.00  0.00    +0.000 A 
ATOM     20  C   UNL     1       3.018   6.504  18.533  0.00  0.00    +0.000 A 
ATOM     21  C   UNL     1       3.077   5.525  19.532  0.00  0.00    +0.000 A 
ATOM     22  C   UNL     1       4.192   4.676  19.574  0.00  0.00    +0.000 A 
ATOM     23  C   UNL     1       5.241   4.832  18.660  0.00  0.00    +0.000 A 
BRANCH  21  24
ATOM     24  C   UNL     1       1.991   5.412  20.574  0.00  0.00    +0.000 C 
ATOM     25  F   UNL     1       2.392   4.768  21.707  0.00  0.00    +0.000 F 
ATOM     26  F   UNL     1       1.518   6.622  20.980  0.00  0.00    +0.000 F 
ATOM     27  F   UNL     1       0.909   4.718  20.120  0.00  0.00    +0.000 F 
ENDBRANCH  21  24
ENDBRANCH  17  18
BRANCH  17  28
ATOM     28  C   UNL     1       6.219   5.604  15.323  0.00  0.00    +0.000 C 
ATOM     29  C   UNL     1       7.501   5.122  14.632  0.00  0.00    +0.000 C 
ATOM     30  C   UNL     1       6.977   4.453  13.366  0.00  0.00    +0.000 C 
ATOM     31  C   UNL     1       5.620   3.865  13.747  0.00  0.00    +0.000 C 
ATOM     32  C   UNL     1       5.306   4.389  15.148  0.00  0.00    +0.000 C 
ENDBRANCH  17  28
ENDBRANCH   4  17
TORSDOF 5
ENDMDL
MODEL 3
REMARK VINA RESULT:      -8.5      5.943      9.420
REMARK  Name = 
REMARK  5 active torsions:
REMARK  status: ('A' for Active; 'I' for Inactive)
REMARK    1  A    between atoms: N_3  and  C_4
REMARK    2  A    between atoms: N_14  and  C_15
REMARK    3  A    between atoms: C_15  and  C_16
REMARK    4  A    between atoms: C_15  and  C_26
REMARK    5  A    between atoms: C_19  and  C_20
REMARK                            x       y       z     vdW  Elec       q    Type
REMARK                         _______ _______ _______ _____ _____    ______ ____
ROOT
ATOM      1  O   UNL     1       2.143   9.120  17.147  0.00  0.00    +0.000 OA
ATOM      2  C   UNL     1       1.797   8.945  18.308  0.00  0.00    +0.000 C 
ATOM      3  N   UNL     1       2.113   7.865  19.114  0.00  0.00    +0.000 N 
ATOM      4  N   UNL     1       1.019   9.864  18.992  0.00  0.00    +0.000 N 
ATOM      5  H   UNL     1       1.655   7.850  20.007  0.00  0.00    +0.000 HD
ATOM      6  H   UNL     1       0.484   9.521  19.769  0.00  0.00    +0.000 HD
ENDROOT
BRANCH   3   7
ATOM      7  C   UNL     1       2.912   6.733  18.784  0.00  0.00    +0.000 A 
ATOM      8  C   UNL     1       3.844   6.787  17.738  0.00  0.00    +0.000 A 
ATOM      9  C   UNL     1       4.599   5.671  17.378  0.00  0.00    +0.000 A 
ATOM     10  C   UNL     1       4.435   4.474  18.061  0.00  0.00    +0.000 A 
ATOM     11  C   UNL     1       3.534   4.388  19.131  0.00  0.00    +0.000 A 
ATOM     12  C   UNL     1       3.377   3.186  19.825  0.00  0.00    +0.000 A 
ATOM     13  N   UNL     1       2.548   3.006  20.876  0.00  0.00    +0.000 NA
ATOM     14  C   UNL     1       1.842   4.081  21.262  0.00  0.00    +0.000 A 
ATOM     15  C   UNL     1       1.912   5.321  20.637  0.00  0.00    +0.000 A 
ATOM     16  C   UNL     1       2.770   5.515  19.529  0.00  0.00    +0.000 A 
ENDBRANCH   3   7
BRANCH   4  17
ATOM     17  C   UNL     1       0.474  11.059  18.334  0.00  0.00    +0.000 C 
BRANCH  17  18
ATOM     18  C   UNL     1      -1.053  10.983  18.385  0.00  0.00    +0.000 A 
ATOM     19  C   UNL     1      -1.792  10.071  17.613  0.00  0.00    +0.000 A 
ATOM     20  C   UNL     1      -3.189  10.098  17.603  0.00  0.00    +0.000 A 
ATOM     21  C   UNL     1      -3.891  11.051  18.350  0.00  0.00    +0.000 A 
ATOM     22  C   UNL     1      -3.164  11.944  19.150  0.00  0.00    +0.000 A 
ATOM     23  C   UNL     1      -1.764  11.909  19.167  0.00  0.00    +0.000 A 
BRANCH  21  24
ATOM     24  C   UNL     1      -5.393  11.152  18.265  0.00  0.00    +0.000 C 
ATOM     25  F   UNL     1      -6.039  10.040  18.721  0.00  0.00    +0.000 F 
ATOM     26  F   UNL     1      -5.896  12.195  18.982  0.00  0.00    +0.000 F 
ATOM     27  F   UNL     1      -5.829  11.331  16.986  0.00  0.00    +0.000 F 
ENDBRANCH  21  24
ENDBRANCH  17  18
BRANCH  17  28
ATOM     28  C   UNL     1       1.061  12.326  18.998  0.00  0.00    +0.000 C 
ATOM     29  C   UNL     1       1.499  12.121  20.454  0.00  0.00    +0.000 C 
ATOM     30  C   UNL     1       2.305  13.381  20.750  0.00  0.00    +0.000 C 
ATOM     31  C   UNL     1       2.961  13.765  19.426  0.00  0.00    +0.000 C 
ATOM     32  C   UNL     1       2.352  12.850  18.365  0.00  0.00    +0.000 C 
ENDBRANCH  17  28
ENDBRANCH   4  17
TORSDOF 5
ENDMDL
MODEL 4
REMARK VINA RESULT:      -8.5      5.416      7.547
REMARK  Name = 
REMARK  5 active torsions:
REMARK  status: ('A' for Active; 'I' for Inactive)
REMARK    1  A    between atoms: N_3  and  C_4
REMARK    2  A    between atoms: N_14  and  C_15
REMARK    3  A    between atoms: C_15  and  C_16
REMARK    4  A    between atoms: C_15  and  C_26
REMARK    5  A    between atoms: C_19  and  C_20
REMARK                            x       y       z     vdW  Elec       q    Type
REMARK                         _______ _______ _______ _____ _____    ______ ____
ROOT
ATOM      1  O   UNL     1       0.149   7.017  20.742  0.00  0.00    +0.000 OA
ATOM      2  C   UNL     1       1.220   7.580  20.558  0.00  0.00    +0.000 C 
ATOM      3  N   UNL     1       1.543   8.881  20.901  0.00  0.00    +0.000 N 
ATOM      4  N   UNL     1       2.297   6.939  19.969  0.00  0.00    +0.000 N 
ATOM      5  H   UNL     1       2.440   9.197  20.580  0.00  0.00    +0.000 HD
ATOM      6  H   UNL     1       2.989   7.520  19.528  0.00  0.00    +0.000 HD
ENDROOT
BRANCH   3   7
ATOM      7  C   UNL     1       0.717   9.845  21.546  0.00  0.00    +0.000 A 
ATOM      8  C   UNL     1      -0.006   9.518  22.703  0.00  0.00    +0.000 A 
ATOM      9  C   UNL     1      -0.852  10.441  23.317  0.00  0.00    +0.000 A 
ATOM     10  C   UNL     1      -0.992  11.714  22.784  0.00  0.00    +0.000 A 
ATOM     11  C   UNL     1      -0.265  12.088  21.646  0.00  0.00    +0.000 A 
ATOM     12  C   UNL     1      -0.398  13.373  21.115  0.00  0.00    +0.000 A 
ATOM     13  N   UNL     1       0.269  13.833  20.034  0.00  0.00    +0.000 NA
ATOM     14  C   UNL     1       1.117  12.971  19.452  0.00  0.00    +0.000 A 
ATOM     15  C   UNL     1       1.320  11.666  19.891  0.00  0.00    +0.000 A 
ATOM     16  C   UNL     1       0.618  11.174  21.015  0.00  0.00    +0.000 A 
ENDBRANCH   3   7
BRANCH   4  17
ATOM     17  C   UNL     1       2.189   5.576  19.432  0.00  0.00    +0.000 C 
BRANCH  17  18
ATOM     18  C   UNL     1       3.321   5.363  18.425  0.00  0.00    +0.000 A 
ATOM     19  C   UNL     1       3.345   4.280  17.531  0.00  0.00    +0.000 A 
ATOM     20  C   UNL     1       4.443   4.055  16.698  0.00  0.00    +0.000 A 
ATOM     21  C   UNL     1       5.562   4.895  16.746  0.00  0.00    +0.000 A 
ATOM     22  C   UNL     1       5.534   5.998  17.611  0.00  0.00    +0.000 A 
ATOM     23  C   UNL     1       4.429   6.229  18.438  0.00  0.00    +0.000 A 
BRANCH  21  24
ATOM     24  C   UNL     1       6.792   4.600  15.924  0.00  0.00    +0.000 C 
ATOM     25  F   UNL     1       7.278   5.690  15.264  0.00  0.00    +0.000 F 
ATOM     26  F   UNL     1       7.826   4.124  16.670  0.00  0.00    +0.000 F 
ATOM     27  F   UNL     1       6.559   3.663  14.962  0.00  0.00    +0.000 F 
ENDBRANCH  21  24
ENDBRANCH  17  18
BRANCH  17  28
ATOM     28  C   UNL     1       2.189   4.561  20.598  0.00  0.00    +0.000 C 
ATOM     29  C   UNL     1       0.969   3.631  20.615  0.00  0.00    +0.000 C 
ATOM     30  C   UNL     1       1.366   2.565  21.630  0.00  0.00    +0.000 C 
ATOM     31  C   UNL     1       2.882   2.424  21.502  0.00  0.00    +0.000 C 
ATOM     32  C   UNL     1       3.339   3.553  20.578  0.00  0.00    +0.000 C 
ENDBRANCH  17  28
ENDBRANCH   4  17
TORSDOF 5
ENDMDL
MODEL 5
REMARK VINA RESULT:      -8.5      6.105      9.686
REMARK  Name = 
REMARK  5 active torsions:
REMARK  status: ('A' for Active; 'I' for Inactive)
REMARK    1  A    between atoms: N_3  and  C_4
REMARK    2  A    between atoms: N_14  and  C_15
REMARK    3  A    between atoms: C_15  and  C_16
REMARK    4  A    between atoms: C_15  and  C_26
REMARK    5  A    between atoms: C_19  and  C_20
REMARK                            x       y       z     vdW  Elec       q    Type
REMARK                         _______ _______ _______ _____ _____    ______ ____
ROOT
ATOM      1  O   UNL     1       1.629   9.283  17.832  0.00  0.00    +0.000 OA
ATOM      2  C   UNL     1       1.576   8.994  19.020  0.00  0.00    +0.000 C 
ATOM      3  N   UNL     1       2.012   7.819  19.609  0.00  0.00    +0.000 N 
ATOM      4  N   UNL     1       1.061   9.863  19.968  0.00  0.00    +0.000 N 
ATOM      5  H   UNL     1       1.794   7.724  20.584  0.00  0.00    +0.000 HD
ATOM      6  H   UNL     1       0.718   9.457  20.820  0.00  0.00    +0.000 HD
ENDROOT
BRANCH   3   7
ATOM      7  C   UNL     1       2.622   6.699  18.975  0.00  0.00    +0.000 A 
ATOM      8  C   UNL     1       3.536   6.872  17.926  0.00  0.00    +0.000 A 
ATOM      9  C   UNL     1       4.106   5.781  17.270  0.00  0.00    +0.000 A 
ATOM     10  C   UNL     1       3.769   4.490  17.652  0.00  0.00    +0.000 A 
ATOM     11  C   UNL     1       2.882   4.276  18.715  0.00  0.00    +0.000 A 
ATOM     12  C   UNL     1       2.551   2.977  19.106  0.00  0.00    +0.000 A 
ATOM     13  N   UNL     1       1.720   2.667  20.125  0.00  0.00    +0.000 NA
ATOM     14  C   UNL     1       1.193   3.704  20.793  0.00  0.00    +0.000 A 
ATOM     15  C   UNL     1       1.444   5.037  20.482  0.00  0.00    +0.000 A 
ATOM     16  C   UNL     1       2.305   5.370  19.411  0.00  0.00    +0.000 A 
ENDBRANCH   3   7
BRANCH   4  17
ATOM     17  C   UNL     1       0.450  11.144  19.592  0.00  0.00    +0.000 C 
BRANCH  17  18
ATOM     18  C   UNL     1      -0.504  11.569  20.710  0.00  0.00    +0.000 A 
ATOM     19  C   UNL     1      -0.438  11.033  22.006  0.00  0.00    +0.000 A 
ATOM     20  C   UNL     1      -1.389  11.363  22.975  0.00  0.00    +0.000 A 
ATOM     21  C   UNL     1      -2.449  12.226  22.671  0.00  0.00    +0.000 A 
ATOM     22  C   UNL     1      -2.506  12.792  21.389  0.00  0.00    +0.000 A 
ATOM     23  C   UNL     1      -1.546  12.469  20.424  0.00  0.00    +0.000 A 
BRANCH  21  24
ATOM     24  C   UNL     1      -3.535  12.507  23.679  0.00  0.00    +0.000 C 
ATOM     25  F   UNL     1      -4.740  12.801  23.111  0.00  0.00    +0.000 F 
ATOM     26  F   UNL     1      -3.765  11.459  24.517  0.00  0.00    +0.000 F 
ATOM     27  F   UNL     1      -3.237  13.569  24.479  0.00  0.00    +0.000 F 
ENDBRANCH  21  24
ENDBRANCH  17  18
BRANCH  17  28
ATOM     28  C   UNL     1       1.562  12.177  19.291  0.00  0.00    +0.000 C 
ATOM     29  C   UNL     1       1.140  13.279  18.312  0.00  0.00    +0.000 C 
ATOM     30  C   UNL     1       2.266  14.299  18.439  0.00  0.00    +0.000 C 
ATOM     31  C   UNL     1       2.737  14.208  19.889  0.00  0.00    +0.000 C 
ATOM     32  C   UNL     1       2.022  13.001  20.495  0.00  0.00    +0.000 C 
ENDBRANCH  17  28
ENDBRANCH   4  17
TORSDOF 5
ENDMDL
MODEL 6
REMARK VINA RESULT:      -8.5      5.663      9.326
REMARK  Name = 
REMARK  5 active torsions:
REMARK  status: ('A' for Active; 'I' for Inactive)
REMARK    1  A    between atoms: N_3  and  C_4
REMARK    2  A    between atoms: N_14  and  C_15
REMARK    3  A    between atoms: C_15  and  C_16
REMARK    4  A    between atoms: C_15  and  C_26
REMARK    5  A    between atoms: C_19  and  C_20
REMARK                            x       y       z     vdW  Elec       q    Type
REMARK                         _______ _______ _______ _____ _____    ______ ____
ROOT
ATOM      1  O   UNL     1       2.244   7.866  19.916  0.00  0.00    +0.000 OA
ATOM      2  C   UNL     1       2.093   8.175  18.741  0.00  0.00    +0.000 C 
ATOM      3  N   UNL     1       2.699   7.586  17.644  0.00  0.00    +0.000 N 
ATOM      4  N   UNL     1       1.240   9.193  18.350  0.00  0.00    +0.000 N 
ATOM      5  H   UNL     1       2.527   8.041  16.766  0.00  0.00    +0.000 HD
ATOM      6  H   UNL     1       1.424   9.627  17.463  0.00  0.00    +0.000 HD
ENDROOT
BRANCH   3   7
ATOM      7  C   UNL     1       3.615   6.495  17.633  0.00  0.00    +0.000 A 
ATOM      8  C   UNL     1       4.992   6.710  17.485  0.00  0.00    +0.000 A 
ATOM      9  C   UNL     1       5.892   5.646  17.429  0.00  0.00    +0.000 A 
ATOM     10  C   UNL     1       5.429   4.341  17.519  0.00  0.00    +0.000 A 
ATOM     11  C   UNL     1       4.063   4.087  17.697  0.00  0.00    +0.000 A 
ATOM     12  C   UNL     1       3.598   2.774  17.799  0.00  0.00    +0.000 A 
ATOM     13  N   UNL     1       2.306   2.426  17.985  0.00  0.00    +0.000 NA
ATOM     14  C   UNL     1       1.430   3.439  18.081  0.00  0.00    +0.000 A 
ATOM     15  C   UNL     1       1.781   4.781  17.983  0.00  0.00    +0.000 A 
ATOM     16  C   UNL     1       3.130   5.153  17.778  0.00  0.00    +0.000 A 
ENDBRANCH   3   7
BRANCH   4  17
ATOM     17  C   UNL     1       0.542  10.037  19.329  0.00  0.00    +0.000 C 
BRANCH  17  18
ATOM     18  C   UNL     1       1.283  11.372  19.431  0.00  0.00    +0.000 A 
ATOM     19  C   UNL     1       1.309  12.134  20.610  0.00  0.00    +0.000 A 
ATOM     20  C   UNL     1       1.905  13.398  20.640  0.00  0.00    +0.000 A 
ATOM     21  C   UNL     1       2.477  13.946  19.486  0.00  0.00    +0.000 A 
ATOM     22  C   UNL     1       2.486  13.179  18.313  0.00  0.00    +0.000 A 
ATOM     23  C   UNL     1       1.898  11.909  18.287  0.00  0.00    +0.000 A 
BRANCH  21  24
ATOM     24  C   UNL     1       3.031  15.349  19.486  0.00  0.00    +0.000 C 
ATOM     25  F   UNL     1       3.584  15.714  18.293  0.00  0.00    +0.000 F 
ATOM     26  F   UNL     1       2.089  16.292  19.763  0.00  0.00    +0.000 F 
ATOM     27  F   UNL     1       4.016  15.518  20.413  0.00  0.00    +0.000 F 
ENDBRANCH  21  24
ENDBRANCH  17  18
BRANCH  17  28
ATOM     28  C   UNL     1      -0.944  10.175  18.923  0.00  0.00    +0.000 C 
ATOM     29  C   UNL     1      -1.513  11.587  19.113  0.00  0.00    +0.000 C 
ATOM     30  C   UNL     1      -2.840  11.525  18.363  0.00  0.00    +0.000 C 
ATOM     31  C   UNL     1      -2.609  10.555  17.206  0.00  0.00    +0.000 C 
ATOM     32  C   UNL     1      -1.235   9.927  17.442  0.00  0.00    +0.000 C 
ENDBRANCH  17  28
ENDBRANCH   4  17
TORSDOF 5
ENDMDL
MODEL 7
REMARK VINA RESULT:      -8.5      5.550      9.265
REMARK  Name = 
REMARK  5 active torsions:
REMARK  status: ('A' for Active; 'I' for Inactive)
REMARK    1  A    between atoms: N_3  and  C_4
REMARK    2  A    between atoms: N_14  and  C_15
REMARK    3  A    between atoms: C_15  and  C_16
REMARK    4  A    between atoms: C_15  and  C_26
REMARK    5  A    between atoms: C_19  and  C_20
REMARK                            x       y       z     vdW  Elec       q    Type
REMARK                         _______ _______ _______ _____ _____    ______ ____
ROOT
ATOM      1  O   UNL     1       2.233   7.836  19.863  0.00  0.00    +0.000 OA
ATOM      2  C   UNL     1       2.139   8.186  18.694  0.00  0.00    +0.000 C 
ATOM      3  N   UNL     1       2.779   7.619  17.605  0.00  0.00    +0.000 N 
ATOM      4  N   UNL     1       1.325   9.235  18.302  0.00  0.00    +0.000 N 
ATOM      5  H   UNL     1       2.654   8.106  16.736  0.00  0.00    +0.000 HD
ATOM      6  H   UNL     1       1.556   9.694  17.438  0.00  0.00    +0.000 HD
ENDROOT
BRANCH   3   7
ATOM      7  C   UNL     1       3.670   6.509  17.597  0.00  0.00    +0.000 A 
ATOM      8  C   UNL     1       5.052   6.693  17.443  0.00  0.00    +0.000 A 
ATOM      9  C   UNL     1       5.929   5.610  17.389  0.00  0.00    +0.000 A 
ATOM     10  C   UNL     1       5.438   4.316  17.488  0.00  0.00    +0.000 A 
ATOM     11  C   UNL     1       4.067   4.092  17.671  0.00  0.00    +0.000 A 
ATOM     12  C   UNL     1       3.574   2.790  17.781  0.00  0.00    +0.000 A 
ATOM     13  N   UNL     1       2.276   2.471  17.975  0.00  0.00    +0.000 NA
ATOM     14  C   UNL     1       1.422   3.502  18.068  0.00  0.00    +0.000 A 
ATOM     15  C   UNL     1       1.802   4.836  17.962  0.00  0.00    +0.000 A 
ATOM     16  C   UNL     1       3.158   5.178  17.750  0.00  0.00    +0.000 A 
ENDBRANCH   3   7
BRANCH   4  17
ATOM     17  C   UNL     1       0.604  10.063  19.278  0.00  0.00    +0.000 C 
BRANCH  17  18
ATOM     18  C   UNL     1       1.285  11.430  19.348  0.00  0.00    +0.000 A 
ATOM     19  C   UNL     1       1.961  11.996  18.255  0.00  0.00    +0.000 A 
ATOM     20  C   UNL     1       2.663  13.197  18.382  0.00  0.00    +0.000 A 
ATOM     21  C   UNL     1       2.727  13.862  19.612  0.00  0.00    +0.000 A 
ATOM     22  C   UNL     1       2.028  13.322  20.702  0.00  0.00    +0.000 A 
ATOM     23  C   UNL     1       1.316  12.124  20.570  0.00  0.00    +0.000 A 
BRANCH  21  24
ATOM     24  C   UNL     1       3.565  15.104  19.782  0.00  0.00    +0.000 C 
ATOM     25  F   UNL     1       2.943  16.086  20.495  0.00  0.00    +0.000 F 
ATOM     26  F   UNL     1       4.742  14.866  20.425  0.00  0.00    +0.000 F 
ATOM     27  F   UNL     1       3.897  15.671  18.588  0.00  0.00    +0.000 F 
ENDBRANCH  21  24
ENDBRANCH  17  18
BRANCH  17  28
ATOM     28  C   UNL     1      -0.893  10.127  18.892  0.00  0.00    +0.000 C 
ATOM     29  C   UNL     1      -1.508  11.527  19.014  0.00  0.00    +0.000 C 
ATOM     30  C   UNL     1      -2.843  11.379  18.293  0.00  0.00    +0.000 C 
ATOM     31  C   UNL     1      -2.597  10.355  17.187  0.00  0.00    +0.000 C 
ATOM     32  C   UNL     1      -1.199   9.789  17.431  0.00  0.00    +0.000 C 
ENDBRANCH  17  28
ENDBRANCH   4  17
TORSDOF 5
ENDMDL
MODEL 8
REMARK VINA RESULT:      -8.4      4.879      7.176
REMARK  Name = 
REMARK  5 active torsions:
REMARK  status: ('A' for Active; 'I' for Inactive)
REMARK    1  A    between atoms: N_3  and  C_4
REMARK    2  A    between atoms: N_14  and  C_15
REMARK    3  A    between atoms: C_15  and  C_16
REMARK    4  A    between atoms: C_15  and  C_26
REMARK    5  A    between atoms: C_19  and  C_20
REMARK                            x       y       z     vdW  Elec       q    Type
REMARK                         _______ _______ _______ _____ _____    ______ ____
ROOT
ATOM      1  O   UNL     1       1.956   8.738  19.753  0.00  0.00    +0.000 OA
ATOM      2  C   UNL     1       1.873   8.893  18.542  0.00  0.00    +0.000 C 
ATOM      3  N   UNL     1       0.962   9.689  17.868  0.00  0.00    +0.000 N 
ATOM      4  N   UNL     1       2.738   8.270  17.658  0.00  0.00    +0.000 N 
ATOM      5  H   UNL     1       0.986   9.611  16.868  0.00  0.00    +0.000 HD
ATOM      6  H   UNL     1       2.414   8.142  16.716  0.00  0.00    +0.000 HD
ENDROOT
BRANCH   3   7
ATOM      7  C   UNL     1      -0.064  10.505  18.424  0.00  0.00    +0.000 A 
ATOM      8  C   UNL     1       0.182  11.311  19.544  0.00  0.00    +0.000 A 
ATOM      9  C   UNL     1      -0.827  12.080  20.123  0.00  0.00    +0.000 A 
ATOM     10  C   UNL     1      -2.108  12.056  19.590  0.00  0.00    +0.000 A 
ATOM     11  C   UNL     1      -2.386  11.285  18.453  0.00  0.00    +0.000 A 
ATOM     12  C   UNL     1      -3.673  11.269  17.910  0.00  0.00    +0.000 A 
ATOM     13  N   UNL     1      -4.038  10.572  16.812  0.00  0.00    +0.000 NA
ATOM     14  C   UNL     1      -3.069   9.857  16.219  0.00  0.00    +0.000 A 
ATOM     15  C   UNL     1      -1.758   9.792  16.680  0.00  0.00    +0.000 A 
ATOM     16  C   UNL     1      -1.372  10.510  17.835  0.00  0.00    +0.000 A 
ENDBRANCH   3   7
BRANCH   4  17
ATOM     17  C   UNL     1       3.744   7.301  18.113  0.00  0.00    +0.000 C 
BRANCH  17  18
ATOM     18  C   UNL     1       3.017   6.059  18.632  0.00  0.00    +0.000 A 
ATOM     19  C   UNL     1       3.313   5.472  19.873  0.00  0.00    +0.000 A 
ATOM     20  C   UNL     1       2.706   4.279  20.272  0.00  0.00    +0.000 A 
ATOM     21  C   UNL     1       1.797   3.624  19.433  0.00  0.00    +0.000 A 
ATOM     22  C   UNL     1       1.470   4.218  18.206  0.00  0.00    +0.000 A 
ATOM     23  C   UNL     1       2.071   5.419  17.812  0.00  0.00    +0.000 A 
BRANCH  21  24
ATOM     24  C   UNL     1       1.216   2.284  19.812  0.00  0.00    +0.000 C 
ATOM     25  F   UNL     1       1.073   2.116  21.158  0.00  0.00    +0.000 F 
ATOM     26  F   UNL     1      -0.018   2.071  19.276  0.00  0.00    +0.000 F 
ATOM     27  F   UNL     1       1.992   1.245  19.392  0.00  0.00    +0.000 F 
ENDBRANCH  21  24
ENDBRANCH  17  18
BRANCH  17  28
ATOM     28  C   UNL     1       4.736   7.010  16.963  0.00  0.00    +0.000 C 
ATOM     29  C   UNL     1       6.211   7.101  17.374  0.00  0.00    +0.000 C 
ATOM     30  C   UNL     1       6.937   6.478  16.187  0.00  0.00    +0.000 C 
ATOM     31  C   UNL     1       5.988   5.412  15.643  0.00  0.00    +0.000 C 
ATOM     32  C   UNL     1       4.668   5.593  16.392  0.00  0.00    +0.000 C 
ENDBRANCH  17  28
ENDBRANCH   4  17
TORSDOF 5
ENDMDL
MODEL 9
REMARK VINA RESULT:      -8.4      5.535      7.579
REMARK  Name = 
REMARK  5 active torsions:
REMARK  status: ('A' for Active; 'I' for Inactive)
REMARK    1  A    between atoms: N_3  and  C_4
REMARK    2  A    between atoms: N_14  and  C_15
REMARK    3  A    between atoms: C_15  and  C_16
REMARK    4  A    between atoms: C_15  and  C_26
REMARK    5  A    between atoms: C_19  and  C_20
REMARK                            x       y       z     vdW  Elec       q    Type
REMARK                         _______ _______ _______ _____ _____    ______ ____
ROOT
ATOM      1  O   UNL     1       0.227   6.890  20.722  0.00  0.00    +0.000 OA
ATOM      2  C   UNL     1       1.289   7.458  20.502  0.00  0.00    +0.000 C 
ATOM      3  N   UNL     1       1.605   8.772  20.805  0.00  0.00    +0.000 N 
ATOM      4  N   UNL     1       2.360   6.814  19.908  0.00  0.00    +0.000 N 
ATOM      5  H   UNL     1       2.493   9.088  20.458  0.00  0.00    +0.000 HD
ATOM      6  H   UNL     1       3.036   7.389  19.438  0.00  0.00    +0.000 HD
ENDROOT
BRANCH   3   7
ATOM      7  C   UNL     1       0.782   9.744  21.442  0.00  0.00    +0.000 A 
ATOM      8  C   UNL     1       0.179   9.480  22.680  0.00  0.00    +0.000 A 
ATOM      9  C   UNL     1      -0.663  10.408  23.291  0.00  0.00    +0.000 A 
ATOM     10  C   UNL     1      -0.921  11.623  22.672  0.00  0.00    +0.000 A 
ATOM     11  C   UNL     1      -0.314  11.935  21.449  0.00  0.00    +0.000 A 
ATOM     12  C   UNL     1      -0.565  13.162  20.830  0.00  0.00    +0.000 A 
ATOM     13  N   UNL     1      -0.019  13.563  19.662  0.00  0.00    +0.000 NA
ATOM     14  C   UNL     1       0.825  12.698  19.078  0.00  0.00    +0.000 A 
ATOM     15  C   UNL     1       1.138  11.446  19.599  0.00  0.00    +0.000 A 
ATOM     16  C   UNL     1       0.563  11.016  20.817  0.00  0.00    +0.000 A 
ENDBRANCH   3   7
BRANCH   4  17
ATOM     17  C   UNL     1       2.255   5.436  19.408  0.00  0.00    +0.000 C 
BRANCH  17  18
ATOM     18  C   UNL     1       3.375   5.205  18.392  0.00  0.00    +0.000 A 
ATOM     19  C   UNL     1       4.376   6.157  18.140  0.00  0.00    +0.000 A 
ATOM     20  C   UNL     1       5.322   5.961  17.131  0.00  0.00    +0.000 A 
ATOM     21  C   UNL     1       5.286   4.813  16.329  0.00  0.00    +0.000 A 
ATOM     22  C   UNL     1       4.311   3.842  16.595  0.00  0.00    +0.000 A 
ATOM     23  C   UNL     1       3.370   4.035  17.613  0.00  0.00    +0.000 A 
BRANCH  21  24
ATOM     24  C   UNL     1       6.240   4.642  15.174  0.00  0.00    +0.000 C 
ATOM     25  F   UNL     1       5.922   3.597  14.357  0.00  0.00    +0.000 F 
ATOM     26  F   UNL     1       6.302   5.739  14.369  0.00  0.00    +0.000 F 
ATOM     27  F   UNL     1       7.517   4.408  15.588  0.00  0.00    +0.000 F 
ENDBRANCH  21  24
ENDBRANCH  17  18
BRANCH  17  28
ATOM     28  C   UNL     1       2.279   4.452  20.601  0.00  0.00    +0.000 C 
ATOM     29  C   UNL     1       1.048   3.541  20.682  0.00  0.00    +0.000 C 
ATOM     30  C   UNL     1       1.463   2.496  21.712  0.00  0.00    +0.000 C 
ATOM     31  C   UNL     1       2.971   2.330  21.539  0.00  0.00    +0.000 C 
ATOM     32  C   UNL     1       3.414   3.427  20.571  0.00  0.00    +0.000 C 
ENDBRANCH  17  28
ENDBRANCH   4  17
TORSDOF 5
ENDMDL
