MODEL 1
REMARK VINA RESULT:      -7.2      0.000      0.000
REMARK  Name = 
REMARK  5 active torsions:
REMARK  status: ('A' for Active; 'I' for Inactive)
REMARK    1  A    between atoms: C_2  and  C_3
REMARK    2  A    between atoms: C_2  and  C_4
REMARK    3  A    between atoms: C_10  and  C_11
REMARK    4  A    between atoms: C_11  and  O_13
REMARK    5  A    between atoms: C_14  and  O_15
REMARK                            x       y       z     vdW  Elec       q    Type
REMARK                         _______ _______ _______ _____ _____    ______ ____
ROOT
ATOM      1  C   UNL     1       1.578   4.194  17.987  0.00  0.00    +0.000 C 
ATOM      2  C   UNL     1       2.691   3.341  17.356  0.00  0.00    +0.000 C 
ATOM      3  C   UNL     1       3.763   4.346  17.221  0.00  0.00    +0.000 A 
ATOM      4  C   UNL     1       3.335   5.573  17.680  0.00  0.00    +0.000 A 
ATOM      5  C   UNL     1       4.162   6.680  17.644  0.00  0.00    +0.000 A 
ATOM      6  C   UNL     1       5.473   6.523  17.155  0.00  0.00    +0.000 A 
ATOM      7  C   UNL     1       5.935   5.262  16.713  0.00  0.00    +0.000 A 
ATOM      8  C   UNL     1       5.050   4.169  16.748  0.00  0.00    +0.000 A 
ATOM      9  O   UNL     1       2.065   5.557  18.192  0.00  0.00    +0.000 OA
ENDROOT
BRANCH   1  11
ATOM     10  C   UNL     1       1.058   4.304  20.446  0.00  0.00    +0.000 C 
ATOM     11  C   UNL     1       1.104   3.598  19.304  0.00  0.00    +0.000 C 
ATOM     12  C   UNL     1       0.685   2.153  19.268  0.00  0.00    +0.000 C 
ENDBRANCH   1  11
BRANCH   7  13
ATOM     13  C   UNL     1       7.321   5.006  16.215  0.00  0.00    +0.000 C 
ATOM     14  O   UNL     1       7.722   5.522  15.186  0.00  0.00    +0.000 OA
BRANCH  13  15
ATOM     15  O   UNL     1       8.102   4.179  16.936  0.00  0.00    +0.000 OA
ATOM     16  H   UNL     1       9.040   4.114  16.700  0.00  0.00    +0.000 HD
ENDBRANCH  13  15
ENDBRANCH   7  13
BRANCH   8  17
ATOM     17  O   UNL     1       5.373   2.898  16.357  0.00  0.00    +0.000 OA
ATOM     18  H   UNL     1       5.357   2.857  15.374  0.00  0.00    +0.000 HD
ENDBRANCH   8  17
TORSDOF 4
ENDMDL
MODEL 2
REMARK VINA RESULT:      -6.9      0.734      1.136
REMARK  Name = 
REMARK  5 active torsions:
REMARK  status: ('A' for Active; 'I' for Inactive)
REMARK    1  A    between atoms: C_2  and  C_3
REMARK    2  A    between atoms: C_2  and  C_4
REMARK    3  A    between atoms: C_10  and  C_11
REMARK    4  A    between atoms: C_11  and  O_13
REMARK    5  A    between atoms: C_14  and  O_15
REMARK                            x       y       z     vdW  Elec       q    Type
REMARK                         _______ _______ _______ _____ _____    ______ ____
ROOT
ATOM      1  C   UNL     1       1.770   4.261  18.683  0.00  0.00    +0.000 C 
ATOM      2  C   UNL     1       2.832   3.383  17.999  0.00  0.00    +0.000 C 
ATOM      3  C   UNL     1       3.740   4.418  17.466  0.00  0.00    +0.000 A 
ATOM      4  C   UNL     1       3.272   5.676  17.776  0.00  0.00    +0.000 A 
ATOM      5  C   UNL     1       3.948   6.812  17.370  0.00  0.00    +0.000 A 
ATOM      6  C   UNL     1       5.152   6.658  16.657  0.00  0.00    +0.000 A 
ATOM      7  C   UNL     1       5.661   5.372  16.363  0.00  0.00    +0.000 A 
ATOM      8  C   UNL     1       4.926   4.245  16.777  0.00  0.00    +0.000 A 
ATOM      9  O   UNL     1       2.131   5.669  18.534  0.00  0.00    +0.000 OA
ENDROOT
BRANCH   1  11
ATOM     10  C   UNL     1       1.087   2.746  20.572  0.00  0.00    +0.000 C 
ATOM     11  C   UNL     1       1.624   3.905  20.154  0.00  0.00    +0.000 C 
ATOM     12  C   UNL     1       2.113   4.932  21.140  0.00  0.00    +0.000 C 
ENDBRANCH   1  11
BRANCH   7  13
ATOM     13  C   UNL     1       6.947   5.124  15.643  0.00  0.00    +0.000 C 
ATOM     14  O   UNL     1       7.094   5.475  14.486  0.00  0.00    +0.000 OA
BRANCH  13  15
ATOM     15  O   UNL     1       7.928   4.492  16.315  0.00  0.00    +0.000 OA
ATOM     16  H   UNL     1       7.769   3.582  16.608  0.00  0.00    +0.000 HD
ENDBRANCH  13  15
ENDBRANCH   7  13
BRANCH   8  17
ATOM     17  O   UNL     1       5.310   2.949  16.563  0.00  0.00    +0.000 OA
ATOM     18  H   UNL     1       6.280   2.880  16.713  0.00  0.00    +0.000 HD
ENDBRANCH   8  17
TORSDOF 4
ENDMDL
MODEL 3
REMARK VINA RESULT:      -6.8      2.078      2.596
REMARK  Name = 
REMARK  5 active torsions:
REMARK  status: ('A' for Active; 'I' for Inactive)
REMARK    1  A    between atoms: C_2  and  C_3
REMARK    2  A    between atoms: C_2  and  C_4
REMARK    3  A    between atoms: C_10  and  C_11
REMARK    4  A    between atoms: C_11  and  O_13
REMARK    5  A    between atoms: C_14  and  O_15
REMARK                            x       y       z     vdW  Elec       q    Type
REMARK                         _______ _______ _______ _____ _____    ______ ____
ROOT
ATOM      1  C   UNL     1       3.488   2.409  18.831  0.00  0.00    +0.000 C 
ATOM      2  C   UNL     1       4.550   3.175  19.637  0.00  0.00    +0.000 C 
ATOM      3  C   UNL     1       5.091   4.071  18.597  0.00  0.00    +0.000 A 
ATOM      4  C   UNL     1       4.459   3.848  17.392  0.00  0.00    +0.000 A 
ATOM      5  C   UNL     1       4.805   4.560  16.259  0.00  0.00    +0.000 A 
ATOM      6  C   UNL     1       5.800   5.550  16.366  0.00  0.00    +0.000 A 
ATOM      7  C   UNL     1       6.432   5.812  17.604  0.00  0.00    +0.000 A 
ATOM      8  C   UNL     1       6.062   5.046  18.725  0.00  0.00    +0.000 A 
ATOM      9  O   UNL     1       3.465   2.908  17.457  0.00  0.00    +0.000 OA
ENDROOT
BRANCH   1  11
ATOM     10  C   UNL     1       0.974   2.476  18.752  0.00  0.00    +0.000 C 
ATOM     11  C   UNL     1       2.112   2.542  19.464  0.00  0.00    +0.000 C 
ATOM     12  C   UNL     1       2.081   2.757  20.954  0.00  0.00    +0.000 C 
ENDBRANCH   1  11
BRANCH   7  13
ATOM     13  C   UNL     1       7.470   6.868  17.807  0.00  0.00    +0.000 C 
ATOM     14  O   UNL     1       7.582   7.794  17.024  0.00  0.00    +0.000 OA
BRANCH  13  15
ATOM     15  O   UNL     1       8.279   6.752  18.877  0.00  0.00    +0.000 OA
ATOM     16  H   UNL     1       9.121   6.285  18.765  0.00  0.00    +0.000 HD
ENDBRANCH  13  15
ENDBRANCH   7  13
BRANCH   8  17
ATOM     17  O   UNL     1       6.589   5.204  19.978  0.00  0.00    +0.000 OA
ATOM     18  H   UNL     1       6.280   4.461  20.545  0.00  0.00    +0.000 HD
ENDBRANCH   8  17
TORSDOF 4
ENDMDL
MODEL 4
REMARK VINA RESULT:      -6.8      2.145      5.745
REMARK  Name = 
REMARK  5 active torsions:
REMARK  status: ('A' for Active; 'I' for Inactive)
REMARK    1  A    between atoms: C_2  and  C_3
REMARK    2  A    between atoms: C_2  and  C_4
REMARK    3  A    between atoms: C_10  and  C_11
REMARK    4  A    between atoms: C_11  and  O_13
REMARK    5  A    between atoms: C_14  and  O_15
REMARK                            x       y       z     vdW  Elec       q    Type
REMARK                         _______ _______ _______ _____ _____    ______ ____
ROOT
ATOM      1  C   UNL     1       4.943   5.456  16.489  0.00  0.00    +0.000 C 
ATOM      2  C   UNL     1       4.429   5.888  17.873  0.00  0.00    +0.000 C 
ATOM      3  C   UNL     1       3.782   4.641  18.326  0.00  0.00    +0.000 A 
ATOM      4  C   UNL     1       3.891   3.662  17.361  0.00  0.00    +0.000 A 
ATOM      5  C   UNL     1       3.349   2.405  17.551  0.00  0.00    +0.000 A 
ATOM      6  C   UNL     1       2.705   2.129  18.772  0.00  0.00    +0.000 A 
ATOM      7  C   UNL     1       2.616   3.113  19.784  0.00  0.00    +0.000 A 
ATOM      8  C   UNL     1       3.164   4.386  19.536  0.00  0.00    +0.000 A 
ATOM      9  O   UNL     1       4.605   4.053  16.259  0.00  0.00    +0.000 OA
ENDROOT
BRANCH   1  11
ATOM     10  C   UNL     1       7.122   6.537  17.135  0.00  0.00    +0.000 C 
ATOM     11  C   UNL     1       6.445   5.664  16.369  0.00  0.00    +0.000 C 
ATOM     12  C   UNL     1       7.152   4.835  15.331  0.00  0.00    +0.000 C 
ENDBRANCH   1  11
BRANCH   7  13
ATOM     13  C   UNL     1       1.983   2.888  21.118  0.00  0.00    +0.000 C 
ATOM     14  O   UNL     1       2.663   2.723  22.115  0.00  0.00    +0.000 OA
BRANCH  13  15
ATOM     15  O   UNL     1       0.637   2.863  21.175  0.00  0.00    +0.000 OA
ATOM     16  H   UNL     1       0.218   2.363  21.892  0.00  0.00    +0.000 HD
ENDBRANCH  13  15
ENDBRANCH   7  13
BRANCH   8  17
ATOM     17  O   UNL     1       3.152   5.421  20.431  0.00  0.00    +0.000 OA
ATOM     18  H   UNL     1       2.661   5.137  21.235  0.00  0.00    +0.000 HD
ENDBRANCH   8  17
TORSDOF 4
ENDMDL
MODEL 5
REMARK VINA RESULT:      -6.7      0.788      1.226
REMARK  Name = 
REMARK  5 active torsions:
REMARK  status: ('A' for Active; 'I' for Inactive)
REMARK    1  A    between atoms: C_2  and  C_3
REMARK    2  A    between atoms: C_2  and  C_4
REMARK    3  A    between atoms: C_10  and  C_11
REMARK    4  A    between atoms: C_11  and  O_13
REMARK    5  A    between atoms: C_14  and  O_15
REMARK                            x       y       z     vdW  Elec       q    Type
REMARK                         _______ _______ _______ _____ _____    ______ ____
ROOT
ATOM      1  C   UNL     1       1.707   3.775  18.051  0.00  0.00    +0.000 C 
ATOM      2  C   UNL     1       2.984   3.231  17.389  0.00  0.00    +0.000 C 
ATOM      3  C   UNL     1       3.772   4.472  17.252  0.00  0.00    +0.000 A 
ATOM      4  C   UNL     1       3.063   5.549  17.737  0.00  0.00    +0.000 A 
ATOM      5  C   UNL     1       3.590   6.827  17.704  0.00  0.00    +0.000 A 
ATOM      6  C   UNL     1       4.889   7.004  17.191  0.00  0.00    +0.000 A 
ATOM      7  C   UNL     1       5.640   5.902  16.723  0.00  0.00    +0.000 A 
ATOM      8  C   UNL     1       5.053   4.623  16.756  0.00  0.00    +0.000 A 
ATOM      9  O   UNL     1       1.846   5.214  18.269  0.00  0.00    +0.000 OA
ENDROOT
BRANCH   1  11
ATOM     10  C   UNL     1       1.611   1.747  19.537  0.00  0.00    +0.000 C 
ATOM     11  C   UNL     1       1.421   3.067  19.366  0.00  0.00    +0.000 C 
ATOM     12  C   UNL     1       0.902   3.926  20.487  0.00  0.00    +0.000 C 
ENDBRANCH   1  11
BRANCH   7  13
ATOM     13  C   UNL     1       7.036   6.002  16.199  0.00  0.00    +0.000 C 
ATOM     14  O   UNL     1       7.415   5.288  15.287  0.00  0.00    +0.000 OA
BRANCH  13  15
ATOM     15  O   UNL     1       7.858   6.898  16.777  0.00  0.00    +0.000 OA
ATOM     16  H   UNL     1       8.799   6.876  16.541  0.00  0.00    +0.000 HD
ENDBRANCH  13  15
ENDBRANCH   7  13
BRANCH   8  17
ATOM     17  O   UNL     1       5.673   3.476  16.341  0.00  0.00    +0.000 OA
ATOM     18  H   UNL     1       6.606   3.689  16.107  0.00  0.00    +0.000 HD
ENDBRANCH   8  17
TORSDOF 4
ENDMDL
MODEL 6
REMARK VINA RESULT:      -6.6      2.012      2.457
REMARK  Name = 
REMARK  5 active torsions:
REMARK  status: ('A' for Active; 'I' for Inactive)
REMARK    1  A    between atoms: C_2  and  C_3
REMARK    2  A    between atoms: C_2  and  C_4
REMARK    3  A    between atoms: C_10  and  C_11
REMARK    4  A    between atoms: C_11  and  O_13
REMARK    5  A    between atoms: C_14  and  O_15
REMARK                            x       y       z     vdW  Elec       q    Type
REMARK                         _______ _______ _______ _____ _____    ______ ____
ROOT
ATOM      1  C   UNL     1       3.000   2.498  19.616  0.00  0.00    +0.000 C 
ATOM      2  C   UNL     1       4.253   3.259  20.079  0.00  0.00    +0.000 C 
ATOM      3  C   UNL     1       4.679   3.883  18.811  0.00  0.00    +0.000 A 
ATOM      4  C   UNL     1       3.826   3.527  17.788  0.00  0.00    +0.000 A 
ATOM      5  C   UNL     1       4.028   3.979  16.497  0.00  0.00    +0.000 A 
ATOM      6  C   UNL     1       5.112   4.842  16.250  0.00  0.00    +0.000 A 
ATOM      7  C   UNL     1       5.974   5.242  17.297  0.00  0.00    +0.000 A 
ATOM      8  C   UNL     1       5.742   4.739  18.591  0.00  0.00    +0.000 A 
ATOM      9  O   UNL     1       2.779   2.743  18.192  0.00  0.00    +0.000 OA
ENDROOT
BRANCH   1  11
ATOM     10  C   UNL     1       0.745   3.582  19.881  0.00  0.00    +0.000 C 
ATOM     11  C   UNL     1       1.776   2.908  20.419  0.00  0.00    +0.000 C 
ATOM     12  C   UNL     1       1.772   2.520  21.874  0.00  0.00    +0.000 C 
ENDBRANCH   1  11
BRANCH   7  13
ATOM     13  C   UNL     1       7.122   6.183  17.123  0.00  0.00    +0.000 C 
ATOM     14  O   UNL     1       7.471   6.918  18.029  0.00  0.00    +0.000 OA
BRANCH  13  15
ATOM     15  O   UNL     1       7.745   6.195  15.929  0.00  0.00    +0.000 OA
ATOM     16  H   UNL     1       7.211   6.057  15.133  0.00  0.00    +0.000 HD
ENDBRANCH  13  15
ENDBRANCH   7  13
BRANCH   8  17
ATOM     17  O   UNL     1       6.495   5.052  19.689  0.00  0.00    +0.000 OA
ATOM     18  H   UNL     1       6.402   6.015  19.871  0.00  0.00    +0.000 HD
ENDBRANCH   8  17
TORSDOF 4
ENDMDL
MODEL 7
REMARK VINA RESULT:      -6.6      2.057      2.402
REMARK  Name = 
REMARK  5 active torsions:
REMARK  status: ('A' for Active; 'I' for Inactive)
REMARK    1  A    between atoms: C_2  and  C_3
REMARK    2  A    between atoms: C_2  and  C_4
REMARK    3  A    between atoms: C_10  and  C_11
REMARK    4  A    between atoms: C_11  and  O_13
REMARK    5  A    between atoms: C_14  and  O_15
REMARK                            x       y       z     vdW  Elec       q    Type
REMARK                         _______ _______ _______ _____ _____    ______ ____
ROOT
ATOM      1  C   UNL     1       3.150   2.306  19.507  0.00  0.00    +0.000 C 
ATOM      2  C   UNL     1       4.383   3.093  19.983  0.00  0.00    +0.000 C 
ATOM      3  C   UNL     1       4.769   3.779  18.734  0.00  0.00    +0.000 A 
ATOM      4  C   UNL     1       3.915   3.433  17.710  0.00  0.00    +0.000 A 
ATOM      5  C   UNL     1       4.083   3.941  16.434  0.00  0.00    +0.000 A 
ATOM      6  C   UNL     1       5.133   4.850  16.207  0.00  0.00    +0.000 A 
ATOM      7  C   UNL     1       5.995   5.240  17.258  0.00  0.00    +0.000 A 
ATOM      8  C   UNL     1       5.799   4.679  18.534  0.00  0.00    +0.000 A 
ATOM      9  O   UNL     1       2.901   2.598  18.096  0.00  0.00    +0.000 OA
ENDROOT
BRANCH   1  11
ATOM     10  C   UNL     1       1.928   2.608  21.685  0.00  0.00    +0.000 C 
ATOM     11  C   UNL     1       1.924   2.643  20.341  0.00  0.00    +0.000 C 
ATOM     12  C   UNL     1       0.682   3.019  19.579  0.00  0.00    +0.000 C 
ENDBRANCH   1  11
BRANCH   7  13
ATOM     13  C   UNL     1       7.108   6.226  17.106  0.00  0.00    +0.000 C 
ATOM     14  O   UNL     1       7.766   6.275  16.082  0.00  0.00    +0.000 OA
BRANCH  13  15
ATOM     15  O   UNL     1       7.363   7.046  18.144  0.00  0.00    +0.000 OA
ATOM     16  H   UNL     1       7.742   7.918  17.956  0.00  0.00    +0.000 HD
ENDBRANCH  13  15
ENDBRANCH   7  13
BRANCH   8  17
ATOM     17  O   UNL     1       6.556   4.976  19.634  0.00  0.00    +0.000 OA
ATOM     18  H   UNL     1       7.114   5.761  19.430  0.00  0.00    +0.000 HD
ENDBRANCH   8  17
TORSDOF 4
ENDMDL
MODEL 8
REMARK VINA RESULT:      -6.5      2.143      5.438
REMARK  Name = 
REMARK  5 active torsions:
REMARK  status: ('A' for Active; 'I' for Inactive)
REMARK    1  A    between atoms: C_2  and  C_3
REMARK    2  A    between atoms: C_2  and  C_4
REMARK    3  A    between atoms: C_10  and  C_11
REMARK    4  A    between atoms: C_11  and  O_13
REMARK    5  A    between atoms: C_14  and  O_15
REMARK                            x       y       z     vdW  Elec       q    Type
REMARK                         _______ _______ _______ _____ _____    ______ ____
ROOT
ATOM      1  C   UNL     1       6.705   4.492  14.480  0.00  0.00    +0.000 C 
ATOM      2  C   UNL     1       6.064   3.526  15.491  0.00  0.00    +0.000 C 
ATOM      3  C   UNL     1       5.283   4.470  16.314  0.00  0.00    +0.000 A 
ATOM      4  C   UNL     1       5.457   5.761  15.864  0.00  0.00    +0.000 A 
ATOM      5  C   UNL     1       4.834   6.827  16.486  0.00  0.00    +0.000 A 
ATOM      6  C   UNL     1       3.985   6.564  17.578  0.00  0.00    +0.000 A 
ATOM      7  C   UNL     1       3.771   5.240  18.028  0.00  0.00    +0.000 A 
ATOM      8  C   UNL     1       4.444   4.190  17.376  0.00  0.00    +0.000 A 
ATOM      9  O   UNL     1       6.251   5.854  14.752  0.00  0.00    +0.000 OA
ENDROOT
BRANCH   1  11
ATOM     10  C   UNL     1       5.236   3.451  12.721  0.00  0.00    +0.000 C 
ATOM     11  C   UNL     1       6.368   4.098  13.050  0.00  0.00    +0.000 C 
ATOM     12  C   UNL     1       7.380   4.470  12.000  0.00  0.00    +0.000 C 
ENDBRANCH   1  11
BRANCH   7  13
ATOM     13  C   UNL     1       2.858   4.876  19.154  0.00  0.00    +0.000 C 
ATOM     14  O   UNL     1       1.932   4.104  18.984  0.00  0.00    +0.000 OA
BRANCH  13  15
ATOM     15  O   UNL     1       3.092   5.439  20.355  0.00  0.00    +0.000 OA
ATOM     16  H   UNL     1       3.067   4.871  21.140  0.00  0.00    +0.000 HD
ENDBRANCH  13  15
ENDBRANCH   7  13
BRANCH   8  17
ATOM     17  O   UNL     1       4.319   2.868  17.707  0.00  0.00    +0.000 OA
ATOM     18  H   UNL     1       4.944   2.666  18.441  0.00  0.00    +0.000 HD
ENDBRANCH   8  17
TORSDOF 4
ENDMDL
MODEL 9
REMARK VINA RESULT:      -6.5      2.162      5.428
REMARK  Name = 
REMARK  5 active torsions:
REMARK  status: ('A' for Active; 'I' for Inactive)
REMARK    1  A    between atoms: C_2  and  C_3
REMARK    2  A    between atoms: C_2  and  C_4
REMARK    3  A    between atoms: C_10  and  C_11
REMARK    4  A    between atoms: C_11  and  O_13
REMARK    5  A    between atoms: C_14  and  O_15
REMARK                            x       y       z     vdW  Elec       q    Type
REMARK                         _______ _______ _______ _____ _____    ______ ____
ROOT
ATOM      1  C   UNL     1       6.870   5.425  15.610  0.00  0.00    +0.000 C 
ATOM      2  C   UNL     1       6.673   4.384  16.725  0.00  0.00    +0.000 C 
ATOM      3  C   UNL     1       5.512   4.957  17.432  0.00  0.00    +0.000 A 
ATOM      4  C   UNL     1       5.117   6.136  16.837  0.00  0.00    +0.000 A 
ATOM      5  C   UNL     1       4.053   6.868  17.332  0.00  0.00    +0.000 A 
ATOM      6  C   UNL     1       3.354   6.366  18.445  0.00  0.00    +0.000 A 
ATOM      7  C   UNL     1       3.727   5.140  19.044  0.00  0.00    +0.000 A 
ATOM      8  C   UNL     1       4.831   4.442  18.519  0.00  0.00    +0.000 A 
ATOM      9  O   UNL     1       5.845   6.461  15.723  0.00  0.00    +0.000 OA
ENDROOT
BRANCH   1  11
ATOM     10  C   UNL     1       5.923   3.831  13.909  0.00  0.00    +0.000 C 
ATOM     11  C   UNL     1       6.819   4.778  14.235  0.00  0.00    +0.000 C 
ATOM     12  C   UNL     1       7.840   5.254  13.236  0.00  0.00    +0.000 C 
ENDBRANCH   1  11
BRANCH   7  13
ATOM     13  C   UNL     1       3.014   4.523  20.204  0.00  0.00    +0.000 C 
ATOM     14  O   UNL     1       2.898   3.314  20.296  0.00  0.00    +0.000 OA
BRANCH  13  15
ATOM     15  O   UNL     1       2.497   5.351  21.132  0.00  0.00    +0.000 OA
ATOM     16  H   UNL     1       3.110   5.879  21.666  0.00  0.00    +0.000 HD
ENDBRANCH  13  15
ENDBRANCH   7  13
BRANCH   8  17
ATOM     17  O   UNL     1       5.289   3.245  18.999  0.00  0.00    +0.000 OA
ATOM     18  H   UNL     1       6.196   3.377  19.359  0.00  0.00    +0.000 HD
ENDBRANCH   8  17
TORSDOF 4
ENDMDL
