MODEL 1
REMARK VINA RESULT:      -5.9      0.000      0.000
REMARK  Name = 
REMARK  6 active torsions:
REMARK  status: ('A' for Active; 'I' for Inactive)
REMARK    1  A    between atoms: C_2  and  O_3
REMARK    2  A    between atoms: C_2  and  C_4
REMARK    3  A    between atoms: C_4  and  O_5
REMARK    4  A    between atoms: C_4  and  C_6
REMARK    5  A    between atoms: C_6  and  C_7
REMARK    6  A    between atoms: C_10  and  O_11
REMARK                            x       y       z     vdW  Elec       q    Type
REMARK                         _______ _______ _______ _____ _____    ______ ____
ROOT
ATOM      1  C   UNL     1       5.042   4.974  17.053  0.00  0.00    +0.000 C 
ENDROOT
BRANCH   1   2
ATOM      2  C   UNL     1       3.811   4.228  17.500  0.00  0.00    +0.000 A 
ATOM      3  C   UNL     1       3.808   2.827  17.591  0.00  0.00    +0.000 A 
ATOM      4  C   UNL     1       2.642   2.143  17.941  0.00  0.00    +0.000 A 
ATOM      5  C   UNL     1       1.487   2.863  18.226  0.00  0.00    +0.000 A 
ATOM      6  C   UNL     1       1.481   4.250  18.178  0.00  0.00    +0.000 A 
ATOM      7  C   UNL     1       2.641   4.934  17.814  0.00  0.00    +0.000 A 
BRANCH   5   8
ATOM      8  O   UNL     1       0.323   2.238  18.565  0.00  0.00    +0.000 OA
ATOM      9  H   UNL     1      -0.131   2.766  19.242  0.00  0.00    +0.000 HD
ENDBRANCH   5   8
ENDBRANCH   1   2
BRANCH   1  10
ATOM     10  C   UNL     1       6.217   4.068  16.672  0.00  0.00    +0.000 C 
BRANCH  10  12
ATOM     11  O   UNL     1       7.544   5.417  15.160  0.00  0.00    +0.000 OA
ATOM     12  C   UNL     1       6.805   4.451  15.309  0.00  0.00    +0.000 C 
BRANCH  12  13
ATOM     13  O   UNL     1       6.464   3.635  14.288  0.00  0.00    +0.000 OA
ATOM     14  H   UNL     1       7.203   3.381  13.703  0.00  0.00    +0.000 HD
ENDBRANCH  12  13
ENDBRANCH  10  12
BRANCH  10  15
ATOM     15  O   UNL     1       7.220   4.200  17.688  0.00  0.00    +0.000 OA
ATOM     16  H   UNL     1       8.062   3.912  17.280  0.00  0.00    +0.000 HD
ENDBRANCH  10  15
ENDBRANCH   1  10
TORSDOF 6
ENDMDL
MODEL 2
REMARK VINA RESULT:      -5.9      1.260      1.583
REMARK  Name = 
REMARK  6 active torsions:
REMARK  status: ('A' for Active; 'I' for Inactive)
REMARK    1  A    between atoms: C_2  and  O_3
REMARK    2  A    between atoms: C_2  and  C_4
REMARK    3  A    between atoms: C_4  and  O_5
REMARK    4  A    between atoms: C_4  and  C_6
REMARK    5  A    between atoms: C_6  and  C_7
REMARK    6  A    between atoms: C_10  and  O_11
REMARK                            x       y       z     vdW  Elec       q    Type
REMARK                         _______ _______ _______ _____ _____    ______ ____
ROOT
ATOM      1  C   UNL     1       5.950   4.803  18.074  0.00  0.00    +0.000 C 
ENDROOT
BRANCH   1   2
ATOM      2  C   UNL     1       4.698   3.982  18.246  0.00  0.00    +0.000 A 
ATOM      3  C   UNL     1       4.498   3.202  19.396  0.00  0.00    +0.000 A 
ATOM      4  C   UNL     1       3.366   2.392  19.513  0.00  0.00    +0.000 A 
ATOM      5  C   UNL     1       2.421   2.386  18.494  0.00  0.00    +0.000 A 
ATOM      6  C   UNL     1       2.583   3.180  17.367  0.00  0.00    +0.000 A 
ATOM      7  C   UNL     1       3.721   3.976  17.240  0.00  0.00    +0.000 A 
BRANCH   5   8
ATOM      8  O   UNL     1       1.304   1.607  18.562  0.00  0.00    +0.000 OA
ATOM      9  H   UNL     1       0.527   2.180  18.662  0.00  0.00    +0.000 HD
ENDBRANCH   5   8
ENDBRANCH   1   2
BRANCH   1  10
ATOM     10  C   UNL     1       6.815   4.381  16.882  0.00  0.00    +0.000 C 
BRANCH  10  12
ATOM     11  O   UNL     1       7.580   5.386  14.815  0.00  0.00    +0.000 OA
ATOM     12  C   UNL     1       6.863   5.471  15.806  0.00  0.00    +0.000 C 
BRANCH  12  13
ATOM     13  O   UNL     1       6.045   6.524  16.019  0.00  0.00    +0.000 OA
ATOM     14  H   UNL     1       5.775   6.650  16.949  0.00  0.00    +0.000 HD
ENDBRANCH  12  13
ENDBRANCH  10  12
BRANCH  10  15
ATOM     15  O   UNL     1       8.137   4.122  17.371  0.00  0.00    +0.000 OA
ATOM     16  H   UNL     1       8.753   4.514  16.717  0.00  0.00    +0.000 HD
ENDBRANCH  10  15
ENDBRANCH   1  10
TORSDOF 6
ENDMDL
MODEL 3
REMARK VINA RESULT:      -5.8      1.104      1.559
REMARK  Name = 
REMARK  6 active torsions:
REMARK  status: ('A' for Active; 'I' for Inactive)
REMARK    1  A    between atoms: C_2  and  O_3
REMARK    2  A    between atoms: C_2  and  C_4
REMARK    3  A    between atoms: C_4  and  O_5
REMARK    4  A    between atoms: C_4  and  C_6
REMARK    5  A    between atoms: C_6  and  C_7
REMARK    6  A    between atoms: C_10  and  O_11
REMARK                            x       y       z     vdW  Elec       q    Type
REMARK                         _______ _______ _______ _____ _____    ______ ____
ROOT
ATOM      1  C   UNL     1       5.325   4.384  18.232  0.00  0.00    +0.000 C 
ENDROOT
BRANCH   1   2
ATOM      2  C   UNL     1       3.942   3.797  18.361  0.00  0.00    +0.000 A 
ATOM      3  C   UNL     1       3.739   2.561  18.994  0.00  0.00    +0.000 A 
ATOM      4  C   UNL     1       2.463   1.996  19.047  0.00  0.00    +0.000 A 
ATOM      5  C   UNL     1       1.388   2.680  18.492  0.00  0.00    +0.000 A 
ATOM      6  C   UNL     1       1.565   3.921  17.895  0.00  0.00    +0.000 A 
ATOM      7  C   UNL     1       2.840   4.480  17.827  0.00  0.00    +0.000 A 
BRANCH   5   8
ATOM      8  O   UNL     1       0.125   2.164  18.513  0.00  0.00    +0.000 OA
ATOM      9  H   UNL     1       0.182   1.195  18.478  0.00  0.00    +0.000 HD
ENDBRANCH   5   8
ENDBRANCH   1   2
BRANCH   1  10
ATOM     10  C   UNL     1       5.834   4.472  16.791  0.00  0.00    +0.000 C 
BRANCH  10  12
ATOM     11  O   UNL     1       8.206   4.229  17.220  0.00  0.00    +0.000 OA
ATOM     12  C   UNL     1       7.304   4.904  16.737  0.00  0.00    +0.000 C 
BRANCH  12  13
ATOM     13  O   UNL     1       7.535   6.073  16.102  0.00  0.00    +0.000 OA
ATOM     14  H   UNL     1       8.138   6.011  15.338  0.00  0.00    +0.000 HD
ENDBRANCH  12  13
ENDBRANCH  10  12
BRANCH  10  15
ATOM     15  O   UNL     1       5.687   3.176  16.195  0.00  0.00    +0.000 OA
ATOM     16  H   UNL     1       4.937   3.246  15.569  0.00  0.00    +0.000 HD
ENDBRANCH  10  15
ENDBRANCH   1  10
TORSDOF 6
ENDMDL
MODEL 4
REMARK VINA RESULT:      -5.8      1.285      1.735
REMARK  Name = 
REMARK  6 active torsions:
REMARK  status: ('A' for Active; 'I' for Inactive)
REMARK    1  A    between atoms: C_2  and  O_3
REMARK    2  A    between atoms: C_2  and  C_4
REMARK    3  A    between atoms: C_4  and  O_5
REMARK    4  A    between atoms: C_4  and  C_6
REMARK    5  A    between atoms: C_6  and  C_7
REMARK    6  A    between atoms: C_10  and  O_11
REMARK                            x       y       z     vdW  Elec       q    Type
REMARK                         _______ _______ _______ _____ _____    ______ ____
ROOT
ATOM      1  C   UNL     1       5.979   4.669  18.238  0.00  0.00    +0.000 C 
ENDROOT
BRANCH   1   2
ATOM      2  C   UNL     1       4.705   3.864  18.281  0.00  0.00    +0.000 A 
ATOM      3  C   UNL     1       3.777   3.924  17.230  0.00  0.00    +0.000 A 
ATOM      4  C   UNL     1       2.570   3.227  17.311  0.00  0.00    +0.000 A 
ATOM      5  C   UNL     1       2.306   2.446  18.431  0.00  0.00    +0.000 A 
ATOM      6  C   UNL     1       3.228   2.344  19.463  0.00  0.00    +0.000 A 
ATOM      7  C   UNL     1       4.427   3.053  19.390  0.00  0.00    +0.000 A 
BRANCH   5   8
ATOM      8  O   UNL     1       1.137   1.753  18.557  0.00  0.00    +0.000 OA
ATOM      9  H   UNL     1       0.817   1.514  17.672  0.00  0.00    +0.000 HD
ENDBRANCH   5   8
ENDBRANCH   1   2
BRANCH   1  10
ATOM     10  C   UNL     1       6.842   4.407  17.001  0.00  0.00    +0.000 C 
BRANCH  10  12
ATOM     11  O   UNL     1       6.303   6.674  16.337  0.00  0.00    +0.000 OA
ATOM     12  C   UNL     1       6.870   5.621  16.065  0.00  0.00    +0.000 C 
BRANCH  12  13
ATOM     13  O   UNL     1       7.580   5.453  14.929  0.00  0.00    +0.000 OA
ATOM     14  H   UNL     1       7.146   4.897  14.254  0.00  0.00    +0.000 HD
ENDBRANCH  12  13
ENDBRANCH  10  12
BRANCH  10  15
ATOM     15  O   UNL     1       8.171   4.110  17.450  0.00  0.00    +0.000 OA
ATOM     16  H   UNL     1       8.308   4.634  18.265  0.00  0.00    +0.000 HD
ENDBRANCH  10  15
ENDBRANCH   1  10
TORSDOF 6
ENDMDL
MODEL 5
REMARK VINA RESULT:      -5.8      1.407      1.917
REMARK  Name = 
REMARK  6 active torsions:
REMARK  status: ('A' for Active; 'I' for Inactive)
REMARK    1  A    between atoms: C_2  and  O_3
REMARK    2  A    between atoms: C_2  and  C_4
REMARK    3  A    between atoms: C_4  and  O_5
REMARK    4  A    between atoms: C_4  and  C_6
REMARK    5  A    between atoms: C_6  and  C_7
REMARK    6  A    between atoms: C_10  and  O_11
REMARK                            x       y       z     vdW  Elec       q    Type
REMARK                         _______ _______ _______ _____ _____    ______ ____
ROOT
ATOM      1  C   UNL     1       4.564   5.389  17.403  0.00  0.00    +0.000 C 
ENDROOT
BRANCH   1   2
ATOM      2  C   UNL     1       3.388   4.841  18.172  0.00  0.00    +0.000 A 
ATOM      3  C   UNL     1       3.102   5.290  19.470  0.00  0.00    +0.000 A 
ATOM      4  C   UNL     1       2.051   4.727  20.198  0.00  0.00    +0.000 A 
ATOM      5  C   UNL     1       1.271   3.735  19.615  0.00  0.00    +0.000 A 
ATOM      6  C   UNL     1       1.516   3.305  18.318  0.00  0.00    +0.000 A 
ATOM      7  C   UNL     1       2.574   3.855  17.596  0.00  0.00    +0.000 A 
BRANCH   5   8
ATOM      8  O   UNL     1       0.239   3.151  20.290  0.00  0.00    +0.000 OA
ATOM      9  H   UNL     1      -0.295   3.845  20.708  0.00  0.00    +0.000 HD
ENDBRANCH   5   8
ENDBRANCH   1   2
BRANCH   1  10
ATOM     10  C   UNL     1       5.687   4.374  17.174  0.00  0.00    +0.000 C 
BRANCH  10  12
ATOM     11  O   UNL     1       6.814   6.004  15.781  0.00  0.00    +0.000 OA
ATOM     12  C   UNL     1       6.907   5.023  16.509  0.00  0.00    +0.000 C 
BRANCH  12  13
ATOM     13  O   UNL     1       8.093   4.445  16.800  0.00  0.00    +0.000 OA
ATOM     14  H   UNL     1       8.875   4.985  16.579  0.00  0.00    +0.000 HD
ENDBRANCH  12  13
ENDBRANCH  10  12
BRANCH  10  15
ATOM     15  O   UNL     1       6.058   3.836  18.450  0.00  0.00    +0.000 OA
ATOM     16  H   UNL     1       5.287   3.321  18.765  0.00  0.00    +0.000 HD
ENDBRANCH  10  15
ENDBRANCH   1  10
TORSDOF 6
ENDMDL
MODEL 6
REMARK VINA RESULT:      -5.8      1.250      1.904
REMARK  Name = 
REMARK  6 active torsions:
REMARK  status: ('A' for Active; 'I' for Inactive)
REMARK    1  A    between atoms: C_2  and  O_3
REMARK    2  A    between atoms: C_2  and  C_4
REMARK    3  A    between atoms: C_4  and  O_5
REMARK    4  A    between atoms: C_4  and  C_6
REMARK    5  A    between atoms: C_6  and  C_7
REMARK    6  A    between atoms: C_10  and  O_11
REMARK                            x       y       z     vdW  Elec       q    Type
REMARK                         _______ _______ _______ _____ _____    ______ ____
ROOT
ATOM      1  C   UNL     1       4.865   4.108  16.395  0.00  0.00    +0.000 C 
ENDROOT
BRANCH   1   2
ATOM      2  C   UNL     1       3.729   3.801  17.338  0.00  0.00    +0.000 A 
ATOM      3  C   UNL     1       3.478   2.488  17.764  0.00  0.00    +0.000 A 
ATOM      4  C   UNL     1       2.382   2.207  18.583  0.00  0.00    +0.000 A 
ATOM      5  C   UNL     1       1.555   3.245  18.997  0.00  0.00    +0.000 A 
ATOM      6  C   UNL     1       1.809   4.555  18.616  0.00  0.00    +0.000 A 
ATOM      7  C   UNL     1       2.894   4.835  17.786  0.00  0.00    +0.000 A 
BRANCH   5   8
ATOM      8  O   UNL     1       0.469   3.017  19.792  0.00  0.00    +0.000 OA
ATOM      9  H   UNL     1      -0.289   2.791  19.229  0.00  0.00    +0.000 HD
ENDBRANCH   5   8
ENDBRANCH   1   2
BRANCH   1  10
ATOM     10  C   UNL     1       5.801   5.215  16.885  0.00  0.00    +0.000 C 
BRANCH  10  12
ATOM     11  O   UNL     1       6.817   4.627  19.004  0.00  0.00    +0.000 OA
ATOM     12  C   UNL     1       6.912   4.659  17.783  0.00  0.00    +0.000 C 
BRANCH  12  13
ATOM     13  O   UNL     1       7.996   4.188  17.128  0.00  0.00    +0.000 OA
ATOM     14  H   UNL     1       8.792   4.079  17.682  0.00  0.00    +0.000 HD
ENDBRANCH  12  13
ENDBRANCH  10  12
BRANCH  10  15
ATOM     15  O   UNL     1       6.378   5.843  15.732  0.00  0.00    +0.000 OA
ATOM     16  H   UNL     1       6.389   6.804  15.920  0.00  0.00    +0.000 HD
ENDBRANCH  10  15
ENDBRANCH   1  10
TORSDOF 6
ENDMDL
MODEL 7
REMARK VINA RESULT:      -5.8      1.277      1.955
REMARK  Name = 
REMARK  6 active torsions:
REMARK  status: ('A' for Active; 'I' for Inactive)
REMARK    1  A    between atoms: C_2  and  O_3
REMARK    2  A    between atoms: C_2  and  C_4
REMARK    3  A    between atoms: C_4  and  O_5
REMARK    4  A    between atoms: C_4  and  C_6
REMARK    5  A    between atoms: C_6  and  C_7
REMARK    6  A    between atoms: C_10  and  O_11
REMARK                            x       y       z     vdW  Elec       q    Type
REMARK                         _______ _______ _______ _____ _____    ______ ____
ROOT
ATOM      1  C   UNL     1       4.755   5.188  17.295  0.00  0.00    +0.000 C 
ENDROOT
BRANCH   1   2
ATOM      2  C   UNL     1       3.578   4.302  17.617  0.00  0.00    +0.000 A 
ATOM      3  C   UNL     1       2.325   4.852  17.929  0.00  0.00    +0.000 A 
ATOM      4  C   UNL     1       1.260   4.024  18.292  0.00  0.00    +0.000 A 
ATOM      5  C   UNL     1       1.443   2.646  18.314  0.00  0.00    +0.000 A 
ATOM      6  C   UNL     1       2.665   2.083  17.972  0.00  0.00    +0.000 A 
ATOM      7  C   UNL     1       3.733   2.909  17.625  0.00  0.00    +0.000 A 
BRANCH   5   8
ATOM      8  O   UNL     1       0.434   1.799  18.669  0.00  0.00    +0.000 OA
ATOM      9  H   UNL     1       0.820   0.990  19.042  0.00  0.00    +0.000 HD
ENDBRANCH   5   8
ENDBRANCH   1   2
BRANCH   1  10
ATOM     10  C   UNL     1       6.047   4.796  18.018  0.00  0.00    +0.000 C 
BRANCH  10  12
ATOM     11  O   UNL     1       7.390   6.014  16.411  0.00  0.00    +0.000 OA
ATOM     12  C   UNL     1       7.280   5.033  17.138  0.00  0.00    +0.000 C 
BRANCH  12  13
ATOM     13  O   UNL     1       8.243   4.092  17.237  0.00  0.00    +0.000 OA
ATOM     14  H   UNL     1       8.435   3.798  18.147  0.00  0.00    +0.000 HD
ENDBRANCH  12  13
ENDBRANCH  10  12
BRANCH  10  15
ATOM     15  O   UNL     1       6.140   5.590  19.208  0.00  0.00    +0.000 OA
ATOM     16  H   UNL     1       5.889   6.501  18.950  0.00  0.00    +0.000 HD
ENDBRANCH  10  15
ENDBRANCH   1  10
TORSDOF 6
ENDMDL
MODEL 8
REMARK VINA RESULT:      -5.8      1.857      5.266
REMARK  Name = 
REMARK  6 active torsions:
REMARK  status: ('A' for Active; 'I' for Inactive)
REMARK    1  A    between atoms: C_2  and  O_3
REMARK    2  A    between atoms: C_2  and  C_4
REMARK    3  A    between atoms: C_4  and  O_5
REMARK    4  A    between atoms: C_4  and  C_6
REMARK    5  A    between atoms: C_6  and  C_7
REMARK    6  A    between atoms: C_10  and  O_11
REMARK                            x       y       z     vdW  Elec       q    Type
REMARK                         _______ _______ _______ _____ _____    ______ ____
ROOT
ATOM      1  C   UNL     1       2.893   3.530  17.378  0.00  0.00    +0.000 C 
ENDROOT
BRANCH   1   2
ATOM      2  C   UNL     1       4.144   4.332  17.121  0.00  0.00    +0.000 A 
ATOM      3  C   UNL     1       4.295   5.624  17.648  0.00  0.00    +0.000 A 
ATOM      4  C   UNL     1       5.428   6.383  17.347  0.00  0.00    +0.000 A 
ATOM      5  C   UNL     1       6.421   5.838  16.542  0.00  0.00    +0.000 A 
ATOM      6  C   UNL     1       6.306   4.548  16.042  0.00  0.00    +0.000 A 
ATOM      7  C   UNL     1       5.169   3.795  16.329  0.00  0.00    +0.000 A 
BRANCH   5   8
ATOM      8  O   UNL     1       7.541   6.544  16.215  0.00  0.00    +0.000 OA
ATOM      9  H   UNL     1       7.296   7.257  15.602  0.00  0.00    +0.000 HD
ENDBRANCH   5   8
ENDBRANCH   1   2
BRANCH   1  10
ATOM     10  C   UNL     1       3.135   2.225  18.141  0.00  0.00    +0.000 C 
BRANCH  10  12
ATOM     11  O   UNL     1       3.096   3.030  20.425  0.00  0.00    +0.000 OA
ATOM     12  C   UNL     1       3.731   2.485  19.530  0.00  0.00    +0.000 C 
BRANCH  12  13
ATOM     13  O   UNL     1       4.999   2.053  19.699  0.00  0.00    +0.000 OA
ATOM     14  H   UNL     1       5.080   1.115  19.955  0.00  0.00    +0.000 HD
ENDBRANCH  12  13
ENDBRANCH  10  12
BRANCH  10  15
ATOM     15  O   UNL     1       1.874   1.555  18.272  0.00  0.00    +0.000 OA
ATOM     16  H   UNL     1       2.034   0.620  18.028  0.00  0.00    +0.000 HD
ENDBRANCH  10  15
ENDBRANCH   1  10
TORSDOF 6
ENDMDL
MODEL 9
REMARK VINA RESULT:      -5.8      1.627      2.229
REMARK  Name = 
REMARK  6 active torsions:
REMARK  status: ('A' for Active; 'I' for Inactive)
REMARK    1  A    between atoms: C_2  and  O_3
REMARK    2  A    between atoms: C_2  and  C_4
REMARK    3  A    between atoms: C_4  and  O_5
REMARK    4  A    between atoms: C_4  and  C_6
REMARK    5  A    between atoms: C_6  and  C_7
REMARK    6  A    between atoms: C_10  and  O_11
REMARK                            x       y       z     vdW  Elec       q    Type
REMARK                         _______ _______ _______ _____ _____    ______ ____
ROOT
ATOM      1  C   UNL     1       4.545   5.668  16.821  0.00  0.00    +0.000 C 
ENDROOT
BRANCH   1   2
ATOM      2  C   UNL     1       3.506   5.112  17.761  0.00  0.00    +0.000 A 
ATOM      3  C   UNL     1       2.728   4.000  17.403  0.00  0.00    +0.000 A 
ATOM      4  C   UNL     1       1.722   3.537  18.253  0.00  0.00    +0.000 A 
ATOM      5  C   UNL     1       1.515   4.168  19.474  0.00  0.00    +0.000 A 
ATOM      6  C   UNL     1       2.300   5.245  19.862  0.00  0.00    +0.000 A 
ATOM      7  C   UNL     1       3.294   5.719  19.007  0.00  0.00    +0.000 A 
BRANCH   5   8
ATOM      8  O   UNL     1       0.540   3.754  20.335  0.00  0.00    +0.000 OA
ATOM      9  H   UNL     1       0.731   2.843  20.610  0.00  0.00    +0.000 HD
ENDBRANCH   5   8
ENDBRANCH   1   2
BRANCH   1  10
ATOM     10  C   UNL     1       5.869   6.031  17.498  0.00  0.00    +0.000 C 
BRANCH  10  12
ATOM     11  O   UNL     1       7.697   4.637  16.735  0.00  0.00    +0.000 OA
ATOM     12  C   UNL     1       6.817   4.828  17.566  0.00  0.00    +0.000 C 
BRANCH  12  13
ATOM     13  O   UNL     1       6.623   4.004  18.618  0.00  0.00    +0.000 OA
ATOM     14  H   UNL     1       5.866   4.239  19.187  0.00  0.00    +0.000 HD
ENDBRANCH  12  13
ENDBRANCH  10  12
BRANCH  10  15
ATOM     15  O   UNL     1       6.476   7.084  16.738  0.00  0.00    +0.000 OA
ATOM     16  H   UNL     1       6.907   6.655  15.970  0.00  0.00    +0.000 HD
ENDBRANCH  10  15
ENDBRANCH   1  10
TORSDOF 6
ENDMDL
