MODEL 1
REMARK VINA RESULT:      -7.4      0.000      0.000
REMARK  Name = 
REMARK  8 active torsions:
REMARK  status: ('A' for Active; 'I' for Inactive)
REMARK    1  A    between atoms: C_1  and  C_2
REMARK    2  A    between atoms: C_7  and  C_8
REMARK    3  A    between atoms: C_8  and  O_9
REMARK    4  A    between atoms: O_9  and  C_10
REMARK    5  A    between atoms: C_12  and  C_13
REMARK    6  A    between atoms: C_13  and  C_14
REMARK    7  A    between atoms: C_13  and  C_15
REMARK    8  A    between atoms: C_18  and  C_19
REMARK                            x       y       z     vdW  Elec       q    Type
REMARK                         _______ _______ _______ _____ _____    ______ ____
ROOT
ATOM      1  C   UNL     1       2.774   3.300  18.550  0.00  0.00    +0.000 C 
ATOM      2  C   UNL     1       2.128   4.655  18.265  0.00  0.00    +0.000 C 
ATOM      3  C   UNL     1       2.302   5.399  19.609  0.00  0.00    +0.000 C 
ATOM      4  C   UNL     1       1.126   5.001  20.506  0.00  0.00    +0.000 C 
ATOM      5  C   UNL     1       1.426   3.508  20.736  0.00  0.00    +0.000 C 
ATOM      6  C   UNL     1       2.823   3.341  20.100  0.00  0.00    +0.000 C 
ATOM      7  C   UNL     1       3.672   2.282  20.772  0.00  0.00    +0.000 C 
ATOM      8  O   UNL     1       3.361   4.674  20.291  0.00  0.00    +0.000 OA
ENDROOT
BRANCH   3   9
ATOM      9  C   UNL     1       2.634   6.891  19.504  0.00  0.00    +0.000 C 
ATOM     10  C   UNL     1       1.726   7.749  20.385  0.00  0.00    +0.000 C 
ATOM     11  C   UNL     1       2.569   7.387  18.048  0.00  0.00    +0.000 C 
ENDBRANCH   3   9
BRANCH   1  12
ATOM     12  O   UNL     1       4.115   3.240  18.048  0.00  0.00    +0.000 OA
BRANCH  12  13
ATOM     13  C   UNL     1       4.451   4.149  17.002  0.00  0.00    +0.000 C 
BRANCH  13  20
ATOM     14  C   UNL     1       5.191   6.636  15.486  0.00  0.00    +0.000 C 
ATOM     15  C   UNL     1       5.947   6.206  16.713  0.00  0.00    +0.000 A 
ATOM     16  C   UNL     1       6.996   7.023  17.176  0.00  0.00    +0.000 A 
ATOM     17  C   UNL     1       7.689   6.703  18.345  0.00  0.00    +0.000 A 
ATOM     18  C   UNL     1       7.333   5.576  19.074  0.00  0.00    +0.000 A 
ATOM     19  C   UNL     1       6.296   4.758  18.627  0.00  0.00    +0.000 A 
ATOM     20  C   UNL     1       5.605   5.040  17.432  0.00  0.00    +0.000 A 
ENDBRANCH  13  20
ENDBRANCH  12  13
ENDBRANCH   1  12
TORSDOF 4
ENDMDL
MODEL 2
REMARK VINA RESULT:      -7.3      1.827      5.734
REMARK  Name = 
REMARK  8 active torsions:
REMARK  status: ('A' for Active; 'I' for Inactive)
REMARK    1  A    between atoms: C_1  and  C_2
REMARK    2  A    between atoms: C_7  and  C_8
REMARK    3  A    between atoms: C_8  and  O_9
REMARK    4  A    between atoms: O_9  and  C_10
REMARK    5  A    between atoms: C_12  and  C_13
REMARK    6  A    between atoms: C_13  and  C_14
REMARK    7  A    between atoms: C_13  and  C_15
REMARK    8  A    between atoms: C_18  and  C_19
REMARK                            x       y       z     vdW  Elec       q    Type
REMARK                         _______ _______ _______ _____ _____    ______ ____
ROOT
ATOM      1  C   UNL     1       5.728   5.383  18.534  0.00  0.00    +0.000 C 
ATOM      2  C   UNL     1       5.365   5.448  17.051  0.00  0.00    +0.000 C 
ATOM      3  C   UNL     1       6.748   5.365  16.365  0.00  0.00    +0.000 C 
ATOM      4  C   UNL     1       7.317   6.785  16.312  0.00  0.00    +0.000 C 
ATOM      5  C   UNL     1       7.536   7.069  17.809  0.00  0.00    +0.000 C 
ATOM      6  C   UNL     1       7.245   5.699  18.459  0.00  0.00    +0.000 C 
ATOM      7  C   UNL     1       8.046   5.443  19.719  0.00  0.00    +0.000 C 
ATOM      8  O   UNL     1       7.626   4.808  17.380  0.00  0.00    +0.000 OA
ENDROOT
BRANCH   3   9
ATOM      9  C   UNL     1       6.800   4.537  15.077  0.00  0.00    +0.000 C 
ATOM     10  C   UNL     1       7.538   5.263  13.951  0.00  0.00    +0.000 C 
ATOM     11  C   UNL     1       5.392   4.133  14.603  0.00  0.00    +0.000 C 
ENDBRANCH   3   9
BRANCH   1  12
ATOM     12  O   UNL     1       5.558   4.061  19.061  0.00  0.00    +0.000 OA
BRANCH  12  13
ATOM     13  C   UNL     1       4.500   3.280  18.508  0.00  0.00    +0.000 C 
BRANCH  13  20
ATOM     14  C   UNL     1       1.795   4.311  17.701  0.00  0.00    +0.000 C 
ATOM     15  C   UNL     1       2.046   3.745  19.072  0.00  0.00    +0.000 A 
ATOM     16  C   UNL     1       0.968   3.662  19.972  0.00  0.00    +0.000 A 
ATOM     17  C   UNL     1       1.132   3.088  21.234  0.00  0.00    +0.000 A 
ATOM     18  C   UNL     1       2.368   2.575  21.605  0.00  0.00    +0.000 A 
ATOM     19  C   UNL     1       3.446   2.651  20.723  0.00  0.00    +0.000 A 
ATOM     20  C   UNL     1       3.314   3.257  19.458  0.00  0.00    +0.000 A 
ENDBRANCH  13  20
ENDBRANCH  12  13
ENDBRANCH   1  12
TORSDOF 4
ENDMDL
MODEL 3
REMARK VINA RESULT:      -6.7      0.969      1.070
REMARK  Name = 
REMARK  8 active torsions:
REMARK  status: ('A' for Active; 'I' for Inactive)
REMARK    1  A    between atoms: C_1  and  C_2
REMARK    2  A    between atoms: C_7  and  C_8
REMARK    3  A    between atoms: C_8  and  O_9
REMARK    4  A    between atoms: O_9  and  C_10
REMARK    5  A    between atoms: C_12  and  C_13
REMARK    6  A    between atoms: C_13  and  C_14
REMARK    7  A    between atoms: C_13  and  C_15
REMARK    8  A    between atoms: C_18  and  C_19
REMARK                            x       y       z     vdW  Elec       q    Type
REMARK                         _______ _______ _______ _____ _____    ______ ____
ROOT
ATOM      1  C   UNL     1       2.477   3.227  18.573  0.00  0.00    +0.000 C 
ATOM      2  C   UNL     1       1.832   4.592  18.333  0.00  0.00    +0.000 C 
ATOM      3  C   UNL     1       2.147   5.347  19.645  0.00  0.00    +0.000 C 
ATOM      4  C   UNL     1       1.054   4.982  20.654  0.00  0.00    +0.000 C 
ATOM      5  C   UNL     1       1.346   3.487  20.874  0.00  0.00    +0.000 C 
ATOM      6  C   UNL     1       2.673   3.285  20.111  0.00  0.00    +0.000 C 
ATOM      7  C   UNL     1       3.562   2.216  20.713  0.00  0.00    +0.000 C 
ATOM      8  O   UNL     1       3.252   4.609  20.233  0.00  0.00    +0.000 OA
ENDROOT
BRANCH   3   9
ATOM      9  C   UNL     1       2.495   6.831  19.490  0.00  0.00    +0.000 C 
ATOM     10  C   UNL     1       1.716   7.713  20.465  0.00  0.00    +0.000 C 
ATOM     11  C   UNL     1       2.269   7.320  18.048  0.00  0.00    +0.000 C 
ENDBRANCH   3   9
BRANCH   1  12
ATOM     12  O   UNL     1       3.763   3.135  17.948  0.00  0.00    +0.000 OA
BRANCH  12  13
ATOM     13  C   UNL     1       3.946   3.876  16.743  0.00  0.00    +0.000 C 
BRANCH  13  20
ATOM     14  C   UNL     1       5.901   4.010  14.465  0.00  0.00    +0.000 C 
ATOM     15  C   UNL     1       6.135   4.757  15.749  0.00  0.00    +0.000 A 
ATOM     16  C   UNL     1       7.279   5.570  15.855  0.00  0.00    +0.000 A 
ATOM     17  C   UNL     1       7.511   6.333  17.000  0.00  0.00    +0.000 A 
ATOM     18  C   UNL     1       6.596   6.308  18.045  0.00  0.00    +0.000 A 
ATOM     19  C   UNL     1       5.459   5.507  17.954  0.00  0.00    +0.000 A 
ATOM     20  C   UNL     1       5.220   4.701  16.823  0.00  0.00    +0.000 A 
ENDBRANCH  13  20
ENDBRANCH  12  13
ENDBRANCH   1  12
TORSDOF 4
ENDMDL
MODEL 4
REMARK VINA RESULT:      -6.7      1.577      5.009
REMARK  Name = 
REMARK  8 active torsions:
REMARK  status: ('A' for Active; 'I' for Inactive)
REMARK    1  A    between atoms: C_1  and  C_2
REMARK    2  A    between atoms: C_7  and  C_8
REMARK    3  A    between atoms: C_8  and  O_9
REMARK    4  A    between atoms: O_9  and  C_10
REMARK    5  A    between atoms: C_12  and  C_13
REMARK    6  A    between atoms: C_13  and  C_14
REMARK    7  A    between atoms: C_13  and  C_15
REMARK    8  A    between atoms: C_18  and  C_19
REMARK                            x       y       z     vdW  Elec       q    Type
REMARK                         _______ _______ _______ _____ _____    ______ ____
ROOT
ATOM      1  C   UNL     1       6.032   4.503  18.292  0.00  0.00    +0.000 C 
ATOM      2  C   UNL     1       5.321   5.666  18.983  0.00  0.00    +0.000 C 
ATOM      3  C   UNL     1       4.337   6.152  17.894  0.00  0.00    +0.000 C 
ATOM      4  C   UNL     1       5.101   7.125  16.991  0.00  0.00    +0.000 C 
ATOM      5  C   UNL     1       6.120   6.176  16.335  0.00  0.00    +0.000 C 
ATOM      6  C   UNL     1       5.648   4.787  16.816  0.00  0.00    +0.000 C 
ATOM      7  C   UNL     1       5.928   3.675  15.826  0.00  0.00    +0.000 C 
ATOM      8  O   UNL     1       4.228   5.031  16.976  0.00  0.00    +0.000 OA
ENDROOT
BRANCH   3   9
ATOM      9  C   UNL     1       2.957   6.592  18.394  0.00  0.00    +0.000 C 
ATOM     10  C   UNL     1       1.836   5.702  17.856  0.00  0.00    +0.000 C 
ATOM     11  C   UNL     1       2.668   8.063  18.047  0.00  0.00    +0.000 C 
ENDBRANCH   3   9
BRANCH   1  12
ATOM     12  O   UNL     1       5.474   3.241  18.679  0.00  0.00    +0.000 OA
BRANCH  12  13
ATOM     13  C   UNL     1       4.706   3.218  19.880  0.00  0.00    +0.000 C 
BRANCH  13  20
ATOM     14  C   UNL     1       2.440   4.089  21.651  0.00  0.00    +0.000 C 
ATOM     15  C   UNL     1       2.201   3.274  20.410  0.00  0.00    +0.000 A 
ATOM     16  C   UNL     1       0.876   2.957  20.059  0.00  0.00    +0.000 A 
ATOM     17  C   UNL     1       0.595   2.257  18.884  0.00  0.00    +0.000 A 
ATOM     18  C   UNL     1       1.630   1.881  18.038  0.00  0.00    +0.000 A 
ATOM     19  C   UNL     1       2.949   2.188  18.374  0.00  0.00    +0.000 A 
ATOM     20  C   UNL     1       3.260   2.863  19.572  0.00  0.00    +0.000 A 
ENDBRANCH  13  20
ENDBRANCH  12  13
ENDBRANCH   1  12
TORSDOF 4
ENDMDL
MODEL 5
REMARK VINA RESULT:      -6.6      1.451      4.851
REMARK  Name = 
REMARK  8 active torsions:
REMARK  status: ('A' for Active; 'I' for Inactive)
REMARK    1  A    between atoms: C_1  and  C_2
REMARK    2  A    between atoms: C_7  and  C_8
REMARK    3  A    between atoms: C_8  and  O_9
REMARK    4  A    between atoms: O_9  and  C_10
REMARK    5  A    between atoms: C_12  and  C_13
REMARK    6  A    between atoms: C_13  and  C_14
REMARK    7  A    between atoms: C_13  and  C_15
REMARK    8  A    between atoms: C_18  and  C_19
REMARK                            x       y       z     vdW  Elec       q    Type
REMARK                         _______ _______ _______ _____ _____    ______ ____
ROOT
ATOM      1  C   UNL     1       5.710   4.388  18.348  0.00  0.00    +0.000 C 
ATOM      2  C   UNL     1       4.898   5.447  19.092  0.00  0.00    +0.000 C 
ATOM      3  C   UNL     1       4.155   6.168  17.944  0.00  0.00    +0.000 C 
ATOM      4  C   UNL     1       5.098   7.242  17.395  0.00  0.00    +0.000 C 
ATOM      5  C   UNL     1       6.208   6.371  16.781  0.00  0.00    +0.000 C 
ATOM      6  C   UNL     1       5.627   4.946  16.903  0.00  0.00    +0.000 C 
ATOM      7  C   UNL     1       6.074   4.011  15.797  0.00  0.00    +0.000 C 
ATOM      8  O   UNL     1       4.207   5.233  16.833  0.00  0.00    +0.000 OA
ENDROOT
BRANCH   3   9
ATOM      9  C   UNL     1       2.712   6.585  18.246  0.00  0.00    +0.000 C 
ATOM     10  C   UNL     1       2.422   8.022  17.812  0.00  0.00    +0.000 C 
ATOM     11  C   UNL     1       2.370   6.411  19.738  0.00  0.00    +0.000 C 
ENDBRANCH   3   9
BRANCH   1  12
ATOM     12  O   UNL     1       5.065   3.108  18.385  0.00  0.00    +0.000 OA
BRANCH  12  13
ATOM     13  C   UNL     1       4.680   2.620  19.668  0.00  0.00    +0.000 C 
BRANCH  13  20
ATOM     14  C   UNL     1       2.717   2.171  17.437  0.00  0.00    +0.000 C 
ATOM     15  C   UNL     1       2.267   2.578  18.813  0.00  0.00    +0.000 A 
ATOM     16  C   UNL     1       0.887   2.705  19.057  0.00  0.00    +0.000 A 
ATOM     17  C   UNL     1       0.412   3.019  20.332  0.00  0.00    +0.000 A 
ATOM     18  C   UNL     1       1.307   3.193  21.380  0.00  0.00    +0.000 A 
ATOM     19  C   UNL     1       2.677   3.071  21.152  0.00  0.00    +0.000 A 
ATOM     20  C   UNL     1       3.182   2.789  19.867  0.00  0.00    +0.000 A 
ENDBRANCH  13  20
ENDBRANCH  12  13
ENDBRANCH   1  12
TORSDOF 4
ENDMDL
MODEL 6
REMARK VINA RESULT:      -6.6      1.695      5.669
REMARK  Name = 
REMARK  8 active torsions:
REMARK  status: ('A' for Active; 'I' for Inactive)
REMARK    1  A    between atoms: C_1  and  C_2
REMARK    2  A    between atoms: C_7  and  C_8
REMARK    3  A    between atoms: C_8  and  O_9
REMARK    4  A    between atoms: O_9  and  C_10
REMARK    5  A    between atoms: C_12  and  C_13
REMARK    6  A    between atoms: C_13  and  C_14
REMARK    7  A    between atoms: C_13  and  C_15
REMARK    8  A    between atoms: C_18  and  C_19
REMARK                            x       y       z     vdW  Elec       q    Type
REMARK                         _______ _______ _______ _____ _____    ______ ____
ROOT
ATOM      1  C   UNL     1       4.438   5.504  17.107  0.00  0.00    +0.000 C 
ATOM      2  C   UNL     1       5.017   5.808  15.726  0.00  0.00    +0.000 C 
ATOM      3  C   UNL     1       6.405   5.129  15.789  0.00  0.00    +0.000 C 
ATOM      4  C   UNL     1       7.370   6.125  16.438  0.00  0.00    +0.000 C 
ATOM      5  C   UNL     1       6.801   6.195  17.867  0.00  0.00    +0.000 C 
ATOM      6  C   UNL     1       5.728   5.085  17.859  0.00  0.00    +0.000 C 
ATOM      7  C   UNL     1       5.532   4.421  19.207  0.00  0.00    +0.000 C 
ATOM      8  O   UNL     1       6.295   4.177  16.881  0.00  0.00    +0.000 OA
ENDROOT
BRANCH   3   9
ATOM      9  C   UNL     1       6.866   4.440  14.500  0.00  0.00    +0.000 C 
ATOM     10  C   UNL     1       7.694   5.369  13.612  0.00  0.00    +0.000 C 
ATOM     11  C   UNL     1       5.677   3.876  13.701  0.00  0.00    +0.000 C 
ENDBRANCH   3   9
BRANCH   1  12
ATOM     12  O   UNL     1       3.543   4.386  17.068  0.00  0.00    +0.000 OA
BRANCH  12  13
ATOM     13  C   UNL     1       2.216   4.607  17.543  0.00  0.00    +0.000 C 
BRANCH  13  20
ATOM     14  C   UNL     1       2.317   6.428  19.932  0.00  0.00    +0.000 C 
ATOM     15  C   UNL     1       2.122   4.944  20.079  0.00  0.00    +0.000 A 
ATOM     16  C   UNL     1       1.940   4.415  21.371  0.00  0.00    +0.000 A 
ATOM     17  C   UNL     1       1.693   3.054  21.559  0.00  0.00    +0.000 A 
ATOM     18  C   UNL     1       1.607   2.209  20.461  0.00  0.00    +0.000 A 
ATOM     19  C   UNL     1       1.787   2.719  19.175  0.00  0.00    +0.000 A 
ATOM     20  C   UNL     1       2.072   4.082  18.962  0.00  0.00    +0.000 A 
ENDBRANCH  13  20
ENDBRANCH  12  13
ENDBRANCH   1  12
TORSDOF 4
ENDMDL
MODEL 7
REMARK VINA RESULT:      -6.6      1.556      5.056
REMARK  Name = 
REMARK  8 active torsions:
REMARK  status: ('A' for Active; 'I' for Inactive)
REMARK    1  A    between atoms: C_1  and  C_2
REMARK    2  A    between atoms: C_7  and  C_8
REMARK    3  A    between atoms: C_8  and  O_9
REMARK    4  A    between atoms: O_9  and  C_10
REMARK    5  A    between atoms: C_12  and  C_13
REMARK    6  A    between atoms: C_13  and  C_14
REMARK    7  A    between atoms: C_13  and  C_15
REMARK    8  A    between atoms: C_18  and  C_19
REMARK                            x       y       z     vdW  Elec       q    Type
REMARK                         _______ _______ _______ _____ _____    ______ ____
ROOT
ATOM      1  C   UNL     1       5.194   3.902  17.314  0.00  0.00    +0.000 C 
ATOM      2  C   UNL     1       5.024   4.845  18.504  0.00  0.00    +0.000 C 
ATOM      3  C   UNL     1       4.783   6.210  17.818  0.00  0.00    +0.000 C 
ATOM      4  C   UNL     1       6.156   6.812  17.507  0.00  0.00    +0.000 C 
ATOM      5  C   UNL     1       6.676   5.823  16.448  0.00  0.00    +0.000 C 
ATOM      6  C   UNL     1       5.444   4.932  16.182  0.00  0.00    +0.000 C 
ATOM      7  C   UNL     1       5.374   4.400  14.765  0.00  0.00    +0.000 C 
ATOM      8  O   UNL     1       4.375   5.869  16.466  0.00  0.00    +0.000 OA
ENDROOT
BRANCH   3   9
ATOM      9  C   UNL     1       3.752   7.119  18.493  0.00  0.00    +0.000 C 
ATOM     10  C   UNL     1       2.808   6.342  19.412  0.00  0.00    +0.000 C 
ATOM     11  C   UNL     1       2.936   7.918  17.462  0.00  0.00    +0.000 C 
ENDBRANCH   3   9
BRANCH   1  12
ATOM     12  O   UNL     1       3.984   3.189  17.030  0.00  0.00    +0.000 OA
BRANCH  12  13
ATOM     13  C   UNL     1       3.721   2.029  17.816  0.00  0.00    +0.000 C 
BRANCH  13  20
ATOM     14  C   UNL     1       4.729   1.901  20.645  0.00  0.00    +0.000 C 
ATOM     15  C   UNL     1       3.320   2.321  20.328  0.00  0.00    +0.000 A 
ATOM     16  C   UNL     1       2.478   2.703  21.389  0.00  0.00    +0.000 A 
ATOM     17  C   UNL     1       1.182   3.162  21.145  0.00  0.00    +0.000 A 
ATOM     18  C   UNL     1       0.718   3.260  19.840  0.00  0.00    +0.000 A 
ATOM     19  C   UNL     1       1.541   2.884  18.779  0.00  0.00    +0.000 A 
ATOM     20  C   UNL     1       2.840   2.386  19.002  0.00  0.00    +0.000 A 
ENDBRANCH  13  20
ENDBRANCH  12  13
ENDBRANCH   1  12
TORSDOF 4
ENDMDL
MODEL 8
REMARK VINA RESULT:      -6.6      1.619      3.442
REMARK  Name = 
REMARK  8 active torsions:
REMARK  status: ('A' for Active; 'I' for Inactive)
REMARK    1  A    between atoms: C_1  and  C_2
REMARK    2  A    between atoms: C_7  and  C_8
REMARK    3  A    between atoms: C_8  and  O_9
REMARK    4  A    between atoms: O_9  and  C_10
REMARK    5  A    between atoms: C_12  and  C_13
REMARK    6  A    between atoms: C_13  and  C_14
REMARK    7  A    between atoms: C_13  and  C_15
REMARK    8  A    between atoms: C_18  and  C_19
REMARK                            x       y       z     vdW  Elec       q    Type
REMARK                         _______ _______ _______ _____ _____    ______ ____
ROOT
ATOM      1  C   UNL     1       3.843   5.447  19.824  0.00  0.00    +0.000 C 
ATOM      2  C   UNL     1       3.477   3.965  19.886  0.00  0.00    +0.000 C 
ATOM      3  C   UNL     1       2.097   3.931  19.191  0.00  0.00    +0.000 C 
ATOM      4  C   UNL     1       1.044   4.258  20.253  0.00  0.00    +0.000 C 
ATOM      5  C   UNL     1       1.392   5.725  20.568  0.00  0.00    +0.000 C 
ATOM      6  C   UNL     1       2.454   6.058  19.499  0.00  0.00    +0.000 C 
ATOM      7  C   UNL     1       2.446   7.510  19.066  0.00  0.00    +0.000 C 
ATOM      8  O   UNL     1       2.042   5.168  18.431  0.00  0.00    +0.000 OA
ENDROOT
BRANCH   3   9
ATOM      9  C   UNL     1       1.836   2.718  18.291  0.00  0.00    +0.000 C 
ATOM     10  C   UNL     1       0.610   1.920  18.736  0.00  0.00    +0.000 C 
ATOM     11  C   UNL     1       3.063   1.792  18.217  0.00  0.00    +0.000 C 
ENDBRANCH   3   9
BRANCH   1  12
ATOM     12  O   UNL     1       4.735   5.725  18.737  0.00  0.00    +0.000 OA
BRANCH  12  13
ATOM     13  C   UNL     1       5.708   4.728  18.434  0.00  0.00    +0.000 C 
BRANCH  13  20
ATOM     14  C   UNL     1       7.539   6.782  17.227  0.00  0.00    +0.000 C 
ATOM     15  C   UNL     1       6.891   5.715  16.389  0.00  0.00    +0.000 A 
ATOM     16  C   UNL     1       7.194   5.663  15.015  0.00  0.00    +0.000 A 
ATOM     17  C   UNL     1       6.668   4.655  14.205  0.00  0.00    +0.000 A 
ATOM     18  C   UNL     1       5.850   3.679  14.757  0.00  0.00    +0.000 A 
ATOM     19  C   UNL     1       5.542   3.718  16.117  0.00  0.00    +0.000 A 
ATOM     20  C   UNL     1       6.031   4.745  16.949  0.00  0.00    +0.000 A 
ENDBRANCH  13  20
ENDBRANCH  12  13
ENDBRANCH   1  12
TORSDOF 4
ENDMDL
MODEL 9
REMARK VINA RESULT:      -6.5      1.169      2.771
REMARK  Name = 
REMARK  8 active torsions:
REMARK  status: ('A' for Active; 'I' for Inactive)
REMARK    1  A    between atoms: C_1  and  C_2
REMARK    2  A    between atoms: C_7  and  C_8
REMARK    3  A    between atoms: C_8  and  O_9
REMARK    4  A    between atoms: O_9  and  C_10
REMARK    5  A    between atoms: C_12  and  C_13
REMARK    6  A    between atoms: C_13  and  C_14
REMARK    7  A    between atoms: C_13  and  C_15
REMARK    8  A    between atoms: C_18  and  C_19
REMARK                            x       y       z     vdW  Elec       q    Type
REMARK                         _______ _______ _______ _____ _____    ______ ____
ROOT
ATOM      1  C   UNL     1       3.779   5.205  18.848  0.00  0.00    +0.000 C 
ATOM      2  C   UNL     1       3.334   4.254  19.959  0.00  0.00    +0.000 C 
ATOM      3  C   UNL     1       1.813   4.517  20.035  0.00  0.00    +0.000 C 
ATOM      4  C   UNL     1       1.604   5.725  20.954  0.00  0.00    +0.000 C 
ATOM      5  C   UNL     1       2.247   6.844  20.115  0.00  0.00    +0.000 C 
ATOM      6  C   UNL     1       2.541   6.137  18.774  0.00  0.00    +0.000 C 
ATOM      7  C   UNL     1       2.467   7.058  17.574  0.00  0.00    +0.000 C 
ATOM      8  O   UNL     1       1.487   5.142  18.764  0.00  0.00    +0.000 OA
ENDROOT
BRANCH   3   9
ATOM      9  C   UNL     1       0.938   3.284  20.284  0.00  0.00    +0.000 C 
ATOM     10  C   UNL     1       1.355   2.523  21.543  0.00  0.00    +0.000 C 
ATOM     11  C   UNL     1       0.940   2.332  19.074  0.00  0.00    +0.000 C 
ENDBRANCH   3   9
BRANCH   1  12
ATOM     12  O   UNL     1       3.917   4.523  17.595  0.00  0.00    +0.000 OA
BRANCH  12  13
ATOM     13  C   UNL     1       5.235   4.128  17.220  0.00  0.00    +0.000 C 
BRANCH  13  20
ATOM     14  C   UNL     1       5.368   6.659  15.606  0.00  0.00    +0.000 C 
ATOM     15  C   UNL     1       6.284   6.421  16.775  0.00  0.00    +0.000 A 
ATOM     16  C   UNL     1       7.189   7.436  17.137  0.00  0.00    +0.000 A 
ATOM     17  C   UNL     1       8.017   7.291  18.251  0.00  0.00    +0.000 A 
ATOM     18  C   UNL     1       7.940   6.142  19.027  0.00  0.00    +0.000 A 
ATOM     19  C   UNL     1       7.047   5.128  18.680  0.00  0.00    +0.000 A 
ATOM     20  C   UNL     1       6.226   5.235  17.540  0.00  0.00    +0.000 A 
ENDBRANCH  13  20
ENDBRANCH  12  13
ENDBRANCH   1  12
TORSDOF 4
ENDMDL
