MODEL 1
REMARK VINA RESULT:      -8.6      0.000      0.000
REMARK  Name = 
REMARK  8 active torsions:
REMARK  status: ('A' for Active; 'I' for Inactive)
REMARK    1  A    between atoms: C_1  and  O_2
REMARK    2  A    between atoms: O_2  and  C_3
REMARK    3  A    between atoms: C_5  and  C_6
REMARK    4  A    between atoms: C_12  and  C_13
REMARK    5  A    between atoms: C_25  and  O_26
REMARK    6  A    between atoms: O_26  and  C_27
REMARK    7  A    between atoms: C_28  and  O_29
REMARK    8  A    between atoms: O_29  and  C_30
REMARK                            x       y       z     vdW  Elec       q    Type
REMARK                         _______ _______ _______ _____ _____    ______ ____
ROOT
ATOM      1  C   UNL     1       4.226   3.702  17.582  0.00  0.00    +0.000 A 
ATOM      2  C   UNL     1       4.060   2.309  17.824  0.00  0.00    +0.000 A 
ATOM      3  C   UNL     1       3.038   1.775  18.613  0.00  0.00    +0.000 A 
ATOM      4  C   UNL     1       2.121   2.614  19.234  0.00  0.00    +0.000 A 
ATOM      5  C   UNL     1       2.276   3.994  19.070  0.00  0.00    +0.000 A 
ATOM      6  N   UNL     1       1.524   4.997  19.603  0.00  0.00    +0.000 NA
ATOM      7  C   UNL     1       2.109   6.099  19.179  0.00  0.00    +0.000 A 
ATOM      8  O   UNL     1       3.184   5.885  18.337  0.00  0.00    +0.000 OA
ATOM      9  C   UNL     1       3.302   4.507  18.279  0.00  0.00    +0.000 A 
ENDROOT
BRANCH   7  10
ATOM     10  C   UNL     1       1.768   7.468  19.587  0.00  0.00    +0.000 A 
ATOM     11  C   UNL     1       1.818   8.479  18.606  0.00  0.00    +0.000 A 
ATOM     12  C   UNL     1       1.408   9.794  18.866  0.00  0.00    +0.000 A 
ATOM     13  C   UNL     1       0.922  10.108  20.145  0.00  0.00    +0.000 A 
ATOM     14  C   UNL     1       0.381  11.290  20.725  0.00  0.00    +0.000 A 
ATOM     15  C   UNL     1       0.056  10.996  22.031  0.00  0.00    +0.000 A 
ATOM     16  N   UNL     1       0.394   9.690  22.265  0.00  0.00    +0.000 N 
ATOM     17  C   UNL     1       0.904   9.114  21.122  0.00  0.00    +0.000 A 
ATOM     18  C   UNL     1       1.333   7.795  20.879  0.00  0.00    +0.000 A 
ATOM     19  H   UNL     1       0.268   9.205  23.143  0.00  0.00    +0.000 HD
ENDBRANCH   7  10
BRANCH   1  22
ATOM     20  C   UNL     1       6.295   3.955  14.386  0.00  0.00    +0.000 A 
ATOM     21  C   UNL     1       5.393   3.531  15.380  0.00  0.00    +0.000 A 
ATOM     22  C   UNL     1       5.241   4.183  16.620  0.00  0.00    +0.000 A 
ATOM     23  C   UNL     1       6.097   5.259  16.858  0.00  0.00    +0.000 A 
ATOM     24  C   UNL     1       7.049   5.677  15.899  0.00  0.00    +0.000 A 
ATOM     25  C   UNL     1       7.165   5.024  14.649  0.00  0.00    +0.000 A 
BRANCH  20  27
ATOM     26  C   UNL     1       5.179   3.353  12.376  0.00  0.00    +0.000 C 
ATOM     27  O   UNL     1       6.357   3.294  13.184  0.00  0.00    +0.000 OA
ENDBRANCH  20  27
BRANCH  24  28
ATOM     28  O   UNL     1       7.831   6.714  16.360  0.00  0.00    +0.000 OA
ATOM     29  C   UNL     1       7.405   7.378  17.543  0.00  0.00    +0.000 C 
ENDBRANCH  24  28
BRANCH  25  30
ATOM     30  O   UNL     1       8.144   5.496  13.817  0.00  0.00    +0.000 OA
ATOM     31  C   UNL     1       7.901   5.730  12.440  0.00  0.00    +0.000 C 
ENDBRANCH  25  30
ENDBRANCH   1  22
TORSDOF 5
ENDMDL
MODEL 2
REMARK VINA RESULT:      -8.3      0.874      1.327
REMARK  Name = 
REMARK  8 active torsions:
REMARK  status: ('A' for Active; 'I' for Inactive)
REMARK    1  A    between atoms: C_1  and  O_2
REMARK    2  A    between atoms: O_2  and  C_3
REMARK    3  A    between atoms: C_5  and  C_6
REMARK    4  A    between atoms: C_12  and  C_13
REMARK    5  A    between atoms: C_25  and  O_26
REMARK    6  A    between atoms: O_26  and  C_27
REMARK    7  A    between atoms: C_28  and  O_29
REMARK    8  A    between atoms: O_29  and  C_30
REMARK                            x       y       z     vdW  Elec       q    Type
REMARK                         _______ _______ _______ _____ _____    ______ ____
ROOT
ATOM      1  C   UNL     1       4.217   3.770  17.590  0.00  0.00    +0.000 A 
ATOM      2  C   UNL     1       4.073   2.382  17.872  0.00  0.00    +0.000 A 
ATOM      3  C   UNL     1       3.050   1.852  18.662  0.00  0.00    +0.000 A 
ATOM      4  C   UNL     1       2.110   2.692  19.246  0.00  0.00    +0.000 A 
ATOM      5  C   UNL     1       2.242   4.069  19.043  0.00  0.00    +0.000 A 
ATOM      6  N   UNL     1       1.464   5.073  19.536  0.00  0.00    +0.000 NA
ATOM      7  C   UNL     1       2.034   6.173  19.087  0.00  0.00    +0.000 A 
ATOM      8  O   UNL     1       3.125   5.954  18.267  0.00  0.00    +0.000 OA
ATOM      9  C   UNL     1       3.269   4.577  18.251  0.00  0.00    +0.000 A 
ENDROOT
BRANCH   7  10
ATOM     10  C   UNL     1       1.663   7.547  19.450  0.00  0.00    +0.000 A 
ATOM     11  C   UNL     1       1.368   7.813  20.802  0.00  0.00    +0.000 A 
ATOM     12  C   UNL     1       1.109   9.109  21.270  0.00  0.00    +0.000 A 
ATOM     13  C   UNL     1       1.157  10.176  20.359  0.00  0.00    +0.000 A 
ATOM     14  C   UNL     1       1.010  11.586  20.491  0.00  0.00    +0.000 A 
ATOM     15  C   UNL     1       1.174  12.137  19.240  0.00  0.00    +0.000 A 
ATOM     16  N   UNL     1       1.398  11.115  18.356  0.00  0.00    +0.000 N 
ATOM     17  C   UNL     1       1.417   9.905  19.016  0.00  0.00    +0.000 A 
ATOM     18  C   UNL     1       1.658   8.605  18.531  0.00  0.00    +0.000 A 
ATOM     19  H   UNL     1       1.551  11.227  17.364  0.00  0.00    +0.000 HD
ENDBRANCH   7  10
BRANCH   1  22
ATOM     20  C   UNL     1       6.291   4.000  14.396  0.00  0.00    +0.000 A 
ATOM     21  C   UNL     1       5.385   3.585  15.390  0.00  0.00    +0.000 A 
ATOM     22  C   UNL     1       5.237   4.241  16.628  0.00  0.00    +0.000 A 
ATOM     23  C   UNL     1       6.099   5.312  16.864  0.00  0.00    +0.000 A 
ATOM     24  C   UNL     1       7.055   5.720  15.905  0.00  0.00    +0.000 A 
ATOM     25  C   UNL     1       7.168   5.063  14.657  0.00  0.00    +0.000 A 
BRANCH  20  27
ATOM     26  C   UNL     1       5.160   3.368  12.404  0.00  0.00    +0.000 C 
ATOM     27  O   UNL     1       6.349   3.336  13.196  0.00  0.00    +0.000 OA
ENDBRANCH  20  27
BRANCH  24  28
ATOM     28  O   UNL     1       7.844   6.753  16.364  0.00  0.00    +0.000 OA
ATOM     29  C   UNL     1       7.485   7.348  17.605  0.00  0.00    +0.000 C 
ENDBRANCH  24  28
BRANCH  25  30
ATOM     30  O   UNL     1       8.151   5.526  13.825  0.00  0.00    +0.000 OA
ATOM     31  C   UNL     1       7.920   5.732  12.441  0.00  0.00    +0.000 C 
ENDBRANCH  25  30
ENDBRANCH   1  22
TORSDOF 5
ENDMDL
MODEL 3
REMARK VINA RESULT:      -8.2      0.206      2.358
REMARK  Name = 
REMARK  8 active torsions:
REMARK  status: ('A' for Active; 'I' for Inactive)
REMARK    1  A    between atoms: C_1  and  O_2
REMARK    2  A    between atoms: O_2  and  C_3
REMARK    3  A    between atoms: C_5  and  C_6
REMARK    4  A    between atoms: C_12  and  C_13
REMARK    5  A    between atoms: C_25  and  O_26
REMARK    6  A    between atoms: O_26  and  C_27
REMARK    7  A    between atoms: C_28  and  O_29
REMARK    8  A    between atoms: O_29  and  C_30
REMARK                            x       y       z     vdW  Elec       q    Type
REMARK                         _______ _______ _______ _____ _____    ______ ____
ROOT
ATOM      1  C   UNL     1       4.172   3.716  17.580  0.00  0.00    +0.000 A 
ATOM      2  C   UNL     1       3.982   2.337  17.879  0.00  0.00    +0.000 A 
ATOM      3  C   UNL     1       2.947   1.853  18.684  0.00  0.00    +0.000 A 
ATOM      4  C   UNL     1       2.042   2.732  19.265  0.00  0.00    +0.000 A 
ATOM      5  C   UNL     1       2.220   4.101  19.045  0.00  0.00    +0.000 A 
ATOM      6  N   UNL     1       1.482   5.137  19.533  0.00  0.00    +0.000 NA
ATOM      7  C   UNL     1       2.086   6.211  19.066  0.00  0.00    +0.000 A 
ATOM      8  O   UNL     1       3.161   5.945  18.240  0.00  0.00    +0.000 OA
ATOM      9  C   UNL     1       3.257   4.564  18.239  0.00  0.00    +0.000 A 
ENDROOT
BRANCH   7  10
ATOM     10  C   UNL     1       1.766   7.601  19.416  0.00  0.00    +0.000 A 
ATOM     11  C   UNL     1       1.810   8.564  18.388  0.00  0.00    +0.000 A 
ATOM     12  C   UNL     1       1.418   9.894  18.593  0.00  0.00    +0.000 A 
ATOM     13  C   UNL     1       0.955  10.273  19.863  0.00  0.00    +0.000 A 
ATOM     14  C   UNL     1       0.435  11.486  20.396  0.00  0.00    +0.000 A 
ATOM     15  C   UNL     1       0.129  11.257  21.720  0.00  0.00    +0.000 A 
ATOM     16  N   UNL     1       0.458   9.959  22.009  0.00  0.00    +0.000 N 
ATOM     17  C   UNL     1       0.943   9.325  20.885  0.00  0.00    +0.000 A 
ATOM     18  C   UNL     1       1.355   7.992  20.698  0.00  0.00    +0.000 A 
ATOM     19  H   UNL     1       0.341   9.516  22.910  0.00  0.00    +0.000 HD
ENDBRANCH   7  10
BRANCH   1  22
ATOM     20  C   UNL     1       7.076   5.667  16.059  0.00  0.00    +0.000 A 
ATOM     21  C   UNL     1       6.039   5.231  16.905  0.00  0.00    +0.000 A 
ATOM     22  C   UNL     1       5.199   4.140  16.605  0.00  0.00    +0.000 A 
ATOM     23  C   UNL     1       5.400   3.532  15.366  0.00  0.00    +0.000 A 
ATOM     24  C   UNL     1       6.401   3.979  14.473  0.00  0.00    +0.000 A 
ATOM     25  C   UNL     1       7.251   5.060  14.806  0.00  0.00    +0.000 A 
BRANCH  20  27
ATOM     26  C   UNL     1       7.359   7.569  17.455  0.00  0.00    +0.000 C 
ATOM     27  O   UNL     1       7.882   6.711  16.438  0.00  0.00    +0.000 OA
ENDBRANCH  20  27
BRANCH  24  28
ATOM     28  O   UNL     1       6.387   3.283  13.283  0.00  0.00    +0.000 OA
ATOM     29  C   UNL     1       5.209   3.369  12.490  0.00  0.00    +0.000 C 
ENDBRANCH  24  28
BRANCH  25  30
ATOM     30  O   UNL     1       8.159   5.424  13.849  0.00  0.00    +0.000 OA
ATOM     31  C   UNL     1       7.760   5.734  12.524  0.00  0.00    +0.000 C 
ENDBRANCH  25  30
ENDBRANCH   1  22
TORSDOF 5
ENDMDL
MODEL 4
REMARK VINA RESULT:      -8.1      2.671      8.333
REMARK  Name = 
REMARK  8 active torsions:
REMARK  status: ('A' for Active; 'I' for Inactive)
REMARK    1  A    between atoms: C_1  and  O_2
REMARK    2  A    between atoms: O_2  and  C_3
REMARK    3  A    between atoms: C_5  and  C_6
REMARK    4  A    between atoms: C_12  and  C_13
REMARK    5  A    between atoms: C_25  and  O_26
REMARK    6  A    between atoms: O_26  and  C_27
REMARK    7  A    between atoms: C_28  and  O_29
REMARK    8  A    between atoms: O_29  and  C_30
REMARK                            x       y       z     vdW  Elec       q    Type
REMARK                         _______ _______ _______ _____ _____    ______ ____
ROOT
ATOM      1  C   UNL     1       2.219   5.686  20.151  0.00  0.00    +0.000 A 
ATOM      2  C   UNL     1       1.694   4.784  21.119  0.00  0.00    +0.000 A 
ATOM      3  C   UNL     1       2.096   3.451  21.236  0.00  0.00    +0.000 A 
ATOM      4  C   UNL     1       3.043   2.926  20.365  0.00  0.00    +0.000 A 
ATOM      5  C   UNL     1       3.547   3.759  19.362  0.00  0.00    +0.000 A 
ATOM      6  N   UNL     1       4.451   3.456  18.388  0.00  0.00    +0.000 NA
ATOM      7  C   UNL     1       4.551   4.565  17.685  0.00  0.00    +0.000 A 
ATOM      8  O   UNL     1       3.803   5.619  18.174  0.00  0.00    +0.000 OA
ATOM      9  C   UNL     1       3.134   5.085  19.262  0.00  0.00    +0.000 A 
ENDROOT
BRANCH   7  10
ATOM     10  C   UNL     1       5.299   4.726  16.430  0.00  0.00    +0.000 A 
ATOM     11  C   UNL     1       6.346   5.668  16.406  0.00  0.00    +0.000 A 
ATOM     12  C   UNL     1       7.188   5.820  15.295  0.00  0.00    +0.000 A 
ATOM     13  C   UNL     1       6.984   4.997  14.176  0.00  0.00    +0.000 A 
ATOM     14  C   UNL     1       7.664   4.842  12.936  0.00  0.00    +0.000 A 
ATOM     15  C   UNL     1       7.009   3.859  12.226  0.00  0.00    +0.000 A 
ATOM     16  N   UNL     1       5.953   3.428  12.983  0.00  0.00    +0.000 N 
ATOM     17  C   UNL     1       5.926   4.089  14.192  0.00  0.00    +0.000 A 
ATOM     18  C   UNL     1       5.061   3.942  15.293  0.00  0.00    +0.000 A 
ATOM     19  H   UNL     1       5.296   2.710  12.710  0.00  0.00    +0.000 HD
ENDBRANCH   7  10
BRANCH   1  22
ATOM     20  C   UNL     1       1.154   9.082  21.526  0.00  0.00    +0.000 A 
ATOM     21  C   UNL     1       1.466   7.715  21.397  0.00  0.00    +0.000 A 
ATOM     22  C   UNL     1       1.853   7.119  20.181  0.00  0.00    +0.000 A 
ATOM     23  C   UNL     1       1.850   7.949  19.060  0.00  0.00    +0.000 A 
ATOM     24  C   UNL     1       1.493   9.315  19.149  0.00  0.00    +0.000 A 
ATOM     25  C   UNL     1       1.133   9.900  20.386  0.00  0.00    +0.000 A 
BRANCH  20  27
ATOM     26  C   UNL     1      -0.562   9.571  23.096  0.00  0.00    +0.000 C 
ATOM     27  O   UNL     1       0.825   9.601  22.754  0.00  0.00    +0.000 OA
ENDBRANCH  20  27
BRANCH  24  28
ATOM     28  O   UNL     1       1.497   9.935  17.918  0.00  0.00    +0.000 OA
ATOM     29  C   UNL     1       2.393  11.025  17.738  0.00  0.00    +0.000 C 
ENDBRANCH  24  28
BRANCH  25  30
ATOM     30  O   UNL     1       0.775  11.220  20.342  0.00  0.00    +0.000 OA
ATOM     31  C   UNL     1      -0.557  11.621  20.068  0.00  0.00    +0.000 C 
ENDBRANCH  25  30
ENDBRANCH   1  22
TORSDOF 5
ENDMDL
MODEL 5
REMARK VINA RESULT:      -8.0      2.679      8.149
REMARK  Name = 
REMARK  8 active torsions:
REMARK  status: ('A' for Active; 'I' for Inactive)
REMARK    1  A    between atoms: C_1  and  O_2
REMARK    2  A    between atoms: O_2  and  C_3
REMARK    3  A    between atoms: C_5  and  C_6
REMARK    4  A    between atoms: C_12  and  C_13
REMARK    5  A    between atoms: C_25  and  O_26
REMARK    6  A    between atoms: O_26  and  C_27
REMARK    7  A    between atoms: C_28  and  O_29
REMARK    8  A    between atoms: O_29  and  C_30
REMARK                            x       y       z     vdW  Elec       q    Type
REMARK                         _______ _______ _______ _____ _____    ______ ____
ROOT
ATOM      1  C   UNL     1       2.210   5.605  20.200  0.00  0.00    +0.000 A 
ATOM      2  C   UNL     1       1.679   4.690  21.153  0.00  0.00    +0.000 A 
ATOM      3  C   UNL     1       2.076   3.354  21.251  0.00  0.00    +0.000 A 
ATOM      4  C   UNL     1       3.023   2.839  20.375  0.00  0.00    +0.000 A 
ATOM      5  C   UNL     1       3.534   3.686  19.386  0.00  0.00    +0.000 A 
ATOM      6  N   UNL     1       4.440   3.394  18.411  0.00  0.00    +0.000 NA
ATOM      7  C   UNL     1       4.546   4.513  17.724  0.00  0.00    +0.000 A 
ATOM      8  O   UNL     1       3.799   5.562  18.227  0.00  0.00    +0.000 OA
ATOM      9  C   UNL     1       3.126   5.014  19.306  0.00  0.00    +0.000 A 
ENDROOT
BRANCH   7  10
ATOM     10  C   UNL     1       5.297   4.691  16.475  0.00  0.00    +0.000 A 
ATOM     11  C   UNL     1       6.380   5.592  16.481  0.00  0.00    +0.000 A 
ATOM     12  C   UNL     1       7.226   5.752  15.375  0.00  0.00    +0.000 A 
ATOM     13  C   UNL     1       6.989   4.979  14.228  0.00  0.00    +0.000 A 
ATOM     14  C   UNL     1       7.662   4.842  12.981  0.00  0.00    +0.000 A 
ATOM     15  C   UNL     1       6.969   3.912  12.238  0.00  0.00    +0.000 A 
ATOM     16  N   UNL     1       5.897   3.494  12.982  0.00  0.00    +0.000 N 
ATOM     17  C   UNL     1       5.897   4.112  14.214  0.00  0.00    +0.000 A 
ATOM     18  C   UNL     1       5.028   3.958  15.310  0.00  0.00    +0.000 A 
ATOM     19  H   UNL     1       5.213   2.812  12.684  0.00  0.00    +0.000 HD
ENDBRANCH   7  10
BRANCH   1  22
ATOM     20  C   UNL     1       1.492   9.161  19.019  0.00  0.00    +0.000 A 
ATOM     21  C   UNL     1       1.872   7.807  19.071  0.00  0.00    +0.000 A 
ATOM     22  C   UNL     1       1.849   7.038  20.251  0.00  0.00    +0.000 A 
ATOM     23  C   UNL     1       1.487   7.713  21.417  0.00  0.00    +0.000 A 
ATOM     24  C   UNL     1       1.148   9.086  21.406  0.00  0.00    +0.000 A 
ATOM     25  C   UNL     1       1.152   9.832  20.204  0.00  0.00    +0.000 A 
BRANCH  20  27
ATOM     26  C   UNL     1       2.368  10.966  17.746  0.00  0.00    +0.000 C 
ATOM     27  O   UNL     1       1.499   9.834  17.822  0.00  0.00    +0.000 OA
ENDBRANCH  20  27
BRANCH  24  28
ATOM     28  O   UNL     1       0.884   9.568  22.670  0.00  0.00    +0.000 OA
ATOM     29  C   UNL     1      -0.464   9.514  23.121  0.00  0.00    +0.000 C 
ENDBRANCH  24  28
BRANCH  25  30
ATOM     30  O   UNL     1       0.840  11.159  20.322  0.00  0.00    +0.000 OA
ATOM     31  C   UNL     1      -0.473  11.639  20.086  0.00  0.00    +0.000 C 
ENDBRANCH  25  30
ENDBRANCH   1  22
TORSDOF 5
ENDMDL
MODEL 6
REMARK VINA RESULT:      -7.8      1.085      2.789
REMARK  Name = 
REMARK  8 active torsions:
REMARK  status: ('A' for Active; 'I' for Inactive)
REMARK    1  A    between atoms: C_1  and  O_2
REMARK    2  A    between atoms: O_2  and  C_3
REMARK    3  A    between atoms: C_5  and  C_6
REMARK    4  A    between atoms: C_12  and  C_13
REMARK    5  A    between atoms: C_25  and  O_26
REMARK    6  A    between atoms: O_26  and  C_27
REMARK    7  A    between atoms: C_28  and  O_29
REMARK    8  A    between atoms: O_29  and  C_30
REMARK                            x       y       z     vdW  Elec       q    Type
REMARK                         _______ _______ _______ _____ _____    ______ ____
ROOT
ATOM      1  C   UNL     1       4.246   3.997  17.971  0.00  0.00    +0.000 A 
ATOM      2  C   UNL     1       4.127   2.647  18.407  0.00  0.00    +0.000 A 
ATOM      3  C   UNL     1       3.129   2.197  19.276  0.00  0.00    +0.000 A 
ATOM      4  C   UNL     1       2.192   3.087  19.786  0.00  0.00    +0.000 A 
ATOM      5  C   UNL     1       2.301   4.434  19.429  0.00  0.00    +0.000 A 
ATOM      6  N   UNL     1       1.522   5.479  19.828  0.00  0.00    +0.000 NA
ATOM      7  C   UNL     1       2.067   6.528  19.247  0.00  0.00    +0.000 A 
ATOM      8  O   UNL     1       3.141   6.231  18.429  0.00  0.00    +0.000 OA
ATOM      9  C   UNL     1       3.302   4.863  18.562  0.00  0.00    +0.000 A 
ENDROOT
BRANCH   7  10
ATOM     10  C   UNL     1       1.686   7.929  19.465  0.00  0.00    +0.000 A 
ATOM     11  C   UNL     1       1.281   8.307  20.761  0.00  0.00    +0.000 A 
ATOM     12  C   UNL     1       1.003   9.638  21.099  0.00  0.00    +0.000 A 
ATOM     13  C   UNL     1       1.143  10.627  20.113  0.00  0.00    +0.000 A 
ATOM     14  C   UNL     1       1.006  12.044  20.119  0.00  0.00    +0.000 A 
ATOM     15  C   UNL     1       1.283  12.491  18.846  0.00  0.00    +0.000 A 
ATOM     16  N   UNL     1       1.566  11.398  18.070  0.00  0.00    +0.000 N 
ATOM     17  C   UNL     1       1.512  10.246  18.824  0.00  0.00    +0.000 A 
ATOM     18  C   UNL     1       1.774   8.910  18.467  0.00  0.00    +0.000 A 
ATOM     19  H   UNL     1       1.804  11.428  17.088  0.00  0.00    +0.000 HD
ENDBRANCH   7  10
BRANCH   1  22
ATOM     20  C   UNL     1       7.074   5.882  16.237  0.00  0.00    +0.000 A 
ATOM     21  C   UNL     1       6.069   5.489  17.140  0.00  0.00    +0.000 A 
ATOM     22  C   UNL     1       5.237   4.370  16.939  0.00  0.00    +0.000 A 
ATOM     23  C   UNL     1       5.410   3.684  15.736  0.00  0.00    +0.000 A 
ATOM     24  C   UNL     1       6.377   4.085  14.785  0.00  0.00    +0.000 A 
ATOM     25  C   UNL     1       7.220   5.196  15.021  0.00  0.00    +0.000 A 
BRANCH  20  27
ATOM     26  C   UNL     1       7.696   7.549  17.812  0.00  0.00    +0.000 C 
ATOM     27  O   UNL     1       7.875   6.960  16.522  0.00  0.00    +0.000 OA
ENDBRANCH  20  27
BRANCH  24  28
ATOM     28  O   UNL     1       6.338   3.311  13.645  0.00  0.00    +0.000 OA
ATOM     29  C   UNL     1       5.185   3.422  12.820  0.00  0.00    +0.000 C 
ENDBRANCH  24  28
BRANCH  25  30
ATOM     30  O   UNL     1       8.093   5.508  14.015  0.00  0.00    +0.000 OA
ATOM     31  C   UNL     1       7.674   5.587  12.662  0.00  0.00    +0.000 C 
ENDBRANCH  25  30
ENDBRANCH   1  22
TORSDOF 5
ENDMDL
MODEL 7
REMARK VINA RESULT:      -7.7      4.235      9.472
REMARK  Name = 
REMARK  8 active torsions:
REMARK  status: ('A' for Active; 'I' for Inactive)
REMARK    1  A    between atoms: C_1  and  O_2
REMARK    2  A    between atoms: O_2  and  C_3
REMARK    3  A    between atoms: C_5  and  C_6
REMARK    4  A    between atoms: C_12  and  C_13
REMARK    5  A    between atoms: C_25  and  O_26
REMARK    6  A    between atoms: O_26  and  C_27
REMARK    7  A    between atoms: C_28  and  O_29
REMARK    8  A    between atoms: O_29  and  C_30
REMARK                            x       y       z     vdW  Elec       q    Type
REMARK                         _______ _______ _______ _____ _____    ______ ____
ROOT
ATOM      1  C   UNL     1       0.223  11.882  21.260  0.00  0.00    +0.000 A 
ATOM      2  C   UNL     1      -0.720  12.070  22.310  0.00  0.00    +0.000 A 
ATOM      3  C   UNL     1      -1.188  11.036  23.126  0.00  0.00    +0.000 A 
ATOM      4  C   UNL     1      -0.753   9.732  22.923  0.00  0.00    +0.000 A 
ATOM      5  C   UNL     1       0.132   9.490  21.868  0.00  0.00    +0.000 A 
ATOM      6  N   UNL     1       0.661   8.300  21.467  0.00  0.00    +0.000 NA
ATOM      7  C   UNL     1       1.390   8.611  20.414  0.00  0.00    +0.000 A 
ATOM      8  O   UNL     1       1.424   9.962  20.123  0.00  0.00    +0.000 OA
ATOM      9  C   UNL     1       0.587  10.534  21.066  0.00  0.00    +0.000 A 
ENDROOT
BRANCH   7  10
ATOM     10  C   UNL     1       2.066   7.659  19.522  0.00  0.00    +0.000 A 
ATOM     11  C   UNL     1       2.548   8.142  18.289  0.00  0.00    +0.000 A 
ATOM     12  C   UNL     1       3.300   7.344  17.416  0.00  0.00    +0.000 A 
ATOM     13  C   UNL     1       3.590   6.023  17.792  0.00  0.00    +0.000 A 
ATOM     14  C   UNL     1       4.354   4.980  17.197  0.00  0.00    +0.000 A 
ATOM     15  C   UNL     1       4.292   3.891  18.040  0.00  0.00    +0.000 A 
ATOM     16  N   UNL     1       3.509   4.232  19.110  0.00  0.00    +0.000 N 
ATOM     17  C   UNL     1       3.084   5.539  18.997  0.00  0.00    +0.000 A 
ATOM     18  C   UNL     1       2.310   6.324  19.873  0.00  0.00    +0.000 A 
ATOM     19  H   UNL     1       3.288   3.624  19.886  0.00  0.00    +0.000 HD
ENDBRANCH   7  10
BRANCH   1  22
ATOM     20  C   UNL     1       2.785  14.367  19.910  0.00  0.00    +0.000 A 
ATOM     21  C   UNL     1       2.162  13.316  20.610  0.00  0.00    +0.000 A 
ATOM     22  C   UNL     1       0.782  13.043  20.534  0.00  0.00    +0.000 A 
ATOM     23  C   UNL     1       0.022  13.925  19.766  0.00  0.00    +0.000 A 
ATOM     24  C   UNL     1       0.612  15.019  19.091  0.00  0.00    +0.000 A 
ATOM     25  C   UNL     1       2.004  15.259  19.159  0.00  0.00    +0.000 A 
BRANCH  20  27
ATOM     26  C   UNL     1       4.611  15.213  21.173  0.00  0.00    +0.000 C 
ATOM     27  O   UNL     1       4.143  14.545  19.999  0.00  0.00    +0.000 OA
ENDBRANCH  20  27
BRANCH  24  28
ATOM     28  O   UNL     1      -0.324  15.797  18.443  0.00  0.00    +0.000 OA
ATOM     29  C   UNL     1      -0.971  16.810  19.204  0.00  0.00    +0.000 C 
ENDBRANCH  24  28
BRANCH  25  30
ATOM     30  O   UNL     1       2.454  16.366  18.493  0.00  0.00    +0.000 OA
ATOM     31  C   UNL     1       3.221  16.260  17.304  0.00  0.00    +0.000 C 
ENDBRANCH  25  30
ENDBRANCH   1  22
TORSDOF 5
ENDMDL
MODEL 8
REMARK VINA RESULT:      -7.6      5.455     11.747
REMARK  Name = 
REMARK  8 active torsions:
REMARK  status: ('A' for Active; 'I' for Inactive)
REMARK    1  A    between atoms: C_1  and  O_2
REMARK    2  A    between atoms: O_2  and  C_3
REMARK    3  A    between atoms: C_5  and  C_6
REMARK    4  A    between atoms: C_12  and  C_13
REMARK    5  A    between atoms: C_25  and  O_26
REMARK    6  A    between atoms: O_26  and  C_27
REMARK    7  A    between atoms: C_28  and  O_29
REMARK    8  A    between atoms: O_29  and  C_30
REMARK                            x       y       z     vdW  Elec       q    Type
REMARK                         _______ _______ _______ _____ _____    ______ ____
ROOT
ATOM      1  C   UNL     1      -2.177  13.301  20.599  0.00  0.00    +0.000 A 
ATOM      2  C   UNL     1      -1.931  14.637  21.026  0.00  0.00    +0.000 A 
ATOM      3  C   UNL     1      -0.666  15.231  21.026  0.00  0.00    +0.000 A 
ATOM      4  C   UNL     1       0.447  14.507  20.617  0.00  0.00    +0.000 A 
ATOM      5  C   UNL     1       0.263  13.173  20.240  0.00  0.00    +0.000 A 
ATOM      6  N   UNL     1       1.204  12.273  19.837  0.00  0.00    +0.000 NA
ATOM      7  C   UNL     1       0.523  11.162  19.644  0.00  0.00    +0.000 A 
ATOM      8  O   UNL     1      -0.839  11.287  19.841  0.00  0.00    +0.000 OA
ATOM      9  C   UNL     1      -1.005  12.600  20.247  0.00  0.00    +0.000 A 
ENDROOT
BRANCH   7  10
ATOM     10  C   UNL     1       1.094   9.844  19.333  0.00  0.00    +0.000 A 
ATOM     11  C   UNL     1       1.605   9.639  18.036  0.00  0.00    +0.000 A 
ATOM     12  C   UNL     1       2.268   8.458  17.673  0.00  0.00    +0.000 A 
ATOM     13  C   UNL     1       2.433   7.453  18.639  0.00  0.00    +0.000 A 
ATOM     14  C   UNL     1       3.087   6.189  18.637  0.00  0.00    +0.000 A 
ATOM     15  C   UNL     1       2.931   5.641  19.891  0.00  0.00    +0.000 A 
ATOM     16  N   UNL     1       2.196   6.518  20.644  0.00  0.00    +0.000 N 
ATOM     17  C   UNL     1       1.897   7.647  19.911  0.00  0.00    +0.000 A 
ATOM     18  C   UNL     1       1.212   8.819  20.283  0.00  0.00    +0.000 A 
ATOM     19  H   UNL     1       1.927   6.374  21.607  0.00  0.00    +0.000 HD
ENDBRANCH   7  10
BRANCH   1  22
ATOM     20  C   UNL     1      -5.734  12.351  21.600  0.00  0.00    +0.000 A 
ATOM     21  C   UNL     1      -4.390  12.770  21.627  0.00  0.00    +0.000 A 
ATOM     22  C   UNL     1      -3.560  12.789  20.489  0.00  0.00    +0.000 A 
ATOM     23  C   UNL     1      -4.120  12.296  19.310  0.00  0.00    +0.000 A 
ATOM     24  C   UNL     1      -5.452  11.821  19.263  0.00  0.00    +0.000 A 
ATOM     25  C   UNL     1      -6.276  11.836  20.412  0.00  0.00    +0.000 A 
BRANCH  20  27
ATOM     26  C   UNL     1      -6.948  13.697  23.136  0.00  0.00    +0.000 C 
ATOM     27  O   UNL     1      -6.495  12.400  22.741  0.00  0.00    +0.000 OA
ENDBRANCH  20  27
BRANCH  24  28
ATOM     28  O   UNL     1      -5.783  11.323  18.021  0.00  0.00    +0.000 OA
ATOM     29  C   UNL     1      -4.832  11.489  16.976  0.00  0.00    +0.000 C 
ENDBRANCH  24  28
BRANCH  25  30
ATOM     30  O   UNL     1      -7.534  11.320  20.253  0.00  0.00    +0.000 OA
ATOM     31  C   UNL     1      -7.864  10.012  20.691  0.00  0.00    +0.000 C 
ENDBRANCH  25  30
ENDBRANCH   1  22
TORSDOF 5
ENDMDL
MODEL 9
REMARK VINA RESULT:      -7.6      4.168      9.455
REMARK  Name = 
REMARK  8 active torsions:
REMARK  status: ('A' for Active; 'I' for Inactive)
REMARK    1  A    between atoms: C_1  and  O_2
REMARK    2  A    between atoms: O_2  and  C_3
REMARK    3  A    between atoms: C_5  and  C_6
REMARK    4  A    between atoms: C_12  and  C_13
REMARK    5  A    between atoms: C_25  and  O_26
REMARK    6  A    between atoms: O_26  and  C_27
REMARK    7  A    between atoms: C_28  and  O_29
REMARK    8  A    between atoms: O_29  and  C_30
REMARK                            x       y       z     vdW  Elec       q    Type
REMARK                         _______ _______ _______ _____ _____    ______ ____
ROOT
ATOM      1  C   UNL     1       0.221  11.634  21.250  0.00  0.00    +0.000 A 
ATOM      2  C   UNL     1      -0.701  11.782  22.324  0.00  0.00    +0.000 A 
ATOM      3  C   UNL     1      -1.112  10.729  23.145  0.00  0.00    +0.000 A 
ATOM      4  C   UNL     1      -0.636   9.442  22.924  0.00  0.00    +0.000 A 
ATOM      5  C   UNL     1       0.230   9.238  21.846  0.00  0.00    +0.000 A 
ATOM      6  N   UNL     1       0.791   8.069  21.424  0.00  0.00    +0.000 NA
ATOM      7  C   UNL     1       1.482   8.411  20.356  0.00  0.00    +0.000 A 
ATOM      8  O   UNL     1       1.460   9.764  20.073  0.00  0.00    +0.000 OA
ATOM      9  C   UNL     1       0.627  10.301  21.039  0.00  0.00    +0.000 A 
ENDROOT
BRANCH   7  10
ATOM     10  C   UNL     1       2.169   7.489  19.442  0.00  0.00    +0.000 A 
ATOM     11  C   UNL     1       2.680   8.015  18.238  0.00  0.00    +0.000 A 
ATOM     12  C   UNL     1       3.444   7.245  17.351  0.00  0.00    +0.000 A 
ATOM     13  C   UNL     1       3.716   5.908  17.681  0.00  0.00    +0.000 A 
ATOM     14  C   UNL     1       4.485   4.882  17.062  0.00  0.00    +0.000 A 
ATOM     15  C   UNL     1       4.397   3.762  17.860  0.00  0.00    +0.000 A 
ATOM     16  N   UNL     1       3.594   4.068  18.926  0.00  0.00    +0.000 N 
ATOM     17  C   UNL     1       3.182   5.382  18.856  0.00  0.00    +0.000 A 
ATOM     18  C   UNL     1       2.395   6.139  19.745  0.00  0.00    +0.000 A 
ATOM     19  H   UNL     1       3.352   3.433  19.674  0.00  0.00    +0.000 HD
ENDBRANCH   7  10
BRANCH   1  22
ATOM     20  C   UNL     1       0.189  14.895  19.269  0.00  0.00    +0.000 A 
ATOM     21  C   UNL     1      -0.196  13.717  19.936  0.00  0.00    +0.000 A 
ATOM     22  C   UNL     1       0.720  12.819  20.518  0.00  0.00    +0.000 A 
ATOM     23  C   UNL     1       2.071  13.119  20.343  0.00  0.00    +0.000 A 
ATOM     24  C   UNL     1       2.490  14.269  19.635  0.00  0.00    +0.000 A 
ATOM     25  C   UNL     1       1.552  15.172  19.081  0.00  0.00    +0.000 A 
BRANCH  20  27
ATOM     26  C   UNL     1      -1.301  16.699  19.682  0.00  0.00    +0.000 C 
ATOM     27  O   UNL     1      -0.763  15.745  18.764  0.00  0.00    +0.000 OA
ENDBRANCH  20  27
BRANCH  24  28
ATOM     28  O   UNL     1       3.863  14.341  19.526  0.00  0.00    +0.000 OA
ATOM     29  C   UNL     1       4.576  14.903  20.621  0.00  0.00    +0.000 C 
ENDBRANCH  24  28
BRANCH  25  30
ATOM     30  O   UNL     1       2.077  16.230  18.390  0.00  0.00    +0.000 OA
ATOM     31  C   UNL     1       2.298  17.487  19.007  0.00  0.00    +0.000 C 
ENDBRANCH  25  30
ENDBRANCH   1  22
TORSDOF 5
ENDMDL
