MODEL 1
REMARK VINA RESULT:      -7.2      0.000      0.000
REMARK  Name = 
REMARK  8 active torsions:
REMARK  status: ('A' for Active; 'I' for Inactive)
REMARK    1  A    between atoms: C_1  and  O_2
REMARK    2  A    between atoms: O_2  and  C_3
REMARK    3  A    between atoms: C_6  and  C_7
REMARK    4  A    between atoms: N_9  and  C_10
REMARK    5  A    between atoms: C_10  and  C_11
REMARK    6  A    between atoms: C_10  and  C_12
REMARK    7  A    between atoms: C_12  and  C_13
REMARK    8  A    between atoms: C_13  and  C_14
REMARK                            x       y       z     vdW  Elec       q    Type
REMARK                         _______ _______ _______ _____ _____    ______ ____
ROOT
ATOM      1  C   UNL     1       3.286   5.975  18.820  0.00  0.00    +0.000 C 
ATOM      2  O   UNL     1       3.793   5.434  19.799  0.00  0.00    +0.000 OA
ATOM      3  N   UNL     1       3.394   5.449  17.546  0.00  0.00    +0.000 N 
ATOM      4  H   UNL     1       2.848   5.830  16.791  0.00  0.00    +0.000 HD
ENDROOT
BRANCH   1   8
ATOM      5  C   UNL     1       1.091   9.677  19.136  0.00  0.00    +0.000 A 
ATOM      6  C   UNL     1       1.733   9.315  17.954  0.00  0.00    +0.000 A 
ATOM      7  C   UNL     1       2.439   8.110  17.874  0.00  0.00    +0.000 A 
ATOM      8  C   UNL     1       2.530   7.257  18.984  0.00  0.00    +0.000 A 
ATOM      9  C   UNL     1       1.896   7.637  20.174  0.00  0.00    +0.000 A 
ATOM     10  C   UNL     1       1.185   8.843  20.249  0.00  0.00    +0.000 A 
BRANCH   5  12
ATOM     11  C   UNL     1       0.835  11.818  20.100  0.00  0.00    +0.000 C 
ATOM     12  O   UNL     1       0.438  10.878  19.107  0.00  0.00    +0.000 OA
ENDBRANCH   5  12
ENDBRANCH   1   8
BRANCH   3  13
ATOM     13  C   UNL     1       4.099   4.199  17.287  0.00  0.00    +0.000 C 
ATOM     14  C   UNL     1       3.120   3.026  17.371  0.00  0.00    +0.000 C 
BRANCH  13  15
ATOM     15  C   UNL     1       4.793   4.248  15.912  0.00  0.00    +0.000 C 
BRANCH  15  16
ATOM     16  C   UNL     1       6.319   4.124  16.037  0.00  0.00    +0.000 C 
BRANCH  16  17
ATOM     17  C   UNL     1       6.925   5.146  16.971  0.00  0.00    +0.000 A 
ATOM     18  C   UNL     1       7.475   4.763  18.200  0.00  0.00    +0.000 A 
ATOM     19  C   UNL     1       8.054   5.717  19.046  0.00  0.00    +0.000 A 
ATOM     20  C   UNL     1       8.083   7.057  18.669  0.00  0.00    +0.000 A 
ATOM     21  C   UNL     1       7.535   7.449  17.448  0.00  0.00    +0.000 A 
ATOM     22  C   UNL     1       6.956   6.497  16.605  0.00  0.00    +0.000 A 
ENDBRANCH  16  17
ENDBRANCH  15  16
ENDBRANCH  13  15
ENDBRANCH   3  13
TORSDOF 6
ENDMDL
MODEL 2
REMARK VINA RESULT:      -7.1      2.434      6.479
REMARK  Name = 
REMARK  8 active torsions:
REMARK  status: ('A' for Active; 'I' for Inactive)
REMARK    1  A    between atoms: C_1  and  O_2
REMARK    2  A    between atoms: O_2  and  C_3
REMARK    3  A    between atoms: C_6  and  C_7
REMARK    4  A    between atoms: N_9  and  C_10
REMARK    5  A    between atoms: C_10  and  C_11
REMARK    6  A    between atoms: C_10  and  C_12
REMARK    7  A    between atoms: C_12  and  C_13
REMARK    8  A    between atoms: C_13  and  C_14
REMARK                            x       y       z     vdW  Elec       q    Type
REMARK                         _______ _______ _______ _____ _____    ______ ____
ROOT
ATOM      1  C   UNL     1       3.434   3.867  17.571  0.00  0.00    +0.000 C 
ATOM      2  O   UNL     1       2.476   3.402  16.957  0.00  0.00    +0.000 OA
ATOM      3  N   UNL     1       3.442   3.988  18.947  0.00  0.00    +0.000 N 
ATOM      4  H   UNL     1       4.290   4.231  19.432  0.00  0.00    +0.000 HD
ENDROOT
BRANCH   1   8
ATOM      5  C   UNL     1       6.857   5.159  15.282  0.00  0.00    +0.000 A 
ATOM      6  C   UNL     1       6.024   4.139  14.826  0.00  0.00    +0.000 A 
ATOM      7  C   UNL     1       4.920   3.736  15.585  0.00  0.00    +0.000 A 
ATOM      8  C   UNL     1       4.643   4.336  16.822  0.00  0.00    +0.000 A 
ATOM      9  C   UNL     1       5.495   5.349  17.281  0.00  0.00    +0.000 A 
ATOM     10  C   UNL     1       6.598   5.754  16.516  0.00  0.00    +0.000 A 
BRANCH   5  12
ATOM     11  C   UNL     1       7.764   5.087  13.102  0.00  0.00    +0.000 C 
ATOM     12  O   UNL     1       7.911   5.467  14.467  0.00  0.00    +0.000 OA
ENDBRANCH   5  12
ENDBRANCH   1   8
BRANCH   3  13
ATOM     13  C   UNL     1       2.317   3.547  19.765  0.00  0.00    +0.000 C 
ATOM     14  C   UNL     1       2.831   2.745  20.962  0.00  0.00    +0.000 C 
BRANCH  13  15
ATOM     15  C   UNL     1       1.478   4.756  20.221  0.00  0.00    +0.000 C 
BRANCH  15  16
ATOM     16  C   UNL     1       2.361   5.942  20.636  0.00  0.00    +0.000 C 
BRANCH  16  17
ATOM     17  C   UNL     1       2.053   7.209  19.871  0.00  0.00    +0.000 A 
ATOM     18  C   UNL     1       2.461   7.367  18.542  0.00  0.00    +0.000 A 
ATOM     19  C   UNL     1       2.149   8.536  17.838  0.00  0.00    +0.000 A 
ATOM     20  C   UNL     1       1.431   9.554  18.461  0.00  0.00    +0.000 A 
ATOM     21  C   UNL     1       1.023   9.408  19.785  0.00  0.00    +0.000 A 
ATOM     22  C   UNL     1       1.335   8.241  20.488  0.00  0.00    +0.000 A 
ENDBRANCH  16  17
ENDBRANCH  15  16
ENDBRANCH  13  15
ENDBRANCH   3  13
TORSDOF 6
ENDMDL
MODEL 3
REMARK VINA RESULT:      -7.0      2.219      4.178
REMARK  Name = 
REMARK  8 active torsions:
REMARK  status: ('A' for Active; 'I' for Inactive)
REMARK    1  A    between atoms: C_1  and  O_2
REMARK    2  A    between atoms: O_2  and  C_3
REMARK    3  A    between atoms: C_6  and  C_7
REMARK    4  A    between atoms: N_9  and  C_10
REMARK    5  A    between atoms: C_10  and  C_11
REMARK    6  A    between atoms: C_10  and  C_12
REMARK    7  A    between atoms: C_12  and  C_13
REMARK    8  A    between atoms: C_13  and  C_14
REMARK                            x       y       z     vdW  Elec       q    Type
REMARK                         _______ _______ _______ _____ _____    ______ ____
ROOT
ATOM      1  C   UNL     1       3.139   7.432  17.885  0.00  0.00    +0.000 C 
ATOM      2  O   UNL     1       3.167   7.926  16.760  0.00  0.00    +0.000 OA
ATOM      3  N   UNL     1       3.915   6.344  18.234  0.00  0.00    +0.000 N 
ATOM      4  H   UNL     1       3.983   6.055  19.196  0.00  0.00    +0.000 HD
ENDROOT
BRANCH   1   8
ATOM      5  C   UNL     1       0.450   9.166  20.782  0.00  0.00    +0.000 A 
ATOM      6  C   UNL     1       0.656   9.760  19.537  0.00  0.00    +0.000 A 
ATOM      7  C   UNL     1       1.532   9.180  18.614  0.00  0.00    +0.000 A 
ATOM      8  C   UNL     1       2.232   8.007  18.929  0.00  0.00    +0.000 A 
ATOM      9  C   UNL     1       2.034   7.426  20.188  0.00  0.00    +0.000 A 
ATOM     10  C   UNL     1       1.151   8.007  21.110  0.00  0.00    +0.000 A 
BRANCH   5  12
ATOM     11  C   UNL     1      -0.252   9.568  23.001  0.00  0.00    +0.000 C 
ATOM     12  O   UNL     1      -0.419   9.821  21.609  0.00  0.00    +0.000 OA
ENDBRANCH   5  12
ENDBRANCH   1   8
BRANCH   3  13
ATOM     13  C   UNL     1       4.839   5.722  17.291  0.00  0.00    +0.000 C 
ATOM     14  C   UNL     1       6.268   6.174  17.594  0.00  0.00    +0.000 C 
BRANCH  13  15
ATOM     15  C   UNL     1       4.715   4.188  17.349  0.00  0.00    +0.000 C 
BRANCH  15  16
ATOM     16  C   UNL     1       3.248   3.731  17.328  0.00  0.00    +0.000 C 
BRANCH  16  17
ATOM     17  C   UNL     1       2.661   3.551  18.709  0.00  0.00    +0.000 A 
ATOM     18  C   UNL     1       1.364   3.986  19.005  0.00  0.00    +0.000 A 
ATOM     19  C   UNL     1       0.824   3.793  20.281  0.00  0.00    +0.000 A 
ATOM     20  C   UNL     1       1.579   3.166  21.270  0.00  0.00    +0.000 A 
ATOM     21  C   UNL     1       2.873   2.731  20.986  0.00  0.00    +0.000 A 
ATOM     22  C   UNL     1       3.412   2.926  19.712  0.00  0.00    +0.000 A 
ENDBRANCH  16  17
ENDBRANCH  15  16
ENDBRANCH  13  15
ENDBRANCH   3  13
TORSDOF 6
ENDMDL
MODEL 4
REMARK VINA RESULT:      -7.0      2.636      6.455
REMARK  Name = 
REMARK  8 active torsions:
REMARK  status: ('A' for Active; 'I' for Inactive)
REMARK    1  A    between atoms: C_1  and  O_2
REMARK    2  A    between atoms: O_2  and  C_3
REMARK    3  A    between atoms: C_6  and  C_7
REMARK    4  A    between atoms: N_9  and  C_10
REMARK    5  A    between atoms: C_10  and  C_11
REMARK    6  A    between atoms: C_10  and  C_12
REMARK    7  A    between atoms: C_12  and  C_13
REMARK    8  A    between atoms: C_13  and  C_14
REMARK                            x       y       z     vdW  Elec       q    Type
REMARK                         _______ _______ _______ _____ _____    ______ ____
ROOT
ATOM      1  C   UNL     1       4.392   5.702  18.582  0.00  0.00    +0.000 C 
ATOM      2  O   UNL     1       5.112   5.600  19.573  0.00  0.00    +0.000 OA
ATOM      3  N   UNL     1       3.077   6.116  18.663  0.00  0.00    +0.000 N 
ATOM      4  H   UNL     1       2.558   6.333  17.828  0.00  0.00    +0.000 HD
ENDROOT
BRANCH   1   8
ATOM      5  C   UNL     1       5.926   4.566  14.711  0.00  0.00    +0.000 A 
ATOM      6  C   UNL     1       5.873   3.656  15.765  0.00  0.00    +0.000 A 
ATOM      7  C   UNL     1       5.372   4.046  17.011  0.00  0.00    +0.000 A 
ATOM      8  C   UNL     1       4.934   5.361  17.228  0.00  0.00    +0.000 A 
ATOM      9  C   UNL     1       5.006   6.275  16.169  0.00  0.00    +0.000 A 
ATOM     10  C   UNL     1       5.505   5.879  14.919  0.00  0.00    +0.000 A 
BRANCH   5  12
ATOM     11  C   UNL     1       5.493   3.532  12.632  0.00  0.00    +0.000 C 
ATOM     12  O   UNL     1       6.441   4.082  13.541  0.00  0.00    +0.000 OA
ENDBRANCH   5  12
ENDBRANCH   1   8
BRANCH   3  13
ATOM     13  C   UNL     1       2.462   6.484  19.935  0.00  0.00    +0.000 C 
ATOM     14  C   UNL     1       1.908   7.907  19.849  0.00  0.00    +0.000 C 
BRANCH  13  15
ATOM     15  C   UNL     1       1.359   5.477  20.310  0.00  0.00    +0.000 C 
BRANCH  15  16
ATOM     16  C   UNL     1       1.931   4.237  21.014  0.00  0.00    +0.000 C 
BRANCH  16  17
ATOM     17  C   UNL     1       2.511   3.223  20.054  0.00  0.00    +0.000 A 
ATOM     18  C   UNL     1       3.687   2.530  20.361  0.00  0.00    +0.000 A 
ATOM     19  C   UNL     1       4.201   1.577  19.474  0.00  0.00    +0.000 A 
ATOM     20  C   UNL     1       3.543   1.313  18.275  0.00  0.00    +0.000 A 
ATOM     21  C   UNL     1       2.371   2.000  17.960  0.00  0.00    +0.000 A 
ATOM     22  C   UNL     1       1.860   2.953  18.845  0.00  0.00    +0.000 A 
ENDBRANCH  16  17
ENDBRANCH  15  16
ENDBRANCH  13  15
ENDBRANCH   3  13
TORSDOF 6
ENDMDL
MODEL 5
REMARK VINA RESULT:      -7.0      2.449      6.470
REMARK  Name = 
REMARK  8 active torsions:
REMARK  status: ('A' for Active; 'I' for Inactive)
REMARK    1  A    between atoms: C_1  and  O_2
REMARK    2  A    between atoms: O_2  and  C_3
REMARK    3  A    between atoms: C_6  and  C_7
REMARK    4  A    between atoms: N_9  and  C_10
REMARK    5  A    between atoms: C_10  and  C_11
REMARK    6  A    between atoms: C_10  and  C_12
REMARK    7  A    between atoms: C_12  and  C_13
REMARK    8  A    between atoms: C_13  and  C_14
REMARK                            x       y       z     vdW  Elec       q    Type
REMARK                         _______ _______ _______ _____ _____    ______ ____
ROOT
ATOM      1  C   UNL     1       3.325   3.786  17.515  0.00  0.00    +0.000 C 
ATOM      2  O   UNL     1       2.274   3.459  16.971  0.00  0.00    +0.000 OA
ATOM      3  N   UNL     1       3.476   3.795  18.889  0.00  0.00    +0.000 N 
ATOM      4  H   UNL     1       4.385   3.922  19.300  0.00  0.00    +0.000 HD
ENDROOT
BRANCH   1   8
ATOM      5  C   UNL     1       6.773   5.048  15.245  0.00  0.00    +0.000 A 
ATOM      6  C   UNL     1       6.480   5.606  16.488  0.00  0.00    +0.000 A 
ATOM      7  C   UNL     1       5.357   5.182  17.206  0.00  0.00    +0.000 A 
ATOM      8  C   UNL     1       4.498   4.205  16.682  0.00  0.00    +0.000 A 
ATOM      9  C   UNL     1       4.789   3.661  15.425  0.00  0.00    +0.000 A 
ATOM     10  C   UNL     1       5.918   4.085  14.709  0.00  0.00    +0.000 A 
BRANCH   5  12
ATOM     11  C   UNL     1       7.980   5.284  13.229  0.00  0.00    +0.000 C 
ATOM     12  O   UNL     1       7.887   5.541  14.626  0.00  0.00    +0.000 OA
ENDBRANCH   5  12
ENDBRANCH   1   8
BRANCH   3  13
ATOM     13  C   UNL     1       2.397   3.391  19.784  0.00  0.00    +0.000 C 
ATOM     14  C   UNL     1       2.983   2.799  21.066  0.00  0.00    +0.000 C 
BRANCH  13  15
ATOM     15  C   UNL     1       1.476   4.588  20.091  0.00  0.00    +0.000 C 
BRANCH  15  16
ATOM     16  C   UNL     1       2.261   5.784  20.651  0.00  0.00    +0.000 C 
BRANCH  16  17
ATOM     17  C   UNL     1       2.069   7.051  19.849  0.00  0.00    +0.000 A 
ATOM     18  C   UNL     1       2.519   7.143  18.527  0.00  0.00    +0.000 A 
ATOM     19  C   UNL     1       2.315   8.313  17.787  0.00  0.00    +0.000 A 
ATOM     20  C   UNL     1       1.662   9.399  18.367  0.00  0.00    +0.000 A 
ATOM     21  C   UNL     1       1.212   9.318  19.684  0.00  0.00    +0.000 A 
ATOM     22  C   UNL     1       1.418   8.150  20.422  0.00  0.00    +0.000 A 
ENDBRANCH  16  17
ENDBRANCH  15  16
ENDBRANCH  13  15
ENDBRANCH   3  13
TORSDOF 6
ENDMDL
MODEL 6
REMARK VINA RESULT:      -6.9      0.995      1.581
REMARK  Name = 
REMARK  8 active torsions:
REMARK  status: ('A' for Active; 'I' for Inactive)
REMARK    1  A    between atoms: C_1  and  O_2
REMARK    2  A    between atoms: O_2  and  C_3
REMARK    3  A    between atoms: C_6  and  C_7
REMARK    4  A    between atoms: N_9  and  C_10
REMARK    5  A    between atoms: C_10  and  C_11
REMARK    6  A    between atoms: C_10  and  C_12
REMARK    7  A    between atoms: C_12  and  C_13
REMARK    8  A    between atoms: C_13  and  C_14
REMARK                            x       y       z     vdW  Elec       q    Type
REMARK                         _______ _______ _______ _____ _____    ______ ____
ROOT
ATOM      1  C   UNL     1       2.457   5.588  19.678  0.00  0.00    +0.000 C 
ATOM      2  O   UNL     1       2.594   5.122  20.807  0.00  0.00    +0.000 OA
ATOM      3  N   UNL     1       2.634   4.828  18.538  0.00  0.00    +0.000 N 
ATOM      4  H   UNL     1       2.371   5.193  17.637  0.00  0.00    +0.000 HD
ENDROOT
BRANCH   1   8
ATOM      5  C   UNL     1       1.410   9.724  19.026  0.00  0.00    +0.000 A 
ATOM      6  C   UNL     1       1.982   8.953  18.015  0.00  0.00    +0.000 A 
ATOM      7  C   UNL     1       2.313   7.615  18.249  0.00  0.00    +0.000 A 
ATOM      8  C   UNL     1       2.095   7.031  19.506  0.00  0.00    +0.000 A 
ATOM      9  C   UNL     1       1.536   7.817  20.522  0.00  0.00    +0.000 A 
ATOM     10  C   UNL     1       1.201   9.157  20.283  0.00  0.00    +0.000 A 
BRANCH   5  12
ATOM     11  C   UNL     1       1.057  11.933  19.783  0.00  0.00    +0.000 C 
ATOM     12  O   UNL     1       1.135  11.021  18.693  0.00  0.00    +0.000 OA
ENDBRANCH   5  12
ENDBRANCH   1   8
BRANCH   3  13
ATOM     13  C   UNL     1       2.974   3.411  18.602  0.00  0.00    +0.000 C 
ATOM     14  C   UNL     1       1.770   2.570  18.175  0.00  0.00    +0.000 C 
BRANCH  13  15
ATOM     15  C   UNL     1       4.204   3.112  17.723  0.00  0.00    +0.000 C 
BRANCH  15  16
ATOM     16  C   UNL     1       4.492   4.254  16.737  0.00  0.00    +0.000 C 
BRANCH  16  17
ATOM     17  C   UNL     1       5.606   5.168  17.195  0.00  0.00    +0.000 A 
ATOM     18  C   UNL     1       5.663   6.501  16.773  0.00  0.00    +0.000 A 
ATOM     19  C   UNL     1       6.687   7.344  17.222  0.00  0.00    +0.000 A 
ATOM     20  C   UNL     1       7.659   6.857  18.092  0.00  0.00    +0.000 A 
ATOM     21  C   UNL     1       7.612   5.530  18.516  0.00  0.00    +0.000 A 
ATOM     22  C   UNL     1       6.591   4.689  18.066  0.00  0.00    +0.000 A 
ENDBRANCH  16  17
ENDBRANCH  15  16
ENDBRANCH  13  15
ENDBRANCH   3  13
TORSDOF 6
ENDMDL
MODEL 7
REMARK VINA RESULT:      -6.9      0.736      1.667
REMARK  Name = 
REMARK  8 active torsions:
REMARK  status: ('A' for Active; 'I' for Inactive)
REMARK    1  A    between atoms: C_1  and  O_2
REMARK    2  A    between atoms: O_2  and  C_3
REMARK    3  A    between atoms: C_6  and  C_7
REMARK    4  A    between atoms: N_9  and  C_10
REMARK    5  A    between atoms: C_10  and  C_11
REMARK    6  A    between atoms: C_10  and  C_12
REMARK    7  A    between atoms: C_12  and  C_13
REMARK    8  A    between atoms: C_13  and  C_14
REMARK                            x       y       z     vdW  Elec       q    Type
REMARK                         _______ _______ _______ _____ _____    ______ ____
ROOT
ATOM      1  C   UNL     1       2.692   6.005  19.169  0.00  0.00    +0.000 C 
ATOM      2  O   UNL     1       2.950   5.531  20.273  0.00  0.00    +0.000 OA
ATOM      3  N   UNL     1       2.865   5.292  17.999  0.00  0.00    +0.000 N 
ATOM      4  H   UNL     1       2.508   5.649  17.128  0.00  0.00    +0.000 HD
ENDROOT
BRANCH   1   8
ATOM      5  C   UNL     1       1.219  10.059  19.017  0.00  0.00    +0.000 A 
ATOM      6  C   UNL     1       1.078   9.280  20.164  0.00  0.00    +0.000 A 
ATOM      7  C   UNL     1       1.563   7.968  20.190  0.00  0.00    +0.000 A 
ATOM      8  C   UNL     1       2.180   7.409  19.062  0.00  0.00    +0.000 A 
ATOM      9  C   UNL     1       2.303   8.193  17.908  0.00  0.00    +0.000 A 
ATOM     10  C   UNL     1       1.820   9.509  17.886  0.00  0.00    +0.000 A 
BRANCH   5  12
ATOM     11  C   UNL     1       0.339  11.757  20.404  0.00  0.00    +0.000 C 
ATOM     12  O   UNL     1       0.701  11.322  19.097  0.00  0.00    +0.000 OA
ENDBRANCH   5  12
ENDBRANCH   1   8
BRANCH   3  13
ATOM     13  C   UNL     1       3.346   3.915  18.000  0.00  0.00    +0.000 C 
ATOM     14  C   UNL     1       2.190   2.964  17.687  0.00  0.00    +0.000 C 
BRANCH  13  15
ATOM     15  C   UNL     1       4.497   3.746  16.990  0.00  0.00    +0.000 C 
BRANCH  15  16
ATOM     16  C   UNL     1       4.939   5.092  16.396  0.00  0.00    +0.000 C 
BRANCH  16  17
ATOM     17  C   UNL     1       6.066   5.741  17.167  0.00  0.00    +0.000 A 
ATOM     18  C   UNL     1       6.440   7.066  16.920  0.00  0.00    +0.000 A 
ATOM     19  C   UNL     1       7.470   7.662  17.656  0.00  0.00    +0.000 A 
ATOM     20  C   UNL     1       8.133   6.936  18.642  0.00  0.00    +0.000 A 
ATOM     21  C   UNL     1       7.769   5.614  18.895  0.00  0.00    +0.000 A 
ATOM     22  C   UNL     1       6.742   5.019  18.158  0.00  0.00    +0.000 A 
ENDBRANCH  16  17
ENDBRANCH  15  16
ENDBRANCH  13  15
ENDBRANCH   3  13
TORSDOF 6
ENDMDL
MODEL 8
REMARK VINA RESULT:      -6.9      2.181      4.219
REMARK  Name = 
REMARK  8 active torsions:
REMARK  status: ('A' for Active; 'I' for Inactive)
REMARK    1  A    between atoms: C_1  and  O_2
REMARK    2  A    between atoms: O_2  and  C_3
REMARK    3  A    between atoms: C_6  and  C_7
REMARK    4  A    between atoms: N_9  and  C_10
REMARK    5  A    between atoms: C_10  and  C_11
REMARK    6  A    between atoms: C_10  and  C_12
REMARK    7  A    between atoms: C_12  and  C_13
REMARK    8  A    between atoms: C_13  and  C_14
REMARK                            x       y       z     vdW  Elec       q    Type
REMARK                         _______ _______ _______ _____ _____    ______ ____
ROOT
ATOM      1  C   UNL     1       3.492   6.819  17.625  0.00  0.00    +0.000 C 
ATOM      2  O   UNL     1       4.329   7.329  16.884  0.00  0.00    +0.000 OA
ATOM      3  N   UNL     1       3.345   5.450  17.743  0.00  0.00    +0.000 N 
ATOM      4  H   UNL     1       2.759   5.061  18.462  0.00  0.00    +0.000 HD
ENDROOT
BRANCH   1   8
ATOM      5  C   UNL     1       0.919   9.265  20.079  0.00  0.00    +0.000 A 
ATOM      6  C   UNL     1       1.461   8.074  20.560  0.00  0.00    +0.000 A 
ATOM      7  C   UNL     1       2.292   7.297  19.746  0.00  0.00    +0.000 A 
ATOM      8  C   UNL     1       2.579   7.690  18.432  0.00  0.00    +0.000 A 
ATOM      9  C   UNL     1       2.017   8.880  17.950  0.00  0.00    +0.000 A 
ATOM     10  C   UNL     1       1.188   9.659  18.769  0.00  0.00    +0.000 A 
BRANCH   5  12
ATOM     11  C   UNL     1      -0.308   9.203  22.096  0.00  0.00    +0.000 C 
ATOM     12  O   UNL     1       0.114   9.941  20.954  0.00  0.00    +0.000 OA
ENDBRANCH   5  12
ENDBRANCH   1   8
BRANCH   3  13
ATOM     13  C   UNL     1       4.195   4.518  17.009  0.00  0.00    +0.000 C 
ATOM     14  C   UNL     1       5.498   4.292  17.777  0.00  0.00    +0.000 C 
BRANCH  13  15
ATOM     15  C   UNL     1       3.453   3.190  16.766  0.00  0.00    +0.000 C 
BRANCH  15  16
ATOM     16  C   UNL     1       3.681   2.190  17.909  0.00  0.00    +0.000 C 
BRANCH  16  17
ATOM     17  C   UNL     1       2.833   2.475  19.128  0.00  0.00    +0.000 A 
ATOM     18  C   UNL     1       3.399   2.520  20.407  0.00  0.00    +0.000 A 
ATOM     19  C   UNL     1       2.606   2.807  21.524  0.00  0.00    +0.000 A 
ATOM     20  C   UNL     1       1.243   3.047  21.369  0.00  0.00    +0.000 A 
ATOM     21  C   UNL     1       0.669   3.002  20.099  0.00  0.00    +0.000 A 
ATOM     22  C   UNL     1       1.460   2.714  18.984  0.00  0.00    +0.000 A 
ENDBRANCH  16  17
ENDBRANCH  15  16
ENDBRANCH  13  15
ENDBRANCH   3  13
TORSDOF 6
ENDMDL
MODEL 9
REMARK VINA RESULT:      -6.9      2.175      4.144
REMARK  Name = 
REMARK  8 active torsions:
REMARK  status: ('A' for Active; 'I' for Inactive)
REMARK    1  A    between atoms: C_1  and  O_2
REMARK    2  A    between atoms: O_2  and  C_3
REMARK    3  A    between atoms: C_6  and  C_7
REMARK    4  A    between atoms: N_9  and  C_10
REMARK    5  A    between atoms: C_10  and  C_11
REMARK    6  A    between atoms: C_10  and  C_12
REMARK    7  A    between atoms: C_12  and  C_13
REMARK    8  A    between atoms: C_13  and  C_14
REMARK                            x       y       z     vdW  Elec       q    Type
REMARK                         _______ _______ _______ _____ _____    ______ ____
ROOT
ATOM      1  C   UNL     1       3.240   7.362  17.771  0.00  0.00    +0.000 C 
ATOM      2  O   UNL     1       3.425   7.925  16.695  0.00  0.00    +0.000 OA
ATOM      3  N   UNL     1       3.868   6.176  18.102  0.00  0.00    +0.000 N 
ATOM      4  H   UNL     1       3.814   5.817  19.041  0.00  0.00    +0.000 HD
ENDROOT
BRANCH   1   8
ATOM      5  C   UNL     1       0.595   8.992  20.767  0.00  0.00    +0.000 A 
ATOM      6  C   UNL     1       1.301   7.811  20.989  0.00  0.00    +0.000 A 
ATOM      7  C   UNL     1       2.152   7.301  20.003  0.00  0.00    +0.000 A 
ATOM      8  C   UNL     1       2.297   7.955  18.772  0.00  0.00    +0.000 A 
ATOM      9  C   UNL     1       1.571   9.133  18.549  0.00  0.00    +0.000 A 
ATOM     10  C   UNL     1       0.721   9.644  19.541  0.00  0.00    +0.000 A 
BRANCH   5  12
ATOM     11  C   UNL     1      -0.423  10.800  21.895  0.00  0.00    +0.000 C 
ATOM     12  O   UNL     1      -0.215   9.395  21.792  0.00  0.00    +0.000 OA
ENDBRANCH   5  12
ENDBRANCH   1   8
BRANCH   3  13
ATOM     13  C   UNL     1       4.814   5.528  17.201  0.00  0.00    +0.000 C 
ATOM     14  C   UNL     1       6.242   5.929  17.573  0.00  0.00    +0.000 C 
BRANCH  13  15
ATOM     15  C   UNL     1       4.635   3.998  17.244  0.00  0.00    +0.000 C 
BRANCH  15  16
ATOM     16  C   UNL     1       3.153   3.596  17.264  0.00  0.00    +0.000 C 
BRANCH  16  17
ATOM     17  C   UNL     1       2.603   3.419  18.661  0.00  0.00    +0.000 A 
ATOM     18  C   UNL     1       3.399   2.905  19.690  0.00  0.00    +0.000 A 
ATOM     19  C   UNL     1       2.884   2.768  20.985  0.00  0.00    +0.000 A 
ATOM     20  C   UNL     1       1.570   3.141  21.256  0.00  0.00    +0.000 A 
ATOM     21  C   UNL     1       0.768   3.652  20.236  0.00  0.00    +0.000 A 
ATOM     22  C   UNL     1       1.282   3.787  18.944  0.00  0.00    +0.000 A 
ENDBRANCH  16  17
ENDBRANCH  15  16
ENDBRANCH  13  15
ENDBRANCH   3  13
TORSDOF 6
ENDMDL
