MODEL 1
REMARK VINA RESULT:      -6.3      0.000      0.000
REMARK  Name = 
REMARK  4 active torsions:
REMARK  status: ('A' for Active; 'I' for Inactive)
REMARK    1  A    between atoms: C_8  and  O_9
REMARK    2  A    between atoms: C_10  and  O_11
REMARK    3  A    between atoms: C_18  and  O_19
REMARK    4  A    between atoms: C_21  and  O_22
REMARK                            x       y       z     vdW  Elec       q    Type
REMARK                         _______ _______ _______ _____ _____    ______ ____
ROOT
ATOM      1  O   UNL     1       5.311   3.578  16.215  0.00  0.00    +0.000 OA
ATOM      2  C   UNL     1       5.182   4.104  17.321  0.00  0.00    +0.000 C 
ATOM      3  O   UNL     1       4.279   3.493  18.267  0.00  0.00    +0.000 OA
ATOM      4  C   UNL     1       3.602   2.055  18.101  0.00  0.00    +0.000 C 
ATOM      5  C   UNL     1       2.008   1.729  18.369  0.00  0.00    +0.000 C 
ATOM      6  C   UNL     1       1.473   1.628  19.810  0.00  0.00    +0.000 C 
ATOM      7  C   UNL     1       0.977   2.693  20.464  0.00  0.00    +0.000 C 
ATOM      8  C   UNL     1       1.981   3.733  20.892  0.00  0.00    +0.000 C 
ATOM      9  C   UNL     1       1.957   4.762  19.747  0.00  0.00    +0.000 C 
ATOM     10  C   UNL     1       3.078   5.769  19.760  0.00  0.00    +0.000 C 
ATOM     11  C   UNL     1       2.743   6.669  18.569  0.00  0.00    +0.000 C 
ATOM     12  C   UNL     1       3.880   7.476  18.268  0.00  0.00    +0.000 C 
ATOM     13  C   UNL     1       4.345   7.277  17.016  0.00  0.00    +0.000 C 
ATOM     14  C   UNL     1       5.709   6.818  17.080  0.00  0.00    +0.000 A 
ATOM     15  C   UNL     1       6.518   8.001  17.101  0.00  0.00    +0.000 A 
ATOM     16  C   UNL     1       7.704   7.990  17.770  0.00  0.00    +0.000 A 
ATOM     17  C   UNL     1       8.157   6.771  18.238  0.00  0.00    +0.000 A 
ATOM     18  C   UNL     1       7.403   5.545  18.071  0.00  0.00    +0.000 A 
ATOM     19  C   UNL     1       6.073   5.506  17.575  0.00  0.00    +0.000 A 
ENDROOT
BRANCH   8  20
ATOM     20  O   UNL     1       3.254   3.140  21.093  0.00  0.00    +0.000 OA
ATOM     21  H   UNL     1       3.173   2.451  21.780  0.00  0.00    +0.000 HD
ENDBRANCH   8  20
BRANCH   9  22
ATOM     22  O   UNL     1       0.711   5.463  19.730  0.00  0.00    +0.000 OA
ATOM     23  H   UNL     1       0.166   5.035  19.049  0.00  0.00    +0.000 HD
ENDBRANCH   9  22
BRANCH  16  24
ATOM     24  O   UNL     1       8.373   9.150  18.015  0.00  0.00    +0.000 OA
ATOM     25  H   UNL     1       7.829   9.735  18.592  0.00  0.00    +0.000 HD
ENDBRANCH  16  24
BRANCH  18  26
ATOM     26  O   UNL     1       8.095   4.404  18.397  0.00  0.00    +0.000 OA
ATOM     27  H   UNL     1       9.058   4.586  18.375  0.00  0.00    +0.000 HD
ENDBRANCH  18  26
TORSDOF 4
ENDMDL
MODEL 2
REMARK VINA RESULT:      -6.2      9.285     12.185
REMARK  Name = 
REMARK  4 active torsions:
REMARK  status: ('A' for Active; 'I' for Inactive)
REMARK    1  A    between atoms: C_8  and  O_9
REMARK    2  A    between atoms: C_10  and  O_11
REMARK    3  A    between atoms: C_18  and  O_19
REMARK    4  A    between atoms: C_21  and  O_22
REMARK                            x       y       z     vdW  Elec       q    Type
REMARK                         _______ _______ _______ _____ _____    ______ ____
ROOT
ATOM      1  O   UNL     1      -5.915  12.188  20.887  0.00  0.00    +0.000 OA
ATOM      2  C   UNL     1      -4.781  12.657  20.781  0.00  0.00    +0.000 C 
ATOM      3  O   UNL     1      -3.961  12.219  19.676  0.00  0.00    +0.000 OA
ATOM      4  C   UNL     1      -4.473  11.355  18.433  0.00  0.00    +0.000 C 
ATOM      5  C   UNL     1      -3.694  10.037  17.820  0.00  0.00    +0.000 C 
ATOM      6  C   UNL     1      -2.430  10.219  16.958  0.00  0.00    +0.000 C 
ATOM      7  C   UNL     1      -1.197  10.229  17.493  0.00  0.00    +0.000 C 
ATOM      8  C   UNL     1      -0.839  11.448  18.306  0.00  0.00    +0.000 C 
ATOM      9  C   UNL     1      -1.170  11.037  19.752  0.00  0.00    +0.000 C 
ATOM     10  C   UNL     1      -1.189  12.162  20.754  0.00  0.00    +0.000 C 
ATOM     11  C   UNL     1      -1.473  11.440  22.073  0.00  0.00    +0.000 C 
ATOM     12  C   UNL     1      -1.830  12.406  23.060  0.00  0.00    +0.000 C 
ATOM     13  C   UNL     1      -3.068  12.210  23.561  0.00  0.00    +0.000 C 
ATOM     14  C   UNL     1      -3.877  13.373  23.306  0.00  0.00    +0.000 A 
ATOM     15  C   UNL     1      -3.659  14.251  24.417  0.00  0.00    +0.000 A 
ATOM     16  C   UNL     1      -3.720  15.599  24.229  0.00  0.00    +0.000 A 
ATOM     17  C   UNL     1      -4.181  16.048  23.005  0.00  0.00    +0.000 A 
ATOM     18  C   UNL     1      -4.553  15.144  21.935  0.00  0.00    +0.000 A 
ATOM     19  C   UNL     1      -4.322  13.744  21.977  0.00  0.00    +0.000 A 
ENDROOT
BRANCH   8  20
ATOM     20  O   UNL     1      -1.571  12.577  17.855  0.00  0.00    +0.000 OA
ATOM     21  H   UNL     1      -2.521  12.416  18.012  0.00  0.00    +0.000 HD
ENDBRANCH   8  20
BRANCH   9  22
ATOM     22  O   UNL     1      -0.263  10.031  20.207  0.00  0.00    +0.000 OA
ATOM     23  H   UNL     1       0.301  10.453  20.877  0.00  0.00    +0.000 HD
ENDBRANCH   9  22
BRANCH  16  24
ATOM     24  O   UNL     1      -3.283  16.454  25.193  0.00  0.00    +0.000 OA
ATOM     25  H   UNL     1      -2.353  16.720  25.007  0.00  0.00    +0.000 HD
ENDBRANCH  16  24
BRANCH  18  26
ATOM     26  O   UNL     1      -5.191  15.748  20.878  0.00  0.00    +0.000 OA
ATOM     27  H   UNL     1      -4.818  15.414  20.036  0.00  0.00    +0.000 HD
ENDBRANCH  18  26
TORSDOF 4
ENDMDL
MODEL 3
REMARK VINA RESULT:      -6.1      9.357     11.326
REMARK  Name = 
REMARK  4 active torsions:
REMARK  status: ('A' for Active; 'I' for Inactive)
REMARK    1  A    between atoms: C_8  and  O_9
REMARK    2  A    between atoms: C_10  and  O_11
REMARK    3  A    between atoms: C_18  and  O_19
REMARK    4  A    between atoms: C_21  and  O_22
REMARK                            x       y       z     vdW  Elec       q    Type
REMARK                         _______ _______ _______ _____ _____    ______ ____
ROOT
ATOM      1  O   UNL     1      11.470  16.228  21.377  0.00  0.00    +0.000 OA
ATOM      2  C   UNL     1      10.621  15.465  20.915  0.00  0.00    +0.000 C 
ATOM      3  O   UNL     1       9.450  15.182  21.712  0.00  0.00    +0.000 OA
ATOM      4  C   UNL     1       9.035  15.955  23.047  0.00  0.00    +0.000 C 
ATOM      5  C   UNL     1       8.543  15.226  24.442  0.00  0.00    +0.000 C 
ATOM      6  C   UNL     1       7.125  14.632  24.545  0.00  0.00    +0.000 C 
ATOM      7  C   UNL     1       6.862  13.353  24.227  0.00  0.00    +0.000 C 
ATOM      8  C   UNL     1       6.917  13.011  22.759  0.00  0.00    +0.000 C 
ATOM      9  C   UNL     1       8.350  12.486  22.556  0.00  0.00    +0.000 C 
ATOM     10  C   UNL     1       8.788  12.343  21.122  0.00  0.00    +0.000 C 
ATOM     11  C   UNL     1      10.193  11.751  21.250  0.00  0.00    +0.000 C 
ATOM     12  C   UNL     1      10.853  11.851  19.990  0.00  0.00    +0.000 C 
ATOM     13  C   UNL     1      11.981  12.591  20.048  0.00  0.00    +0.000 C 
ATOM     14  C   UNL     1      11.863  13.715  19.155  0.00  0.00    +0.000 A 
ATOM     15  C   UNL     1      12.333  13.253  17.882  0.00  0.00    +0.000 A 
ATOM     16  C   UNL     1      11.799  13.773  16.742  0.00  0.00    +0.000 A 
ATOM     17  C   UNL     1      10.961  14.864  16.874  0.00  0.00    +0.000 A 
ATOM     18  C   UNL     1      10.616  15.428  18.164  0.00  0.00    +0.000 A 
ATOM     19  C   UNL     1      10.959  14.820  19.400  0.00  0.00    +0.000 A 
ENDROOT
BRANCH   8  20
ATOM     20  O   UNL     1       6.616  14.153  21.973  0.00  0.00    +0.000 OA
ATOM     21  H   UNL     1       6.243  13.856  21.121  0.00  0.00    +0.000 HD
ENDBRANCH   8  20
BRANCH   9  22
ATOM     22  O   UNL     1       8.521  11.230  23.216  0.00  0.00    +0.000 OA
ATOM     23  H   UNL     1       9.284  10.800  22.795  0.00  0.00    +0.000 HD
ENDBRANCH   9  22
BRANCH  16  24
ATOM     24  O   UNL     1      12.042  13.191  15.536  0.00  0.00    +0.000 OA
ATOM     25  H   UNL     1      12.092  12.213  15.640  0.00  0.00    +0.000 HD
ENDBRANCH  16  24
BRANCH  18  26
ATOM     26  O   UNL     1       9.956  16.631  18.099  0.00  0.00    +0.000 OA
ATOM     27  H   UNL     1      10.604  17.364  18.152  0.00  0.00    +0.000 HD
ENDBRANCH  18  26
TORSDOF 4
ENDMDL
MODEL 4
REMARK VINA RESULT:      -6.0      8.474     10.823
REMARK  Name = 
REMARK  4 active torsions:
REMARK  status: ('A' for Active; 'I' for Inactive)
REMARK    1  A    between atoms: C_8  and  O_9
REMARK    2  A    between atoms: C_10  and  O_11
REMARK    3  A    between atoms: C_18  and  O_19
REMARK    4  A    between atoms: C_21  and  O_22
REMARK                            x       y       z     vdW  Elec       q    Type
REMARK                         _______ _______ _______ _____ _____    ______ ____
ROOT
ATOM      1  O   UNL     1      -2.094  12.158  22.156  0.00  0.00    +0.000 OA
ATOM      2  C   UNL     1      -2.299  12.481  20.986  0.00  0.00    +0.000 C 
ATOM      3  O   UNL     1      -3.655  12.782  20.588  0.00  0.00    +0.000 OA
ATOM      4  C   UNL     1      -4.890  12.965  21.585  0.00  0.00    +0.000 C 
ATOM      5  C   UNL     1      -6.377  12.284  21.376  0.00  0.00    +0.000 C 
ATOM      6  C   UNL     1      -7.351  12.862  20.331  0.00  0.00    +0.000 C 
ATOM      7  C   UNL     1      -7.384  12.416  19.063  0.00  0.00    +0.000 C 
ATOM      8  C   UNL     1      -6.207  12.791  18.199  0.00  0.00    +0.000 C 
ATOM      9  C   UNL     1      -5.263  11.581  18.315  0.00  0.00    +0.000 C 
ATOM     10  C   UNL     1      -3.868  11.798  17.788  0.00  0.00    +0.000 C 
ATOM     11  C   UNL     1      -3.214  10.428  17.979  0.00  0.00    +0.000 C 
ATOM     12  C   UNL     1      -1.803  10.564  17.816  0.00  0.00    +0.000 C 
ATOM     13  C   UNL     1      -1.112  10.205  18.919  0.00  0.00    +0.000 C 
ATOM     14  C   UNL     1      -0.343  11.328  19.389  0.00  0.00    +0.000 A 
ATOM     15  C   UNL     1       0.906  11.266  18.690  0.00  0.00    +0.000 A 
ATOM     16  C   UNL     1       1.567  12.420  18.395  0.00  0.00    +0.000 A 
ATOM     17  C   UNL     1       1.087  13.588  18.957  0.00  0.00    +0.000 A 
ATOM     18  C   UNL     1      -0.093  13.618  19.799  0.00  0.00    +0.000 A 
ATOM     19  C   UNL     1      -0.952  12.503  19.982  0.00  0.00    +0.000 A 
ENDROOT
BRANCH   8  20
ATOM     20  O   UNL     1      -5.629  14.007  18.649  0.00  0.00    +0.000 OA
ATOM     21  H   UNL     1      -5.293  13.875  19.556  0.00  0.00    +0.000 HD
ENDBRANCH   8  20
BRANCH   9  22
ATOM     22  O   UNL     1      -5.828  10.441  17.664  0.00  0.00    +0.000 OA
ATOM     23  H   UNL     1      -6.359  10.782  16.926  0.00  0.00    +0.000 HD
ENDBRANCH   9  22
BRANCH  16  24
ATOM     24  O   UNL     1       2.618  12.415  17.530  0.00  0.00    +0.000 OA
ATOM     25  H   UNL     1       2.290  12.503  16.605  0.00  0.00    +0.000 HD
ENDBRANCH  16  24
BRANCH  18  26
ATOM     26  O   UNL     1      -0.298  14.813  20.445  0.00  0.00    +0.000 OA
ATOM     27  H   UNL     1       0.387  14.935  21.135  0.00  0.00    +0.000 HD
ENDBRANCH  18  26
TORSDOF 4
ENDMDL
MODEL 5
REMARK VINA RESULT:      -6.0      1.227      1.360
REMARK  Name = 
REMARK  4 active torsions:
REMARK  status: ('A' for Active; 'I' for Inactive)
REMARK    1  A    between atoms: C_8  and  O_9
REMARK    2  A    between atoms: C_10  and  O_11
REMARK    3  A    between atoms: C_18  and  O_19
REMARK    4  A    between atoms: C_21  and  O_22
REMARK                            x       y       z     vdW  Elec       q    Type
REMARK                         _______ _______ _______ _____ _____    ______ ____
ROOT
ATOM      1  O   UNL     1       6.582   3.324  18.034  0.00  0.00    +0.000 OA
ATOM      2  C   UNL     1       6.028   4.257  18.615  0.00  0.00    +0.000 C 
ATOM      3  O   UNL     1       4.807   3.985  19.336  0.00  0.00    +0.000 OA
ATOM      4  C   UNL     1       4.228   2.529  19.652  0.00  0.00    +0.000 C 
ATOM      5  C   UNL     1       2.655   2.078  19.446  0.00  0.00    +0.000 C 
ATOM      6  C   UNL     1       1.581   2.540  20.450  0.00  0.00    +0.000 C 
ATOM      7  C   UNL     1       0.884   3.676  20.276  0.00  0.00    +0.000 C 
ATOM      8  C   UNL     1       1.650   4.959  20.479  0.00  0.00    +0.000 C 
ATOM      9  C   UNL     1       2.110   5.342  19.061  0.00  0.00    +0.000 C 
ATOM     10  C   UNL     1       3.149   6.431  18.992  0.00  0.00    +0.000 C 
ATOM     11  C   UNL     1       3.342   6.625  17.486  0.00  0.00    +0.000 C 
ATOM     12  C   UNL     1       4.519   7.400  17.267  0.00  0.00    +0.000 C 
ATOM     13  C   UNL     1       5.447   6.747  16.535  0.00  0.00    +0.000 C 
ATOM     14  C   UNL     1       6.659   6.620  17.302  0.00  0.00    +0.000 A 
ATOM     15  C   UNL     1       7.413   7.810  17.040  0.00  0.00    +0.000 A 
ATOM     16  C   UNL     1       8.227   8.315  18.009  0.00  0.00    +0.000 A 
ATOM     17  C   UNL     1       8.429   7.539  19.136  0.00  0.00    +0.000 A 
ATOM     18  C   UNL     1       7.783   6.255  19.321  0.00  0.00    +0.000 A 
ATOM     19  C   UNL     1       6.767   5.759  18.463  0.00  0.00    +0.000 A 
ENDROOT
BRANCH   8  20
ATOM     20  O   UNL     1       2.721   4.759  21.388  0.00  0.00    +0.000 OA
ATOM     21  H   UNL     1       2.351   4.587  22.274  0.00  0.00    +0.000 HD
ENDBRANCH   8  20
BRANCH   9  22
ATOM     22  O   UNL     1       0.991   5.724  18.257  0.00  0.00    +0.000 OA
ATOM     23  H   UNL     1       0.952   5.088  17.523  0.00  0.00    +0.000 HD
ENDBRANCH   9  22
BRANCH  16  24
ATOM     24  O   UNL     1       8.762   9.560  17.886  0.00  0.00    +0.000 OA
ATOM     25  H   UNL     1       8.509   9.949  17.017  0.00  0.00    +0.000 HD
ENDBRANCH  16  24
BRANCH  18  26
ATOM     26  O   UNL     1       8.262   5.527  20.383  0.00  0.00    +0.000 OA
ATOM     27  H   UNL     1       8.829   6.098  20.943  0.00  0.00    +0.000 HD
ENDBRANCH  18  26
TORSDOF 4
ENDMDL
MODEL 6
REMARK VINA RESULT:      -5.8      9.991     12.914
REMARK  Name = 
REMARK  4 active torsions:
REMARK  status: ('A' for Active; 'I' for Inactive)
REMARK    1  A    between atoms: C_8  and  O_9
REMARK    2  A    between atoms: C_10  and  O_11
REMARK    3  A    between atoms: C_18  and  O_19
REMARK    4  A    between atoms: C_21  and  O_22
REMARK                            x       y       z     vdW  Elec       q    Type
REMARK                         _______ _______ _______ _____ _____    ______ ____
ROOT
ATOM      1  O   UNL     1      -6.631  11.769  18.826  0.00  0.00    +0.000 OA
ATOM      2  C   UNL     1      -5.635  12.483  18.955  0.00  0.00    +0.000 C 
ATOM      3  O   UNL     1      -4.384  12.013  18.409  0.00  0.00    +0.000 OA
ATOM      4  C   UNL     1      -4.214  10.754  17.439  0.00  0.00    +0.000 C 
ATOM      5  C   UNL     1      -3.065   9.584  17.610  0.00  0.00    +0.000 C 
ATOM      6  C   UNL     1      -1.604   9.872  17.215  0.00  0.00    +0.000 C 
ATOM      7  C   UNL     1      -0.708  10.350  18.096  0.00  0.00    +0.000 C 
ATOM      8  C   UNL     1      -0.896  11.786  18.516  0.00  0.00    +0.000 C 
ATOM      9  C   UNL     1      -1.717  11.687  19.815  0.00  0.00    +0.000 C 
ATOM     10  C   UNL     1      -2.307  12.983  20.306  0.00  0.00    +0.000 C 
ATOM     11  C   UNL     1      -2.988  12.574  21.614  0.00  0.00    +0.000 C 
ATOM     12  C   UNL     1      -3.853  13.628  22.033  0.00  0.00    +0.000 C 
ATOM     13  C   UNL     1      -5.143  13.241  22.124  0.00  0.00    +0.000 C 
ATOM     14  C   UNL     1      -5.946  14.038  21.232  0.00  0.00    +0.000 A 
ATOM     15  C   UNL     1      -6.330  15.197  21.983  0.00  0.00    +0.000 A 
ATOM     16  C   UNL     1      -6.510  16.383  21.338  0.00  0.00    +0.000 A 
ATOM     17  C   UNL     1      -6.500  16.362  19.956  0.00  0.00    +0.000 A 
ATOM     18  C   UNL     1      -6.269  15.148  19.199  0.00  0.00    +0.000 A 
ATOM     19  C   UNL     1      -5.867  13.922  19.790  0.00  0.00    +0.000 A 
ENDROOT
BRANCH   8  20
ATOM     20  O   UNL     1      -1.545  12.522  17.491  0.00  0.00    +0.000 OA
ATOM     21  H   UNL     1      -2.201  13.117  17.901  0.00  0.00    +0.000 HD
ENDBRANCH   8  20
BRANCH   9  22
ATOM     22  O   UNL     1      -0.930  11.114  20.861  0.00  0.00    +0.000 OA
ATOM     23  H   UNL     1      -0.353  11.823  21.190  0.00  0.00    +0.000 HD
ENDBRANCH   9  22
BRANCH  16  24
ATOM     24  O   UNL     1      -6.634  17.542  22.041  0.00  0.00    +0.000 OA
ATOM     25  H   UNL     1      -7.433  18.033  21.741  0.00  0.00    +0.000 HD
ENDBRANCH  16  24
BRANCH  18  26
ATOM     26  O   UNL     1      -6.508  15.267  17.851  0.00  0.00    +0.000 OA
ATOM     27  H   UNL     1      -6.570  16.215  17.611  0.00  0.00    +0.000 HD
ENDBRANCH  18  26
TORSDOF 4
ENDMDL
MODEL 7
REMARK VINA RESULT:      -5.8      8.788     10.189
REMARK  Name = 
REMARK  4 active torsions:
REMARK  status: ('A' for Active; 'I' for Inactive)
REMARK    1  A    between atoms: C_8  and  O_9
REMARK    2  A    between atoms: C_10  and  O_11
REMARK    3  A    between atoms: C_18  and  O_19
REMARK    4  A    between atoms: C_21  and  O_22
REMARK                            x       y       z     vdW  Elec       q    Type
REMARK                         _______ _______ _______ _____ _____    ______ ____
ROOT
ATOM      1  O   UNL     1       8.898  10.493  20.764  0.00  0.00    +0.000 OA
ATOM      2  C   UNL     1       9.230  11.679  20.793  0.00  0.00    +0.000 C 
ATOM      3  O   UNL     1       8.809  12.478  21.920  0.00  0.00    +0.000 OA
ATOM      4  C   UNL     1       8.149  11.909  23.259  0.00  0.00    +0.000 C 
ATOM      5  C   UNL     1       6.815  12.543  23.993  0.00  0.00    +0.000 C 
ATOM      6  C   UNL     1       6.925  13.849  24.802  0.00  0.00    +0.000 C 
ATOM      7  C   UNL     1       6.726  15.055  24.241  0.00  0.00    +0.000 C 
ATOM      8  C   UNL     1       7.799  15.530  23.294  0.00  0.00    +0.000 C 
ATOM      9  C   UNL     1       7.286  15.099  21.909  0.00  0.00    +0.000 C 
ATOM     10  C   UNL     1       8.294  15.182  20.793  0.00  0.00    +0.000 C 
ATOM     11  C   UNL     1       7.481  14.765  19.565  0.00  0.00    +0.000 C 
ATOM     12  C   UNL     1       8.377  14.494  18.489  0.00  0.00    +0.000 C 
ATOM     13  C   UNL     1       8.286  13.224  18.040  0.00  0.00    +0.000 C 
ATOM     14  C   UNL     1       9.562  12.572  18.187  0.00  0.00    +0.000 A 
ATOM     15  C   UNL     1      10.287  12.856  16.983  0.00  0.00    +0.000 A 
ATOM     16  C   UNL     1      11.643  12.967  17.028  0.00  0.00    +0.000 A 
ATOM     17  C   UNL     1      12.271  12.609  18.207  0.00  0.00    +0.000 A 
ATOM     18  C   UNL     1      11.536  12.167  19.375  0.00  0.00    +0.000 A 
ATOM     19  C   UNL     1      10.122  12.224  19.478  0.00  0.00    +0.000 A 
ENDROOT
BRANCH   8  20
ATOM     20  O   UNL     1       9.051  14.958  23.638  0.00  0.00    +0.000 OA
ATOM     21  H   UNL     1       9.150  14.113  23.159  0.00  0.00    +0.000 HD
ENDBRANCH   8  20
BRANCH   9  22
ATOM     22  O   UNL     1       6.132  15.860  21.543  0.00  0.00    +0.000 OA
ATOM     23  H   UNL     1       6.049  15.785  20.578  0.00  0.00    +0.000 HD
ENDBRANCH   9  22
BRANCH  16  24
ATOM     24  O   UNL     1      12.333  13.471  15.968  0.00  0.00    +0.000 OA
ATOM     25  H   UNL     1      11.771  14.115  15.479  0.00  0.00    +0.000 HD
ENDBRANCH  16  24
BRANCH  18  26
ATOM     26  O   UNL     1      12.321  11.646  20.375  0.00  0.00    +0.000 OA
ATOM     27  H   UNL     1      13.235  11.988  20.287  0.00  0.00    +0.000 HD
ENDBRANCH  18  26
TORSDOF 4
ENDMDL
MODEL 8
REMARK VINA RESULT:      -5.8      8.164     10.517
REMARK  Name = 
REMARK  4 active torsions:
REMARK  status: ('A' for Active; 'I' for Inactive)
REMARK    1  A    between atoms: C_8  and  O_9
REMARK    2  A    between atoms: C_10  and  O_11
REMARK    3  A    between atoms: C_18  and  O_19
REMARK    4  A    between atoms: C_21  and  O_22
REMARK                            x       y       z     vdW  Elec       q    Type
REMARK                         _______ _______ _______ _____ _____    ______ ____
ROOT
ATOM      1  O   UNL     1      -2.096  13.202  21.843  0.00  0.00    +0.000 OA
ATOM      2  C   UNL     1      -2.154  13.124  20.615  0.00  0.00    +0.000 C 
ATOM      3  O   UNL     1      -3.444  12.899  20.005  0.00  0.00    +0.000 OA
ATOM      4  C   UNL     1      -4.849  12.977  20.762  0.00  0.00    +0.000 C 
ATOM      5  C   UNL     1      -6.056  11.863  20.622  0.00  0.00    +0.000 C 
ATOM      6  C   UNL     1      -6.931  11.828  19.354  0.00  0.00    +0.000 C 
ATOM      7  C   UNL     1      -6.618  11.067  18.291  0.00  0.00    +0.000 C 
ATOM      8  C   UNL     1      -5.431  11.521  17.480  0.00  0.00    +0.000 C 
ATOM      9  C   UNL     1      -4.256  10.716  18.063  0.00  0.00    +0.000 C 
ATOM     10  C   UNL     1      -2.885  11.179  17.643  0.00  0.00    +0.000 C 
ATOM     11  C   UNL     1      -1.960  10.163  18.316  0.00  0.00    +0.000 C 
ATOM     12  C   UNL     1      -0.622  10.654  18.266  0.00  0.00    +0.000 C 
ATOM     13  C   UNL     1      -0.080  10.822  19.492  0.00  0.00    +0.000 C 
ATOM     14  C   UNL     1       0.287  12.204  19.667  0.00  0.00    +0.000 A 
ATOM     15  C   UNL     1       1.620  12.321  19.155  0.00  0.00    +0.000 A 
ATOM     16  C   UNL     1       2.019  13.493  18.587  0.00  0.00    +0.000 A 
ATOM     17  C   UNL     1       1.170  14.577  18.706  0.00  0.00    +0.000 A 
ATOM     18  C   UNL     1      -0.115  14.489  19.370  0.00  0.00    +0.000 A 
ATOM     19  C   UNL     1      -0.691  13.265  19.800  0.00  0.00    +0.000 A 
ENDROOT
BRANCH   8  20
ATOM     20  O   UNL     1      -5.265  12.926  17.588  0.00  0.00    +0.000 OA
ATOM     21  H   UNL     1      -4.593  13.212  16.940  0.00  0.00    +0.000 HD
ENDBRANCH   8  20
BRANCH   9  22
ATOM     22  O   UNL     1      -4.391   9.330  17.743  0.00  0.00    +0.000 OA
ATOM     23  H   UNL     1      -5.050   9.276  17.031  0.00  0.00    +0.000 HD
ENDBRANCH   9  22
BRANCH  16  24
ATOM     24  O   UNL     1       3.180  13.561  17.880  0.00  0.00    +0.000 OA
ATOM     25  H   UNL     1       3.085  13.067  17.032  0.00  0.00    +0.000 HD
ENDBRANCH  16  24
BRANCH  18  26
ATOM     26  O   UNL     1      -0.726  15.700  19.588  0.00  0.00    +0.000 OA
ATOM     27  H   UNL     1      -1.195  15.982  18.776  0.00  0.00    +0.000 HD
ENDBRANCH  18  26
TORSDOF 4
ENDMDL
MODEL 9
REMARK VINA RESULT:      -5.8      9.193     11.116
REMARK  Name = 
REMARK  4 active torsions:
REMARK  status: ('A' for Active; 'I' for Inactive)
REMARK    1  A    between atoms: C_8  and  O_9
REMARK    2  A    between atoms: C_10  and  O_11
REMARK    3  A    between atoms: C_18  and  O_19
REMARK    4  A    between atoms: C_21  and  O_22
REMARK                            x       y       z     vdW  Elec       q    Type
REMARK                         _______ _______ _______ _____ _____    ______ ____
ROOT
ATOM      1  O   UNL     1       9.228  14.556  21.264  0.00  0.00    +0.000 OA
ATOM      2  C   UNL     1       8.840  14.932  20.157  0.00  0.00    +0.000 C 
ATOM      3  O   UNL     1       7.613  15.690  20.085  0.00  0.00    +0.000 OA
ATOM      4  C   UNL     1       6.826  16.294  21.338  0.00  0.00    +0.000 C 
ATOM      5  C   UNL     1       5.198  16.178  21.571  0.00  0.00    +0.000 C 
ATOM      6  C   UNL     1       4.236  17.062  20.754  0.00  0.00    +0.000 C 
ATOM      7  C   UNL     1       3.717  16.658  19.582  0.00  0.00    +0.000 C 
ATOM      8  C   UNL     1       4.675  16.597  18.420  0.00  0.00    +0.000 C 
ATOM      9  C   UNL     1       5.149  15.133  18.407  0.00  0.00    +0.000 C 
ATOM     10  C   UNL     1       6.341  14.847  17.531  0.00  0.00    +0.000 C 
ATOM     11  C   UNL     1       6.518  13.334  17.678  0.00  0.00    +0.000 C 
ATOM     12  C   UNL     1       7.793  12.967  17.156  0.00  0.00    +0.000 C 
ATOM     13  C   UNL     1       8.589  12.386  18.079  0.00  0.00    +0.000 C 
ATOM     14  C   UNL     1       9.789  13.168  18.236  0.00  0.00    +0.000 A 
ATOM     15  C   UNL     1      10.709  12.672  17.256  0.00  0.00    +0.000 A 
ATOM     16  C   UNL     1      11.617  13.520  16.699  0.00  0.00    +0.000 A 
ATOM     17  C   UNL     1      11.730  14.782  17.254  0.00  0.00    +0.000 A 
ATOM     18  C   UNL     1      10.900  15.223  18.357  0.00  0.00    +0.000 A 
ATOM     19  C   UNL     1       9.796  14.480  18.851  0.00  0.00    +0.000 A 
ENDROOT
BRANCH   8  20
ATOM     20  O   UNL     1       5.729  17.532  18.597  0.00  0.00    +0.000 OA
ATOM     21  H   UNL     1       6.438  17.328  17.958  0.00  0.00    +0.000 HD
ENDBRANCH   8  20
BRANCH   9  22
ATOM     22  O   UNL     1       4.080  14.264  18.027  0.00  0.00    +0.000 OA
ATOM     23  H   UNL     1       4.493  13.477  17.634  0.00  0.00    +0.000 HD
ENDBRANCH   9  22
BRANCH  16  24
ATOM     24  O   UNL     1      12.333  13.148  15.604  0.00  0.00    +0.000 OA
ATOM     25  H   UNL     1      12.318  13.870  14.933  0.00  0.00    +0.000 HD
ENDBRANCH  16  24
BRANCH  18  26
ATOM     26  O   UNL     1      11.291  16.413  18.921  0.00  0.00    +0.000 OA
ATOM     27  H   UNL     1      10.554  16.783  19.450  0.00  0.00    +0.000 HD
ENDBRANCH  18  26
TORSDOF 4
ENDMDL
