MODEL 1
REMARK VINA RESULT:      -7.5      0.000      0.000
REMARK  Name = 
REMARK  5 active torsions:
REMARK  status: ('A' for Active; 'I' for Inactive)
REMARK    1  A    between atoms: C_2  and  C_7
REMARK    2  A    between atoms: N_3  and  C_4
REMARK    3  A    between atoms: C_4  and  C_5
REMARK    4  A    between atoms: C_5  and  O_6
REMARK    5  A    between atoms: N_9  and  C_10
REMARK                            x       y       z     vdW  Elec       q    Type
REMARK                         _______ _______ _______ _____ _____    ______ ____
ROOT
ATOM      1  C   UNL     1       3.876   4.597  16.697  0.00  0.00    +0.000 A 
ATOM      2  C   UNL     1       3.681   5.719  17.502  0.00  0.00    +0.000 A 
ATOM      3  C   UNL     1       2.939   5.643  18.685  0.00  0.00    +0.000 A 
ATOM      4  C   UNL     1       2.426   4.407  19.087  0.00  0.00    +0.000 A 
ATOM      5  C   UNL     1       2.484   3.313  18.215  0.00  0.00    +0.000 A 
ATOM      6  C   UNL     1       3.194   3.414  17.005  0.00  0.00    +0.000 A 
ATOM      7  C   UNL     1       1.748   2.066  18.613  0.00  0.00    +0.000 C 
ATOM      8  C   UNL     1       2.018   1.783  20.077  0.00  0.00    +0.000 C 
ATOM      9  C   UNL     1       1.713   2.981  20.956  0.00  0.00    +0.000 C 
ATOM     10  O   UNL     1       1.424   2.816  22.142  0.00  0.00    +0.000 OA
ATOM     11  N   UNL     1       1.886   4.241  20.390  0.00  0.00    +0.000 N 
ATOM     12  C   UNL     1       1.807   5.402  21.271  0.00  0.00    +0.000 C 
ATOM     13  C   UNL     1       1.648   6.712  20.514  0.00  0.00    +0.000 C 
ATOM     14  C   UNL     1       2.801   6.872  19.538  0.00  0.00    +0.000 C 
ENDROOT
BRANCH   1  17
ATOM     15  C   UNL     1       6.152   4.622  15.718  0.00  0.00    +0.000 C 
ATOM     16  O   UNL     1       6.845   4.623  16.729  0.00  0.00    +0.000 OA
ATOM     17  N   UNL     1       4.769   4.615  15.607  0.00  0.00    +0.000 N 
ATOM     18  H   UNL     1       4.409   4.446  14.674  0.00  0.00    +0.000 HD
BRANCH  15  20
ATOM     19  O   UNL     1       7.833   5.291  14.142  0.00  0.00    +0.000 OA
ATOM     20  C   UNL     1       6.878   4.557  14.364  0.00  0.00    +0.000 C 
ATOM     21  N   UNL     1       6.337   3.638  13.492  0.00  0.00    +0.000 N 
ATOM     22  H   UNL     1       5.513   3.134  13.809  0.00  0.00    +0.000 HD
BRANCH  21  23
ATOM     23  C   UNL     1       6.859   3.424  12.156  0.00  0.00    +0.000 C 
BRANCH  23  24
ATOM     24  C   UNL     1       6.174   2.256  11.446  0.00  0.00    +0.000 C 
BRANCH  24  25
ATOM     25  O   UNL     1       7.102   1.196  11.221  0.00  0.00    +0.000 OA
ATOM     26  H   UNL     1       7.111   1.032  10.261  0.00  0.00    +0.000 HD
ENDBRANCH  24  25
ENDBRANCH  23  24
ENDBRANCH  21  23
ENDBRANCH  15  20
ENDBRANCH   1  17
TORSDOF 5
ENDMDL
MODEL 2
REMARK VINA RESULT:      -7.5      4.510      7.964
REMARK  Name = 
REMARK  5 active torsions:
REMARK  status: ('A' for Active; 'I' for Inactive)
REMARK    1  A    between atoms: C_2  and  C_7
REMARK    2  A    between atoms: N_3  and  C_4
REMARK    3  A    between atoms: C_4  and  C_5
REMARK    4  A    between atoms: C_5  and  O_6
REMARK    5  A    between atoms: N_9  and  C_10
REMARK                            x       y       z     vdW  Elec       q    Type
REMARK                         _______ _______ _______ _____ _____    ______ ____
ROOT
ATOM      1  C   UNL     1       1.794   7.629  19.867  0.00  0.00    +0.000 A 
ATOM      2  C   UNL     1       2.702   7.511  18.816  0.00  0.00    +0.000 A 
ATOM      3  C   UNL     1       3.291   6.282  18.501  0.00  0.00    +0.000 A 
ATOM      4  C   UNL     1       2.925   5.147  19.228  0.00  0.00    +0.000 A 
ATOM      5  C   UNL     1       2.137   5.281  20.377  0.00  0.00    +0.000 A 
ATOM      6  C   UNL     1       1.587   6.531  20.711  0.00  0.00    +0.000 A 
ATOM      7  C   UNL     1       1.935   4.061  21.228  0.00  0.00    +0.000 C 
ATOM      8  C   UNL     1       1.630   2.880  20.329  0.00  0.00    +0.000 C 
ATOM      9  C   UNL     1       2.675   2.703  19.244  0.00  0.00    +0.000 C 
ATOM     10  O   UNL     1       2.859   1.592  18.743  0.00  0.00    +0.000 OA
ATOM     11  N   UNL     1       3.309   3.854  18.784  0.00  0.00    +0.000 N 
ATOM     12  C   UNL     1       4.157   3.739  17.601  0.00  0.00    +0.000 C 
ATOM     13  C   UNL     1       5.068   4.941  17.405  0.00  0.00    +0.000 C 
ATOM     14  C   UNL     1       4.226   6.203  17.327  0.00  0.00    +0.000 C 
ENDROOT
BRANCH   1  17
ATOM     15  C   UNL     1       1.063   9.546  21.255  0.00  0.00    +0.000 C 
ATOM     16  O   UNL     1       1.669   9.329  22.299  0.00  0.00    +0.000 OA
ATOM     17  N   UNL     1       1.057   8.811  20.079  0.00  0.00    +0.000 N 
ATOM     18  H   UNL     1       0.616   9.264  19.286  0.00  0.00    +0.000 HD
BRANCH  15  20
ATOM     19  O   UNL     1       0.275  11.654  22.089  0.00  0.00    +0.000 OA
ATOM     20  C   UNL     1       0.230  10.837  21.178  0.00  0.00    +0.000 C 
ATOM     21  N   UNL     1      -0.530  10.934  20.034  0.00  0.00    +0.000 N 
ATOM     22  H   UNL     1      -0.493  10.150  19.389  0.00  0.00    +0.000 HD
BRANCH  21  23
ATOM     23  C   UNL     1      -1.400  12.063  19.764  0.00  0.00    +0.000 C 
BRANCH  23  24
ATOM     24  C   UNL     1      -0.801  13.025  18.737  0.00  0.00    +0.000 C 
BRANCH  24  25
ATOM     25  O   UNL     1      -1.206  12.662  17.418  0.00  0.00    +0.000 OA
ATOM     26  H   UNL     1      -1.335  11.698  17.421  0.00  0.00    +0.000 HD
ENDBRANCH  24  25
ENDBRANCH  23  24
ENDBRANCH  21  23
ENDBRANCH  15  20
ENDBRANCH   1  17
TORSDOF 5
ENDMDL
MODEL 3
REMARK VINA RESULT:      -7.4      4.190      9.065
REMARK  Name = 
REMARK  5 active torsions:
REMARK  status: ('A' for Active; 'I' for Inactive)
REMARK    1  A    between atoms: C_2  and  C_7
REMARK    2  A    between atoms: N_3  and  C_4
REMARK    3  A    between atoms: C_4  and  C_5
REMARK    4  A    between atoms: C_5  and  O_6
REMARK    5  A    between atoms: N_9  and  C_10
REMARK                            x       y       z     vdW  Elec       q    Type
REMARK                         _______ _______ _______ _____ _____    ______ ____
ROOT
ATOM      1  C   UNL     1       1.835   6.951  20.208  0.00  0.00    +0.000 A 
ATOM      2  C   UNL     1       1.526   5.595  20.298  0.00  0.00    +0.000 A 
ATOM      3  C   UNL     1       2.067   4.667  19.402  0.00  0.00    +0.000 A 
ATOM      4  C   UNL     1       2.969   5.107  18.430  0.00  0.00    +0.000 A 
ATOM      5  C   UNL     1       3.166   6.479  18.234  0.00  0.00    +0.000 A 
ATOM      6  C   UNL     1       2.580   7.407  19.114  0.00  0.00    +0.000 A 
ATOM      7  C   UNL     1       3.992   6.901  17.054  0.00  0.00    +0.000 C 
ATOM      8  C   UNL     1       5.222   6.020  16.974  0.00  0.00    +0.000 C 
ATOM      9  C   UNL     1       4.869   4.545  16.978  0.00  0.00    +0.000 C 
ATOM     10  O   UNL     1       5.638   3.728  16.467  0.00  0.00    +0.000 OA
ATOM     11  N   UNL     1       3.721   4.172  17.670  0.00  0.00    +0.000 N 
ATOM     12  C   UNL     1       3.477   2.746  17.869  0.00  0.00    +0.000 C 
ATOM     13  C   UNL     1       2.050   2.443  18.302  0.00  0.00    +0.000 C 
ATOM     14  C   UNL     1       1.738   3.211  19.574  0.00  0.00    +0.000 C 
ENDROOT
BRANCH   1  17
ATOM     15  C   UNL     1       0.709   9.017  20.982  0.00  0.00    +0.000 C 
ATOM     16  O   UNL     1       0.270   9.458  19.926  0.00  0.00    +0.000 OA
ATOM     17  N   UNL     1       1.449   7.865  21.208  0.00  0.00    +0.000 N 
ATOM     18  H   UNL     1       1.564   7.607  22.182  0.00  0.00    +0.000 HD
BRANCH  15  20
ATOM     19  O   UNL     1       1.026   9.623  23.283  0.00  0.00    +0.000 OA
ATOM     20  C   UNL     1       0.360   9.786  22.268  0.00  0.00    +0.000 C 
ATOM     21  N   UNL     1      -0.734  10.612  22.136  0.00  0.00    +0.000 N 
ATOM     22  H   UNL     1      -1.210  10.604  21.239  0.00  0.00    +0.000 HD
BRANCH  21  23
ATOM     23  C   UNL     1      -1.244  11.418  23.229  0.00  0.00    +0.000 C 
BRANCH  23  24
ATOM     24  C   UNL     1      -2.529  12.157  22.855  0.00  0.00    +0.000 C 
BRANCH  24  25
ATOM     25  O   UNL     1      -3.557  11.883  23.806  0.00  0.00    +0.000 OA
ATOM     26  H   UNL     1      -3.135  11.406  24.543  0.00  0.00    +0.000 HD
ENDBRANCH  24  25
ENDBRANCH  23  24
ENDBRANCH  21  23
ENDBRANCH  15  20
ENDBRANCH   1  17
TORSDOF 5
ENDMDL
MODEL 4
REMARK VINA RESULT:      -7.3      4.692      7.544
REMARK  Name = 
REMARK  5 active torsions:
REMARK  status: ('A' for Active; 'I' for Inactive)
REMARK    1  A    between atoms: C_2  and  C_7
REMARK    2  A    between atoms: N_3  and  C_4
REMARK    3  A    between atoms: C_4  and  C_5
REMARK    4  A    between atoms: C_5  and  O_6
REMARK    5  A    between atoms: N_9  and  C_10
REMARK                            x       y       z     vdW  Elec       q    Type
REMARK                         _______ _______ _______ _____ _____    ______ ____
ROOT
ATOM      1  C   UNL     1       2.155   7.513  19.405  0.00  0.00    +0.000 A 
ATOM      2  C   UNL     1       3.027   7.227  18.355  0.00  0.00    +0.000 A 
ATOM      3  C   UNL     1       3.508   5.930  18.146  0.00  0.00    +0.000 A 
ATOM      4  C   UNL     1       3.069   4.899  18.980  0.00  0.00    +0.000 A 
ATOM      5  C   UNL     1       2.320   5.201  20.124  0.00  0.00    +0.000 A 
ATOM      6  C   UNL     1       1.879   6.517  20.349  0.00  0.00    +0.000 A 
ATOM      7  C   UNL     1       2.040   4.083  21.086  0.00  0.00    +0.000 C 
ATOM      8  C   UNL     1       1.621   2.854  20.304  0.00  0.00    +0.000 C 
ATOM      9  C   UNL     1       2.623   2.495  19.224  0.00  0.00    +0.000 C 
ATOM     10  O   UNL     1       2.707   1.332  18.825  0.00  0.00    +0.000 OA
ATOM     11  N   UNL     1       3.337   3.544  18.651  0.00  0.00    +0.000 N 
ATOM     12  C   UNL     1       4.146   3.254  17.471  0.00  0.00    +0.000 C 
ATOM     13  C   UNL     1       5.147   4.354  17.152  0.00  0.00    +0.000 C 
ATOM     14  C   UNL     1       4.407   5.669  16.970  0.00  0.00    +0.000 C 
ENDROOT
BRANCH   1  17
ATOM     15  C   UNL     1       1.464   9.717  18.510  0.00  0.00    +0.000 C 
ATOM     16  O   UNL     1       1.935   9.673  17.379  0.00  0.00    +0.000 OA
ATOM     17  N   UNL     1       1.520   8.765  19.518  0.00  0.00    +0.000 N 
ATOM     18  H   UNL     1       0.918   8.941  20.316  0.00  0.00    +0.000 HD
BRANCH  15  20
ATOM     19  O   UNL     1       0.997  11.692  19.791  0.00  0.00    +0.000 OA
ATOM     20  C   UNL     1       0.634  10.957  18.881  0.00  0.00    +0.000 C 
ATOM     21  N   UNL     1      -0.501  11.110  18.114  0.00  0.00    +0.000 N 
ATOM     22  H   UNL     1      -0.690  10.390  17.424  0.00  0.00    +0.000 HD
BRANCH  21  23
ATOM     23  C   UNL     1      -1.433  12.206  18.304  0.00  0.00    +0.000 C 
BRANCH  23  24
ATOM     24  C   UNL     1      -2.886  11.733  18.331  0.00  0.00    +0.000 C 
BRANCH  24  25
ATOM     25  O   UNL     1      -3.477  11.861  17.038  0.00  0.00    +0.000 OA
ATOM     26  H   UNL     1      -3.645  12.810  16.901  0.00  0.00    +0.000 HD
ENDBRANCH  24  25
ENDBRANCH  23  24
ENDBRANCH  21  23
ENDBRANCH  15  20
ENDBRANCH   1  17
TORSDOF 5
ENDMDL
MODEL 5
REMARK VINA RESULT:      -7.2      1.605      2.979
REMARK  Name = 
REMARK  5 active torsions:
REMARK  status: ('A' for Active; 'I' for Inactive)
REMARK    1  A    between atoms: C_2  and  C_7
REMARK    2  A    between atoms: N_3  and  C_4
REMARK    3  A    between atoms: C_4  and  C_5
REMARK    4  A    between atoms: C_5  and  O_6
REMARK    5  A    between atoms: N_9  and  C_10
REMARK                            x       y       z     vdW  Elec       q    Type
REMARK                         _______ _______ _______ _____ _____    ______ ____
ROOT
ATOM      1  C   UNL     1       4.904   4.396  16.050  0.00  0.00    +0.000 A 
ATOM      2  C   UNL     1       4.650   3.383  16.974  0.00  0.00    +0.000 A 
ATOM      3  C   UNL     1       4.090   3.666  18.224  0.00  0.00    +0.000 A 
ATOM      4  C   UNL     1       3.737   4.983  18.529  0.00  0.00    +0.000 A 
ATOM      5  C   UNL     1       4.126   6.022  17.676  0.00  0.00    +0.000 A 
ATOM      6  C   UNL     1       4.732   5.730  16.441  0.00  0.00    +0.000 A 
ATOM      7  C   UNL     1       3.895   7.430  18.144  0.00  0.00    +0.000 C 
ATOM      8  C   UNL     1       2.507   7.527  18.743  0.00  0.00    +0.000 C 
ATOM      9  C   UNL     1       2.272   6.479  19.814  0.00  0.00    +0.000 C 
ATOM     10  O   UNL     1       1.440   6.681  20.700  0.00  0.00    +0.000 OA
ATOM     11  N   UNL     1       2.948   5.270  19.674  0.00  0.00    +0.000 N 
ATOM     12  C   UNL     1       2.580   4.175  20.567  0.00  0.00    +0.000 C 
ATOM     13  C   UNL     1       3.602   3.048  20.577  0.00  0.00    +0.000 C 
ATOM     14  C   UNL     1       3.793   2.530  19.162  0.00  0.00    +0.000 C 
ENDROOT
BRANCH   1  17
ATOM     15  C   UNL     1       6.518   4.450  14.172  0.00  0.00    +0.000 C 
ATOM     16  O   UNL     1       7.460   5.044  14.685  0.00  0.00    +0.000 OA
ATOM     17  N   UNL     1       5.293   4.110  14.727  0.00  0.00    +0.000 N 
ATOM     18  H   UNL     1       4.728   3.473  14.175  0.00  0.00    +0.000 HD
BRANCH  15  20
ATOM     19  O   UNL     1       7.448   4.532  11.962  0.00  0.00    +0.000 OA
ATOM     20  C   UNL     1       6.705   3.940  12.734  0.00  0.00    +0.000 C 
ATOM     21  N   UNL     1       5.964   2.814  12.448  0.00  0.00    +0.000 N 
ATOM     22  H   UNL     1       5.357   2.464  13.184  0.00  0.00    +0.000 HD
BRANCH  21  23
ATOM     23  C   UNL     1       5.980   2.174  11.146  0.00  0.00    +0.000 C 
BRANCH  23  24
ATOM     24  C   UNL     1       6.888   0.945  11.115  0.00  0.00    +0.000 C 
BRANCH  24  25
ATOM     25  O   UNL     1       6.179  -0.210  11.559  0.00  0.00    +0.000 OA
ATOM     26  H   UNL     1       6.428  -0.938  10.963  0.00  0.00    +0.000 HD
ENDBRANCH  24  25
ENDBRANCH  23  24
ENDBRANCH  21  23
ENDBRANCH  15  20
ENDBRANCH   1  17
TORSDOF 5
ENDMDL
MODEL 6
REMARK VINA RESULT:      -7.2      4.321      8.057
REMARK  Name = 
REMARK  5 active torsions:
REMARK  status: ('A' for Active; 'I' for Inactive)
REMARK    1  A    between atoms: C_2  and  C_7
REMARK    2  A    between atoms: N_3  and  C_4
REMARK    3  A    between atoms: C_4  and  C_5
REMARK    4  A    between atoms: C_5  and  O_6
REMARK    5  A    between atoms: N_9  and  C_10
REMARK                            x       y       z     vdW  Elec       q    Type
REMARK                         _______ _______ _______ _____ _____    ______ ____
ROOT
ATOM      1  C   UNL     1       2.046   7.587  19.720  0.00  0.00    +0.000 A 
ATOM      2  C   UNL     1       2.907   7.364  18.647  0.00  0.00    +0.000 A 
ATOM      3  C   UNL     1       3.349   6.077  18.326  0.00  0.00    +0.000 A 
ATOM      4  C   UNL     1       2.880   4.992  19.071  0.00  0.00    +0.000 A 
ATOM      5  C   UNL     1       2.142   5.218  20.239  0.00  0.00    +0.000 A 
ATOM      6  C   UNL     1       1.741   6.522  20.577  0.00  0.00    +0.000 A 
ATOM      7  C   UNL     1       1.829   4.031  21.105  0.00  0.00    +0.000 C 
ATOM      8  C   UNL     1       1.373   2.886  20.223  0.00  0.00    +0.000 C 
ATOM      9  C   UNL     1       2.362   2.591  19.113  0.00  0.00    +0.000 C 
ATOM     10  O   UNL     1       2.410   1.464  18.615  0.00  0.00    +0.000 OA
ATOM     11  N   UNL     1       3.107   3.662  18.627  0.00  0.00    +0.000 N 
ATOM     12  C   UNL     1       3.906   3.449  17.424  0.00  0.00    +0.000 C 
ATOM     13  C   UNL     1       4.938   4.542  17.196  0.00  0.00    +0.000 C 
ATOM     14  C   UNL     1       4.238   5.889  17.130  0.00  0.00    +0.000 C 
ENDROOT
BRANCH   1  17
ATOM     15  C   UNL     1       0.877   9.631  18.953  0.00  0.00    +0.000 C 
ATOM     16  O   UNL     1       0.786   9.415  17.750  0.00  0.00    +0.000 OA
ATOM     17  N   UNL     1       1.449   8.843  19.942  0.00  0.00    +0.000 N 
ATOM     18  H   UNL     1       1.264   9.139  20.894  0.00  0.00    +0.000 HD
BRANCH  15  20
ATOM     19  O   UNL     1      -0.425  11.636  18.744  0.00  0.00    +0.000 OA
ATOM     20  C   UNL     1       0.225  10.916  19.491  0.00  0.00    +0.000 C 
ATOM     21  N   UNL     1       0.467  11.138  20.829  0.00  0.00    +0.000 N 
ATOM     22  H   UNL     1       1.065  10.469  21.305  0.00  0.00    +0.000 HD
BRANCH  21  23
ATOM     23  C   UNL     1      -0.042  12.298  21.536  0.00  0.00    +0.000 C 
BRANCH  23  24
ATOM     24  C   UNL     1      -0.989  11.914  22.673  0.00  0.00    +0.000 C 
BRANCH  24  25
ATOM     25  O   UNL     1      -0.485  10.784  23.383  0.00  0.00    +0.000 OA
ATOM     26  H   UNL     1       0.347  11.066  23.803  0.00  0.00    +0.000 HD
ENDBRANCH  24  25
ENDBRANCH  23  24
ENDBRANCH  21  23
ENDBRANCH  15  20
ENDBRANCH   1  17
TORSDOF 5
ENDMDL
MODEL 7
REMARK VINA RESULT:      -7.2      4.291      6.759
REMARK  Name = 
REMARK  5 active torsions:
REMARK  status: ('A' for Active; 'I' for Inactive)
REMARK    1  A    between atoms: C_2  and  C_7
REMARK    2  A    between atoms: N_3  and  C_4
REMARK    3  A    between atoms: C_4  and  C_5
REMARK    4  A    between atoms: C_5  and  O_6
REMARK    5  A    between atoms: N_9  and  C_10
REMARK                            x       y       z     vdW  Elec       q    Type
REMARK                         _______ _______ _______ _____ _____    ______ ____
ROOT
ATOM      1  C   UNL     1       2.016   7.653  19.951  0.00  0.00    +0.000 A 
ATOM      2  C   UNL     1       1.757   8.634  18.995  0.00  0.00    +0.000 A 
ATOM      3  C   UNL     1       0.838   9.660  19.239  0.00  0.00    +0.000 A 
ATOM      4  C   UNL     1       0.205   9.723  20.483  0.00  0.00    +0.000 A 
ATOM      5  C   UNL     1       0.341   8.663  21.387  0.00  0.00    +0.000 A 
ATOM      6  C   UNL     1       1.234   7.613  21.112  0.00  0.00    +0.000 A 
ATOM      7  C   UNL     1      -0.511   8.690  22.623  0.00  0.00    +0.000 C 
ATOM      8  C   UNL     1      -0.488  10.089  23.206  0.00  0.00    +0.000 C 
ATOM      9  C   UNL     1      -0.862  11.142  22.181  0.00  0.00    +0.000 C 
ATOM     10  O   UNL     1      -1.341  12.216  22.550  0.00  0.00    +0.000 OA
ATOM     11  N   UNL     1      -0.538  10.875  20.854  0.00  0.00    +0.000 N 
ATOM     12  C   UNL     1      -0.693  11.955  19.883  0.00  0.00    +0.000 C 
ATOM     13  C   UNL     1      -0.665  11.466  18.443  0.00  0.00    +0.000 C 
ATOM     14  C   UNL     1       0.633  10.718  18.192  0.00  0.00    +0.000 C 
ENDROOT
BRANCH   1  17
ATOM     15  C   UNL     1       2.928   5.459  19.250  0.00  0.00    +0.000 C 
ATOM     16  O   UNL     1       1.919   4.908  18.824  0.00  0.00    +0.000 OA
ATOM     17  N   UNL     1       3.067   6.728  19.795  0.00  0.00    +0.000 N 
ATOM     18  H   UNL     1       4.022   7.041  19.928  0.00  0.00    +0.000 HD
BRANCH  15  20
ATOM     19  O   UNL     1       4.331   3.526  19.484  0.00  0.00    +0.000 OA
ATOM     20  C   UNL     1       4.256   4.695  19.125  0.00  0.00    +0.000 C 
ATOM     21  N   UNL     1       5.282   5.453  18.605  0.00  0.00    +0.000 N 
ATOM     22  H   UNL     1       5.074   6.425  18.395  0.00  0.00    +0.000 HD
BRANCH  21  23
ATOM     23  C   UNL     1       6.623   4.934  18.414  0.00  0.00    +0.000 C 
BRANCH  23  24
ATOM     24  C   UNL     1       7.686   5.816  19.067  0.00  0.00    +0.000 C 
BRANCH  24  25
ATOM     25  O   UNL     1       7.856   5.461  20.438  0.00  0.00    +0.000 OA
ATOM     26  H   UNL     1       7.434   4.591  20.556  0.00  0.00    +0.000 HD
ENDBRANCH  24  25
ENDBRANCH  23  24
ENDBRANCH  21  23
ENDBRANCH  15  20
ENDBRANCH   1  17
TORSDOF 5
ENDMDL
MODEL 8
REMARK VINA RESULT:      -7.2      4.444      9.098
REMARK  Name = 
REMARK  5 active torsions:
REMARK  status: ('A' for Active; 'I' for Inactive)
REMARK    1  A    between atoms: C_2  and  C_7
REMARK    2  A    between atoms: N_3  and  C_4
REMARK    3  A    between atoms: C_4  and  C_5
REMARK    4  A    between atoms: C_5  and  O_6
REMARK    5  A    between atoms: N_9  and  C_10
REMARK                            x       y       z     vdW  Elec       q    Type
REMARK                         _______ _______ _______ _____ _____    ______ ____
ROOT
ATOM      1  C   UNL     1       1.625   7.293  20.573  0.00  0.00    +0.000 A 
ATOM      2  C   UNL     1       1.418   5.931  20.790  0.00  0.00    +0.000 A 
ATOM      3  C   UNL     1       2.005   4.968  19.964  0.00  0.00    +0.000 A 
ATOM      4  C   UNL     1       2.851   5.381  18.931  0.00  0.00    +0.000 A 
ATOM      5  C   UNL     1       2.943   6.741  18.610  0.00  0.00    +0.000 A 
ATOM      6  C   UNL     1       2.310   7.700  19.421  0.00  0.00    +0.000 A 
ATOM      7  C   UNL     1       3.709   7.113  17.374  0.00  0.00    +0.000 C 
ATOM      8  C   UNL     1       4.998   6.318  17.337  0.00  0.00    +0.000 C 
ATOM      9  C   UNL     1       4.754   4.828  17.480  0.00  0.00    +0.000 C 
ATOM     10  O   UNL     1       5.569   4.024  17.022  0.00  0.00    +0.000 OA
ATOM     11  N   UNL     1       3.652   4.437  18.235  0.00  0.00    +0.000 N 
ATOM     12  C   UNL     1       3.516   3.022  18.565  0.00  0.00    +0.000 C 
ATOM     13  C   UNL     1       2.126   2.659  19.064  0.00  0.00    +0.000 C 
ATOM     14  C   UNL     1       1.787   3.514  20.273  0.00  0.00    +0.000 C 
ENDROOT
BRANCH   1  17
ATOM     15  C   UNL     1       0.260   9.252  21.231  0.00  0.00    +0.000 C 
ATOM     16  O   UNL     1      -0.347   9.479  20.190  0.00  0.00    +0.000 OA
ATOM     17  N   UNL     1       1.196   8.264  21.499  0.00  0.00    +0.000 N 
ATOM     18  H   UNL     1       1.446   8.156  22.476  0.00  0.00    +0.000 HD
BRANCH  15  20
ATOM     19  O   UNL     1       0.331   9.815  23.563  0.00  0.00    +0.000 OA
ATOM     20  C   UNL     1      -0.081  10.123  22.451  0.00  0.00    +0.000 C 
ATOM     21  N   UNL     1      -0.869  11.212  22.149  0.00  0.00    +0.000 N 
ATOM     22  H   UNL     1      -1.167  11.309  21.182  0.00  0.00    +0.000 HD
BRANCH  21  23
ATOM     23  C   UNL     1      -1.319  12.158  23.152  0.00  0.00    +0.000 C 
BRANCH  23  24
ATOM     24  C   UNL     1      -0.953  13.599  22.797  0.00  0.00    +0.000 C 
BRANCH  24  25
ATOM     25  O   UNL     1       0.409  13.679  22.380  0.00  0.00    +0.000 OA
ATOM     26  H   UNL     1       0.928  13.924  23.166  0.00  0.00    +0.000 HD
ENDBRANCH  24  25
ENDBRANCH  23  24
ENDBRANCH  21  23
ENDBRANCH  15  20
ENDBRANCH   1  17
TORSDOF 5
ENDMDL
MODEL 9
REMARK VINA RESULT:      -7.2      4.483      8.158
REMARK  Name = 
REMARK  5 active torsions:
REMARK  status: ('A' for Active; 'I' for Inactive)
REMARK    1  A    between atoms: C_2  and  C_7
REMARK    2  A    between atoms: N_3  and  C_4
REMARK    3  A    between atoms: C_4  and  C_5
REMARK    4  A    between atoms: C_5  and  O_6
REMARK    5  A    between atoms: N_9  and  C_10
REMARK                            x       y       z     vdW  Elec       q    Type
REMARK                         _______ _______ _______ _____ _____    ______ ____
ROOT
ATOM      1  C   UNL     1       2.203   7.738  18.969  0.00  0.00    +0.000 A 
ATOM      2  C   UNL     1       2.103   6.554  19.700  0.00  0.00    +0.000 A 
ATOM      3  C   UNL     1       2.982   5.490  19.480  0.00  0.00    +0.000 A 
ATOM      4  C   UNL     1       4.007   5.637  18.542  0.00  0.00    +0.000 A 
ATOM      5  C   UNL     1       4.023   6.755  17.699  0.00  0.00    +0.000 A 
ATOM      6  C   UNL     1       3.104   7.801  17.899  0.00  0.00    +0.000 A 
ATOM      7  C   UNL     1       5.028   6.771  16.583  0.00  0.00    +0.000 C 
ATOM      8  C   UNL     1       6.366   6.306  17.120  0.00  0.00    +0.000 C 
ATOM      9  C   UNL     1       6.263   4.971  17.833  0.00  0.00    +0.000 C 
ATOM     10  O   UNL     1       7.251   4.239  17.913  0.00  0.00    +0.000 OA
ATOM     11  N   UNL     1       5.058   4.685  18.468  0.00  0.00    +0.000 N 
ATOM     12  C   UNL     1       5.005   3.511  19.334  0.00  0.00    +0.000 C 
ATOM     13  C   UNL     1       3.584   3.091  19.678  0.00  0.00    +0.000 C 
ATOM     14  C   UNL     1       2.859   4.256  20.329  0.00  0.00    +0.000 C 
ENDROOT
BRANCH   1  17
ATOM     15  C   UNL     1       1.116   9.256  20.597  0.00  0.00    +0.000 C 
ATOM     16  O   UNL     1       1.386   8.701  21.656  0.00  0.00    +0.000 OA
ATOM     17  N   UNL     1       1.449   8.880  19.304  0.00  0.00    +0.000 N 
ATOM     18  H   UNL     1       1.267   9.575  18.589  0.00  0.00    +0.000 HD
BRANCH  15  20
ATOM     19  O   UNL     1       0.651  11.419  21.527  0.00  0.00    +0.000 OA
ATOM     20  C   UNL     1       0.358  10.591  20.673  0.00  0.00    +0.000 C 
ATOM     21  N   UNL     1      -0.636  10.715  19.727  0.00  0.00    +0.000 N 
ATOM     22  H   UNL     1      -0.788   9.920  19.114  0.00  0.00    +0.000 HD
BRANCH  21  23
ATOM     23  C   UNL     1      -1.483  11.889  19.629  0.00  0.00    +0.000 C 
BRANCH  23  24
ATOM     24  C   UNL     1      -0.910  12.940  18.677  0.00  0.00    +0.000 C 
BRANCH  24  25
ATOM     25  O   UNL     1      -1.246  12.625  17.327  0.00  0.00    +0.000 OA
ATOM     26  H   UNL     1      -0.506  12.104  16.970  0.00  0.00    +0.000 HD
ENDBRANCH  24  25
ENDBRANCH  23  24
ENDBRANCH  21  23
ENDBRANCH  15  20
ENDBRANCH   1  17
TORSDOF 5
ENDMDL
