MODEL 1
REMARK VINA RESULT:      -7.8      0.000      0.000
REMARK  Name = 
REMARK  8 active torsions:
REMARK  status: ('A' for Active; 'I' for Inactive)
REMARK    1  A    between atoms: C_1  and  C_2
REMARK    2  A    between atoms: C_2  and  C_3
REMARK    3  A    between atoms: C_2  and  C_4
REMARK    4  A    between atoms: C_2  and  C_5
REMARK    5  A    between atoms: C_8  and  C_9
REMARK    6  A    between atoms: C_9  and  N_10
REMARK    7  A    between atoms: N_13  and  C_14
REMARK    8  A    between atoms: C_16  and  C_17
REMARK                            x       y       z     vdW  Elec       q    Type
REMARK                         _______ _______ _______ _____ _____    ______ ____
ROOT
ATOM      1  N   UNL     1       7.410   6.852  16.631  0.00  0.00    +0.000 N 
ATOM      2  C   UNL     1       7.880   7.591  17.685  0.00  0.00    +0.000 C 
ATOM      3  O   UNL     1       8.186   7.107  18.765  0.00  0.00    +0.000 OA
ATOM      4  N   UNL     1       7.938   8.931  17.382  0.00  0.00    +0.000 N 
ATOM      5  H   UNL     1       7.494   7.232  15.699  0.00  0.00    +0.000 HD
ATOM      6  H   UNL     1       7.526   9.229  16.508  0.00  0.00    +0.000 HD
ENDROOT
BRANCH   4   7
ATOM      7  C   UNL     1       8.261   9.933  18.350  0.00  0.00    +0.000 C 
ATOM      8  C   UNL     1       9.556   9.885  19.102  0.00  0.00    +0.000 C 
ATOM      9  C   UNL     1       9.349  10.956  18.061  0.00  0.00    +0.000 C 
BRANCH   9  10
ATOM     10  C   UNL     1       9.082  12.404  18.406  0.00  0.00    +0.000 A 
ATOM     11  C   UNL     1       9.759  13.084  19.434  0.00  0.00    +0.000 A 
ATOM     12  C   UNL     1       9.479  14.425  19.723  0.00  0.00    +0.000 A 
ATOM     13  C   UNL     1       8.525  15.107  18.977  0.00  0.00    +0.000 A 
ATOM     14  F   UNL     1       8.260  16.389  19.258  0.00  0.00    +0.000 F 
ATOM     15  C   UNL     1       7.852  14.480  17.942  0.00  0.00    +0.000 A 
ATOM     16  C   UNL     1       8.138  13.145  17.669  0.00  0.00    +0.000 A 
ATOM     17  F   UNL     1       7.492  12.551  16.654  0.00  0.00    +0.000 F 
ENDBRANCH   9  10
ENDBRANCH   4   7
BRANCH   1  18
ATOM     18  C   UNL     1       7.341   5.406  16.719  0.00  0.00    +0.000 C 
BRANCH  18  22
ATOM     19  C   UNL     1       3.924   4.795  17.690  0.00  0.00    +0.000 A 
ATOM     20  C   UNL     1       4.215   3.716  16.881  0.00  0.00    +0.000 A 
ATOM     21  O   UNL     1       5.498   3.835  16.442  0.00  0.00    +0.000 OA
ATOM     22  C   UNL     1       5.940   4.995  17.014  0.00  0.00    +0.000 A 
ATOM     23  N   UNL     1       5.042   5.603  17.772  0.00  0.00    +0.000 NA
BRANCH  19  25
ATOM     24  C   UNL     1       2.733   4.712  19.891  0.00  0.00    +0.000 C 
ATOM     25  C   UNL     1       2.637   5.128  18.411  0.00  0.00    +0.000 C 
ATOM     26  C   UNL     1       1.450   4.388  17.762  0.00  0.00    +0.000 C 
ATOM     27  C   UNL     1       2.345   6.642  18.352  0.00  0.00    +0.000 C 
ENDBRANCH  19  25
ENDBRANCH  18  22
ENDBRANCH   1  18
TORSDOF 5
ENDMDL
MODEL 2
REMARK VINA RESULT:      -7.7      0.982      1.469
REMARK  Name = 
REMARK  8 active torsions:
REMARK  status: ('A' for Active; 'I' for Inactive)
REMARK    1  A    between atoms: C_1  and  C_2
REMARK    2  A    between atoms: C_2  and  C_3
REMARK    3  A    between atoms: C_2  and  C_4
REMARK    4  A    between atoms: C_2  and  C_5
REMARK    5  A    between atoms: C_8  and  C_9
REMARK    6  A    between atoms: C_9  and  N_10
REMARK    7  A    between atoms: N_13  and  C_14
REMARK    8  A    between atoms: C_16  and  C_17
REMARK                            x       y       z     vdW  Elec       q    Type
REMARK                         _______ _______ _______ _____ _____    ______ ____
ROOT
ATOM      1  N   UNL     1       7.395   6.784  16.633  0.00  0.00    +0.000 N 
ATOM      2  C   UNL     1       7.835   7.523  17.700  0.00  0.00    +0.000 C 
ATOM      3  O   UNL     1       8.065   7.048  18.802  0.00  0.00    +0.000 OA
ATOM      4  N   UNL     1       7.959   8.855  17.379  0.00  0.00    +0.000 N 
ATOM      5  H   UNL     1       7.542   7.144  15.701  0.00  0.00    +0.000 HD
ATOM      6  H   UNL     1       7.605   9.153  16.481  0.00  0.00    +0.000 HD
ENDROOT
BRANCH   4   7
ATOM      7  C   UNL     1       8.267   9.861  18.348  0.00  0.00    +0.000 C 
ATOM      8  C   UNL     1       9.579   9.854  19.071  0.00  0.00    +0.000 C 
ATOM      9  C   UNL     1       9.311  10.924  18.043  0.00  0.00    +0.000 C 
BRANCH   9  10
ATOM     10  C   UNL     1       9.001  12.359  18.406  0.00  0.00    +0.000 A 
ATOM     11  C   UNL     1       9.629  13.035  19.467  0.00  0.00    +0.000 A 
ATOM     12  C   UNL     1       9.309  14.364  19.771  0.00  0.00    +0.000 A 
ATOM     13  C   UNL     1       8.365  15.038  19.006  0.00  0.00    +0.000 A 
ATOM     14  F   UNL     1       8.062  16.308  19.301  0.00  0.00    +0.000 F 
ATOM     15  C   UNL     1       7.739  14.416  17.939  0.00  0.00    +0.000 A 
ATOM     16  C   UNL     1       8.064  13.093  17.652  0.00  0.00    +0.000 A 
ATOM     17  F   UNL     1       7.464  12.503  16.606  0.00  0.00    +0.000 F 
ENDBRANCH   9  10
ENDBRANCH   4   7
BRANCH   1  18
ATOM     18  C   UNL     1       7.267   5.344  16.739  0.00  0.00    +0.000 C 
BRANCH  18  22
ATOM     19  C   UNL     1       4.188   4.198  18.222  0.00  0.00    +0.000 A 
ATOM     20  C   UNL     1       3.770   5.205  17.377  0.00  0.00    +0.000 A 
ATOM     21  O   UNL     1       4.859   5.727  16.751  0.00  0.00    +0.000 OA
ATOM     22  C   UNL     1       5.909   5.003  17.245  0.00  0.00    +0.000 A 
ATOM     23  N   UNL     1       5.561   4.075  18.122  0.00  0.00    +0.000 NA
BRANCH  19  25
ATOM     24  C   UNL     1       2.378   2.470  18.321  0.00  0.00    +0.000 C 
ATOM     25  C   UNL     1       3.368   3.320  19.140  0.00  0.00    +0.000 C 
ATOM     26  C   UNL     1       2.572   4.183  20.140  0.00  0.00    +0.000 C 
ATOM     27  C   UNL     1       4.272   2.366  19.947  0.00  0.00    +0.000 C 
ENDBRANCH  19  25
ENDBRANCH  18  22
ENDBRANCH   1  18
TORSDOF 5
ENDMDL
MODEL 3
REMARK VINA RESULT:      -7.6      1.374      2.034
REMARK  Name = 
REMARK  8 active torsions:
REMARK  status: ('A' for Active; 'I' for Inactive)
REMARK    1  A    between atoms: C_1  and  C_2
REMARK    2  A    between atoms: C_2  and  C_3
REMARK    3  A    between atoms: C_2  and  C_4
REMARK    4  A    between atoms: C_2  and  C_5
REMARK    5  A    between atoms: C_8  and  C_9
REMARK    6  A    between atoms: C_9  and  N_10
REMARK    7  A    between atoms: N_13  and  C_14
REMARK    8  A    between atoms: C_16  and  C_17
REMARK                            x       y       z     vdW  Elec       q    Type
REMARK                         _______ _______ _______ _____ _____    ______ ____
ROOT
ATOM      1  N   UNL     1       7.386   6.555  16.668  0.00  0.00    +0.000 N 
ATOM      2  C   UNL     1       7.754   7.392  17.690  0.00  0.00    +0.000 C 
ATOM      3  O   UNL     1       7.916   7.019  18.842  0.00  0.00    +0.000 OA
ATOM      4  N   UNL     1       7.891   8.691  17.259  0.00  0.00    +0.000 N 
ATOM      5  H   UNL     1       7.590   6.832  15.719  0.00  0.00    +0.000 HD
ATOM      6  H   UNL     1       7.593   8.903  16.317  0.00  0.00    +0.000 HD
ENDROOT
BRANCH   4   7
ATOM      7  C   UNL     1       8.131   9.783  18.151  0.00  0.00    +0.000 C 
ATOM      8  C   UNL     1       9.314   9.777  19.069  0.00  0.00    +0.000 C 
ATOM      9  C   UNL     1       9.293  10.732  17.904  0.00  0.00    +0.000 C 
BRANCH   9  10
ATOM     10  C   UNL     1       9.050  12.217  18.057  0.00  0.00    +0.000 A 
ATOM     11  C   UNL     1       7.930  12.871  17.513  0.00  0.00    +0.000 A 
ATOM     12  C   UNL     1       7.744  14.249  17.676  0.00  0.00    +0.000 A 
ATOM     13  C   UNL     1       8.673  14.990  18.397  0.00  0.00    +0.000 A 
ATOM     14  F   UNL     1       8.492  16.307  18.549  0.00  0.00    +0.000 F 
ATOM     15  C   UNL     1       9.779  14.381  18.968  0.00  0.00    +0.000 A 
ATOM     16  C   UNL     1       9.952  13.011  18.793  0.00  0.00    +0.000 A 
ATOM     17  F   UNL     1      11.018  12.427  19.362  0.00  0.00    +0.000 F 
ENDBRANCH   9  10
ENDBRANCH   4   7
BRANCH   1  18
ATOM     18  C   UNL     1       7.260   5.129  16.895  0.00  0.00    +0.000 C 
BRANCH  18  22
ATOM     19  C   UNL     1       4.016   3.982  17.971  0.00  0.00    +0.000 A 
ATOM     20  C   UNL     1       3.720   5.123  17.253  0.00  0.00    +0.000 A 
ATOM     21  O   UNL     1       4.882   5.658  16.790  0.00  0.00    +0.000 OA
ATOM     22  C   UNL     1       5.849   4.807  17.247  0.00  0.00    +0.000 A 
ATOM     23  N   UNL     1       5.384   3.788  17.953  0.00  0.00    +0.000 NA
BRANCH  19  25
ATOM     24  C   UNL     1       1.622   3.316  18.279  0.00  0.00    +0.000 C 
ATOM     25  C   UNL     1       3.080   3.037  18.690  0.00  0.00    +0.000 C 
ATOM     26  C   UNL     1       3.208   3.213  20.217  0.00  0.00    +0.000 C 
ATOM     27  C   UNL     1       3.407   1.569  18.350  0.00  0.00    +0.000 C 
ENDBRANCH  19  25
ENDBRANCH  18  22
ENDBRANCH   1  18
TORSDOF 5
ENDMDL
MODEL 4
REMARK VINA RESULT:      -7.6      0.872      1.187
REMARK  Name = 
REMARK  8 active torsions:
REMARK  status: ('A' for Active; 'I' for Inactive)
REMARK    1  A    between atoms: C_1  and  C_2
REMARK    2  A    between atoms: C_2  and  C_3
REMARK    3  A    between atoms: C_2  and  C_4
REMARK    4  A    between atoms: C_2  and  C_5
REMARK    5  A    between atoms: C_8  and  C_9
REMARK    6  A    between atoms: C_9  and  N_10
REMARK    7  A    between atoms: N_13  and  C_14
REMARK    8  A    between atoms: C_16  and  C_17
REMARK                            x       y       z     vdW  Elec       q    Type
REMARK                         _______ _______ _______ _____ _____    ______ ____
ROOT
ATOM      1  N   UNL     1       7.265   7.259  16.949  0.00  0.00    +0.000 N 
ATOM      2  C   UNL     1       7.928   8.000  17.892  0.00  0.00    +0.000 C 
ATOM      3  O   UNL     1       8.448   7.516  18.887  0.00  0.00    +0.000 OA
ATOM      4  N   UNL     1       7.908   9.342  17.591  0.00  0.00    +0.000 N 
ATOM      5  H   UNL     1       7.156   7.643  16.021  0.00  0.00    +0.000 HD
ATOM      6  H   UNL     1       7.326   9.638  16.820  0.00  0.00    +0.000 HD
ENDROOT
BRANCH   4   7
ATOM      7  C   UNL     1       8.406  10.345  18.482  0.00  0.00    +0.000 C 
ATOM      8  C   UNL     1       9.852  10.377  18.870  0.00  0.00    +0.000 C 
ATOM      9  C   UNL     1       9.310  11.451  17.961  0.00  0.00    +0.000 C 
BRANCH   9  10
ATOM     10  C   UNL     1       9.048  12.867  18.421  0.00  0.00    +0.000 A 
ATOM     11  C   UNL     1       9.806  13.501  19.422  0.00  0.00    +0.000 A 
ATOM     12  C   UNL     1       9.528  14.814  19.820  0.00  0.00    +0.000 A 
ATOM     13  C   UNL     1       8.493  15.515  19.212  0.00  0.00    +0.000 A 
ATOM     14  F   UNL     1       8.230  16.770  19.597  0.00  0.00    +0.000 F 
ATOM     15  C   UNL     1       7.736  14.935  18.207  0.00  0.00    +0.000 A 
ATOM     16  C   UNL     1       8.022  13.627  17.825  0.00  0.00    +0.000 A 
ATOM     17  F   UNL     1       7.294  13.079  16.841  0.00  0.00    +0.000 F 
ENDBRANCH   9  10
ENDBRANCH   4   7
BRANCH   1  18
ATOM     18  C   UNL     1       7.232   5.812  17.040  0.00  0.00    +0.000 C 
BRANCH  18  22
ATOM     19  C   UNL     1       4.109   5.149  18.711  0.00  0.00    +0.000 A 
ATOM     20  C   UNL     1       4.941   4.166  19.206  0.00  0.00    +0.000 A 
ATOM     21  O   UNL     1       6.169   4.311  18.640  0.00  0.00    +0.000 OA
ATOM     22  C   UNL     1       6.032   5.393  17.815  0.00  0.00    +0.000 A 
ATOM     23  N   UNL     1       4.823   5.932  17.826  0.00  0.00    +0.000 NA
BRANCH  19  25
ATOM     24  C   UNL     1       2.393   6.926  19.123  0.00  0.00    +0.000 C 
ATOM     25  C   UNL     1       2.651   5.411  19.019  0.00  0.00    +0.000 C 
ATOM     26  C   UNL     1       2.256   4.748  20.354  0.00  0.00    +0.000 C 
ATOM     27  C   UNL     1       1.739   4.840  17.915  0.00  0.00    +0.000 C 
ENDBRANCH  19  25
ENDBRANCH  18  22
ENDBRANCH   1  18
TORSDOF 5
ENDMDL
MODEL 5
REMARK VINA RESULT:      -7.6      1.409      1.978
REMARK  Name = 
REMARK  8 active torsions:
REMARK  status: ('A' for Active; 'I' for Inactive)
REMARK    1  A    between atoms: C_1  and  C_2
REMARK    2  A    between atoms: C_2  and  C_3
REMARK    3  A    between atoms: C_2  and  C_4
REMARK    4  A    between atoms: C_2  and  C_5
REMARK    5  A    between atoms: C_8  and  C_9
REMARK    6  A    between atoms: C_9  and  N_10
REMARK    7  A    between atoms: N_13  and  C_14
REMARK    8  A    between atoms: C_16  and  C_17
REMARK                            x       y       z     vdW  Elec       q    Type
REMARK                         _______ _______ _______ _____ _____    ______ ____
ROOT
ATOM      1  N   UNL     1       6.999   6.283  16.673  0.00  0.00    +0.000 N 
ATOM      2  C   UNL     1       7.523   7.096  17.644  0.00  0.00    +0.000 C 
ATOM      3  O   UNL     1       7.901   6.689  18.733  0.00  0.00    +0.000 OA
ATOM      4  N   UNL     1       7.544   8.413  17.249  0.00  0.00    +0.000 N 
ATOM      5  H   UNL     1       7.020   6.600  15.714  0.00  0.00    +0.000 HD
ATOM      6  H   UNL     1       7.074   8.648  16.385  0.00  0.00    +0.000 HD
ENDROOT
BRANCH   4   7
ATOM      7  C   UNL     1       7.911   9.481  18.126  0.00  0.00    +0.000 C 
ATOM      8  C   UNL     1       9.181   9.421  18.919  0.00  0.00    +0.000 C 
ATOM      9  C   UNL     1       9.074  10.396  17.774  0.00  0.00    +0.000 C 
BRANCH   9  10
ATOM     10  C   UNL     1       8.900  11.885  17.971  0.00  0.00    +0.000 A 
ATOM     11  C   UNL     1       7.845  12.616  17.396  0.00  0.00    +0.000 A 
ATOM     12  C   UNL     1       7.723  13.996  17.601  0.00  0.00    +0.000 A 
ATOM     13  C   UNL     1       8.647  14.660  18.399  0.00  0.00    +0.000 A 
ATOM     14  F   UNL     1       8.526  15.979  18.591  0.00  0.00    +0.000 F 
ATOM     15  C   UNL     1       9.688  13.973  19.002  0.00  0.00    +0.000 A 
ATOM     16  C   UNL     1       9.800  12.602  18.785  0.00  0.00    +0.000 A 
ATOM     17  F   UNL     1      10.802  11.943  19.386  0.00  0.00    +0.000 F 
ENDBRANCH   9  10
ENDBRANCH   4   7
BRANCH   1  18
ATOM     18  C   UNL     1       6.955   4.846  16.861  0.00  0.00    +0.000 C 
BRANCH  18  22
ATOM     19  C   UNL     1       3.916   4.123  18.657  0.00  0.00    +0.000 A 
ATOM     20  C   UNL     1       4.899   3.823  19.577  0.00  0.00    +0.000 A 
ATOM     21  O   UNL     1       6.112   4.056  19.008  0.00  0.00    +0.000 OA
ATOM     22  C   UNL     1       5.812   4.498  17.749  0.00  0.00    +0.000 A 
ATOM     23  N   UNL     1       4.515   4.562  17.492  0.00  0.00    +0.000 NA
BRANCH  19  25
ATOM     24  C   UNL     1       1.723   4.513  17.510  0.00  0.00    +0.000 C 
ATOM     25  C   UNL     1       2.413   4.026  18.799  0.00  0.00    +0.000 C 
ATOM     26  C   UNL     1       1.927   4.891  19.979  0.00  0.00    +0.000 C 
ATOM     27  C   UNL     1       1.974   2.571  19.062  0.00  0.00    +0.000 C 
ENDBRANCH  19  25
ENDBRANCH  18  22
ENDBRANCH   1  18
TORSDOF 5
ENDMDL
MODEL 6
REMARK VINA RESULT:      -7.6      6.956      9.668
REMARK  Name = 
REMARK  8 active torsions:
REMARK  status: ('A' for Active; 'I' for Inactive)
REMARK    1  A    between atoms: C_1  and  C_2
REMARK    2  A    between atoms: C_2  and  C_3
REMARK    3  A    between atoms: C_2  and  C_4
REMARK    4  A    between atoms: C_2  and  C_5
REMARK    5  A    between atoms: C_8  and  C_9
REMARK    6  A    between atoms: C_9  and  N_10
REMARK    7  A    between atoms: N_13  and  C_14
REMARK    8  A    between atoms: C_16  and  C_17
REMARK                            x       y       z     vdW  Elec       q    Type
REMARK                         _______ _______ _______ _____ _____    ______ ____
ROOT
ATOM      1  N   UNL     1       1.479   8.749  17.614  0.00  0.00    +0.000 N 
ATOM      2  C   UNL     1       0.825   9.634  18.432  0.00  0.00    +0.000 C 
ATOM      3  O   UNL     1       1.221   9.940  19.547  0.00  0.00    +0.000 OA
ATOM      4  N   UNL     1      -0.330  10.104  17.853  0.00  0.00    +0.000 N 
ATOM      5  H   UNL     1       1.304   8.790  16.621  0.00  0.00    +0.000 HD
ATOM      6  H   UNL     1      -0.628   9.671  16.990  0.00  0.00    +0.000 HD
ENDROOT
BRANCH   4   7
ATOM      7  C   UNL     1      -1.267  10.930  18.549  0.00  0.00    +0.000 C 
ATOM      8  C   UNL     1      -1.177  12.423  18.474  0.00  0.00    +0.000 C 
ATOM      9  C   UNL     1      -2.314  11.719  17.779  0.00  0.00    +0.000 C 
BRANCH   9  10
ATOM     10  C   UNL     1      -3.734  11.726  18.300  0.00  0.00    +0.000 A 
ATOM     11  C   UNL     1      -4.094  12.296  19.535  0.00  0.00    +0.000 A 
ATOM     12  C   UNL     1      -5.420  12.278  19.982  0.00  0.00    +0.000 A 
ATOM     13  C   UNL     1      -6.407  11.702  19.191  0.00  0.00    +0.000 A 
ATOM     14  F   UNL     1      -7.674  11.687  19.623  0.00  0.00    +0.000 F 
ATOM     15  C   UNL     1      -6.099  11.150  17.959  0.00  0.00    +0.000 A 
ATOM     16  C   UNL     1      -4.774  11.170  17.530  0.00  0.00    +0.000 A 
ATOM     17  F   UNL     1      -4.487  10.648  16.328  0.00  0.00    +0.000 F 
ENDBRANCH   9  10
ENDBRANCH   4   7
BRANCH   1  18
ATOM     18  C   UNL     1       2.759   8.192  18.007  0.00  0.00    +0.000 C 
BRANCH  18  22
ATOM     19  C   UNL     1       2.306   4.773  19.052  0.00  0.00    +0.000 A 
ATOM     20  C   UNL     1       2.163   5.479  20.229  0.00  0.00    +0.000 A 
ATOM     21  O   UNL     1       2.317   6.804  19.962  0.00  0.00    +0.000 OA
ATOM     22  C   UNL     1       2.548   6.849  18.615  0.00  0.00    +0.000 A 
ATOM     23  N   UNL     1       2.545   5.664  18.025  0.00  0.00    +0.000 NA
BRANCH  19  25
ATOM     24  C   UNL     1       2.556   2.954  17.349  0.00  0.00    +0.000 C 
ATOM     25  C   UNL     1       2.232   3.280  18.819  0.00  0.00    +0.000 C 
ATOM     26  C   UNL     1       0.819   2.755  19.144  0.00  0.00    +0.000 C 
ATOM     27  C   UNL     1       3.238   2.528  19.714  0.00  0.00    +0.000 C 
ENDBRANCH  19  25
ENDBRANCH  18  22
ENDBRANCH   1  18
TORSDOF 5
ENDMDL
MODEL 7
REMARK VINA RESULT:      -7.5      1.257      1.326
REMARK  Name = 
REMARK  8 active torsions:
REMARK  status: ('A' for Active; 'I' for Inactive)
REMARK    1  A    between atoms: C_1  and  C_2
REMARK    2  A    between atoms: C_2  and  C_3
REMARK    3  A    between atoms: C_2  and  C_4
REMARK    4  A    between atoms: C_2  and  C_5
REMARK    5  A    between atoms: C_8  and  C_9
REMARK    6  A    between atoms: C_9  and  N_10
REMARK    7  A    between atoms: N_13  and  C_14
REMARK    8  A    between atoms: C_16  and  C_17
REMARK                            x       y       z     vdW  Elec       q    Type
REMARK                         _______ _______ _______ _____ _____    ______ ____
ROOT
ATOM      1  N   UNL     1       7.316   7.323  16.875  0.00  0.00    +0.000 N 
ATOM      2  C   UNL     1       7.964   8.044  17.843  0.00  0.00    +0.000 C 
ATOM      3  O   UNL     1       8.463   7.541  18.839  0.00  0.00    +0.000 OA
ATOM      4  N   UNL     1       7.958   9.391  17.564  0.00  0.00    +0.000 N 
ATOM      5  H   UNL     1       7.227   7.723  15.951  0.00  0.00    +0.000 HD
ATOM      6  H   UNL     1       7.392   9.703  16.786  0.00  0.00    +0.000 HD
ENDROOT
BRANCH   4   7
ATOM      7  C   UNL     1       8.444  10.376  18.480  0.00  0.00    +0.000 C 
ATOM      8  C   UNL     1       9.730  10.168  19.219  0.00  0.00    +0.000 C 
ATOM      9  C   UNL     1       9.667  11.209  18.131  0.00  0.00    +0.000 C 
BRANCH   9  10
ATOM     10  C   UNL     1       9.626  12.695  18.411  0.00  0.00    +0.000 A 
ATOM     11  C   UNL     1       8.989  13.246  19.537  0.00  0.00    +0.000 A 
ATOM     12  C   UNL     1       8.972  14.628  19.757  0.00  0.00    +0.000 A 
ATOM     13  C   UNL     1       9.605  15.477  18.858  0.00  0.00    +0.000 A 
ATOM     14  F   UNL     1       9.585  16.799  19.072  0.00  0.00    +0.000 F 
ATOM     15  C   UNL     1      10.263  14.974  17.748  0.00  0.00    +0.000 A 
ATOM     16  C   UNL     1      10.268  13.598  17.540  0.00  0.00    +0.000 A 
ATOM     17  F   UNL     1      10.920  13.118  16.471  0.00  0.00    +0.000 F 
ENDBRANCH   9  10
ENDBRANCH   4   7
BRANCH   1  18
ATOM     18  C   UNL     1       7.272   5.875  16.941  0.00  0.00    +0.000 C 
BRANCH  18  22
ATOM     19  C   UNL     1       4.149   5.187  18.601  0.00  0.00    +0.000 A 
ATOM     20  C   UNL     1       5.001   4.245  19.140  0.00  0.00    +0.000 A 
ATOM     21  O   UNL     1       6.231   4.403  18.581  0.00  0.00    +0.000 OA
ATOM     22  C   UNL     1       6.075   5.451  17.718  0.00  0.00    +0.000 A 
ATOM     23  N   UNL     1       4.853   5.958  17.696  0.00  0.00    +0.000 NA
BRANCH  19  25
ATOM     24  C   UNL     1       2.327   4.926  20.300  0.00  0.00    +0.000 C 
ATOM     25  C   UNL     1       2.682   5.421  18.885  0.00  0.00    +0.000 C 
ATOM     26  C   UNL     1       1.809   4.666  17.861  0.00  0.00    +0.000 C 
ATOM     27  C   UNL     1       2.332   6.920  18.796  0.00  0.00    +0.000 C 
ENDBRANCH  19  25
ENDBRANCH  18  22
ENDBRANCH   1  18
TORSDOF 5
ENDMDL
MODEL 8
REMARK VINA RESULT:      -7.5      5.888      7.713
REMARK  Name = 
REMARK  8 active torsions:
REMARK  status: ('A' for Active; 'I' for Inactive)
REMARK    1  A    between atoms: C_1  and  C_2
REMARK    2  A    between atoms: C_2  and  C_3
REMARK    3  A    between atoms: C_2  and  C_4
REMARK    4  A    between atoms: C_2  and  C_5
REMARK    5  A    between atoms: C_8  and  C_9
REMARK    6  A    between atoms: C_9  and  N_10
REMARK    7  A    between atoms: N_13  and  C_14
REMARK    8  A    between atoms: C_16  and  C_17
REMARK                            x       y       z     vdW  Elec       q    Type
REMARK                         _______ _______ _______ _____ _____    ______ ____
ROOT
ATOM      1  N   UNL     1       2.918   5.592  20.591  0.00  0.00    +0.000 N 
ATOM      2  C   UNL     1       1.699   6.208  20.709  0.00  0.00    +0.000 C 
ATOM      3  O   UNL     1       0.637   5.651  20.474  0.00  0.00    +0.000 OA
ATOM      4  N   UNL     1       1.828   7.521  21.096  0.00  0.00    +0.000 N 
ATOM      5  H   UNL     1       3.703   5.972  21.101  0.00  0.00    +0.000 HD
ATOM      6  H   UNL     1       2.760   7.910  21.122  0.00  0.00    +0.000 HD
ENDROOT
BRANCH   4   7
ATOM      7  C   UNL     1       0.720   8.424  21.158  0.00  0.00    +0.000 C 
ATOM      8  C   UNL     1       0.727   9.583  22.107  0.00  0.00    +0.000 C 
ATOM      9  C   UNL     1       0.858   9.843  20.628  0.00  0.00    +0.000 C 
BRANCH   9  10
ATOM     10  C   UNL     1      -0.265  10.406  19.786  0.00  0.00    +0.000 A 
ATOM     11  C   UNL     1      -1.216  11.315  20.283  0.00  0.00    +0.000 A 
ATOM     12  C   UNL     1      -2.241  11.810  19.469  0.00  0.00    +0.000 A 
ATOM     13  C   UNL     1      -2.322  11.410  18.141  0.00  0.00    +0.000 A 
ATOM     14  F   UNL     1      -3.305  11.885  17.367  0.00  0.00    +0.000 F 
ATOM     15  C   UNL     1      -1.393  10.533  17.605  0.00  0.00    +0.000 A 
ATOM     16  C   UNL     1      -0.381  10.046  18.428  0.00  0.00    +0.000 A 
ATOM     17  F   UNL     1       0.523   9.209  17.897  0.00  0.00    +0.000 F 
ENDBRANCH   9  10
ENDBRANCH   4   7
BRANCH   1  18
ATOM     18  C   UNL     1       3.002   4.182  20.264  0.00  0.00    +0.000 C 
BRANCH  18  22
ATOM     19  C   UNL     1       4.786   4.199  17.133  0.00  0.00    +0.000 A 
ATOM     20  C   UNL     1       4.090   3.009  17.087  0.00  0.00    +0.000 A 
ATOM     21  O   UNL     1       3.368   2.884  18.233  0.00  0.00    +0.000 OA
ATOM     22  C   UNL     1       3.656   4.021  18.936  0.00  0.00    +0.000 A 
ATOM     23  N   UNL     1       4.493   4.841  18.321  0.00  0.00    +0.000 NA
BRANCH  19  25
ATOM     24  C   UNL     1       5.657   4.001  14.793  0.00  0.00    +0.000 C 
ATOM     25  C   UNL     1       5.732   4.793  16.112  0.00  0.00    +0.000 C 
ATOM     26  C   UNL     1       7.182   4.751  16.634  0.00  0.00    +0.000 C 
ATOM     27  C   UNL     1       5.374   6.263  15.814  0.00  0.00    +0.000 C 
ENDBRANCH  19  25
ENDBRANCH  18  22
ENDBRANCH   1  18
TORSDOF 5
ENDMDL
MODEL 9
REMARK VINA RESULT:      -7.5      2.119      2.364
REMARK  Name = 
REMARK  8 active torsions:
REMARK  status: ('A' for Active; 'I' for Inactive)
REMARK    1  A    between atoms: C_1  and  C_2
REMARK    2  A    between atoms: C_2  and  C_3
REMARK    3  A    between atoms: C_2  and  C_4
REMARK    4  A    between atoms: C_2  and  C_5
REMARK    5  A    between atoms: C_8  and  C_9
REMARK    6  A    between atoms: C_9  and  N_10
REMARK    7  A    between atoms: N_13  and  C_14
REMARK    8  A    between atoms: C_16  and  C_17
REMARK                            x       y       z     vdW  Elec       q    Type
REMARK                         _______ _______ _______ _____ _____    ______ ____
ROOT
ATOM      1  N   UNL     1       7.819   5.949  18.647  0.00  0.00    +0.000 N 
ATOM      2  C   UNL     1       7.987   7.102  17.926  0.00  0.00    +0.000 C 
ATOM      3  O   UNL     1       7.761   7.186  16.728  0.00  0.00    +0.000 OA
ATOM      4  N   UNL     1       8.459   8.128  18.709  0.00  0.00    +0.000 N 
ATOM      5  H   UNL     1       7.697   6.018  19.648  0.00  0.00    +0.000 HD
ATOM      6  H   UNL     1       8.744   7.902  19.653  0.00  0.00    +0.000 HD
ENDROOT
BRANCH   4   7
ATOM      7  C   UNL     1       8.851   9.396  18.175  0.00  0.00    +0.000 C 
ATOM      8  C   UNL     1       7.843  10.307  17.545  0.00  0.00    +0.000 C 
ATOM      9  C   UNL     1       8.442  10.682  18.876  0.00  0.00    +0.000 C 
BRANCH   9  10
ATOM     10  C   UNL     1       9.479  11.771  19.038  0.00  0.00    +0.000 A 
ATOM     11  C   UNL     1       9.934  12.562  17.968  0.00  0.00    +0.000 A 
ATOM     12  C   UNL     1      10.898  13.558  18.161  0.00  0.00    +0.000 A 
ATOM     13  C   UNL     1      11.410  13.785  19.433  0.00  0.00    +0.000 A 
ATOM     14  F   UNL     1      12.333  14.738  19.613  0.00  0.00    +0.000 F 
ATOM     15  C   UNL     1      10.973  13.043  20.518  0.00  0.00    +0.000 A 
ATOM     16  C   UNL     1      10.017  12.053  20.310  0.00  0.00    +0.000 A 
ATOM     17  F   UNL     1       9.588  11.350  21.369  0.00  0.00    +0.000 F 
ENDBRANCH   9  10
ENDBRANCH   4   7
BRANCH   1  18
ATOM     18  C   UNL     1       7.259   4.765  18.024  0.00  0.00    +0.000 C 
BRANCH  18  22
ATOM     19  C   UNL     1       3.752   4.723  18.850  0.00  0.00    +0.000 A 
ATOM     20  C   UNL     1       4.244   3.629  19.531  0.00  0.00    +0.000 A 
ATOM     21  O   UNL     1       5.580   3.534  19.293  0.00  0.00    +0.000 OA
ATOM     22  C   UNL     1       5.849   4.592  18.469  0.00  0.00    +0.000 A 
ATOM     23  N   UNL     1       4.793   5.336  18.180  0.00  0.00    +0.000 NA
BRANCH  19  25
ATOM     24  C   UNL     1       1.686   5.209  20.181  0.00  0.00    +0.000 C 
ATOM     25  C   UNL     1       2.335   5.249  18.784  0.00  0.00    +0.000 C 
ATOM     26  C   UNL     1       1.489   4.393  17.820  0.00  0.00    +0.000 C 
ATOM     27  C   UNL     1       2.307   6.706  18.279  0.00  0.00    +0.000 C 
ENDBRANCH  19  25
ENDBRANCH  18  22
ENDBRANCH   1  18
TORSDOF 5
ENDMDL
