MODEL 1
REMARK VINA RESULT:      -8.5      0.000      0.000
REMARK  Name = 
REMARK  4 active torsions:
REMARK  status: ('A' for Active; 'I' for Inactive)
REMARK    1  A    between atoms: C_2  and  C_3
REMARK    2  A    between atoms: N_13  and  C_14
REMARK    3  A    between atoms: C_14  and  C_15
REMARK    4  A    between atoms: C_22  and  C_23
REMARK                            x       y       z     vdW  Elec       q    Type
REMARK                         _______ _______ _______ _____ _____    ______ ____
ROOT
ATOM      1  O   UNL     1       2.011   5.606  20.682  0.00  0.00    +0.000 OA
ATOM      2  C   UNL     1       2.539   6.091  19.687  0.00  0.00    +0.000 C 
ATOM      3  N   UNL     1       3.412   5.380  18.850  0.00  0.00    +0.000 N 
ATOM      4  C   UNL     1       3.700   3.954  19.103  0.00  0.00    +0.000 C 
ATOM      5  C   UNL     1       3.717   3.063  17.826  0.00  0.00    +0.000 C 
ATOM      6  N   UNL     1       4.209   3.642  16.555  0.00  0.00    +0.000 NA
ATOM      7  C   UNL     1       3.781   5.051  16.459  0.00  0.00    +0.000 C 
ATOM      8  C   UNL     1       4.113   5.955  17.683  0.00  0.00    +0.000 C 
ENDROOT
BRANCH   2   9
ATOM      9  C   UNL     1       2.235   7.507  19.335  0.00  0.00    +0.000 A 
ATOM     10  C   UNL     1       2.517   7.949  18.031  0.00  0.00    +0.000 A 
ATOM     11  C   UNL     1       1.962   9.132  17.547  0.00  0.00    +0.000 A 
ATOM     12  C   UNL     1       1.221   9.944  18.398  0.00  0.00    +0.000 A 
ATOM     13  C   UNL     1       1.057   9.582  19.738  0.00  0.00    +0.000 A 
ATOM     14  C   UNL     1       1.552   8.358  20.211  0.00  0.00    +0.000 A 
ATOM     15 CL   UNL     1       1.226   7.952  21.855  0.00  0.00    +0.000 Cl
ENDBRANCH   2   9
BRANCH   8  16
ATOM     16  C   UNL     1       5.599   6.250  17.968  0.00  0.00    +0.000 A 
ATOM     17  C   UNL     1       6.288   5.528  18.956  0.00  0.00    +0.000 A 
ATOM     18  C   UNL     1       7.583   5.890  19.342  0.00  0.00    +0.000 A 
ATOM     19  C   UNL     1       8.249   6.925  18.692  0.00  0.00    +0.000 A 
ATOM     20  C   UNL     1       7.630   7.584  17.637  0.00  0.00    +0.000 A 
ATOM     21  C   UNL     1       6.321   7.248  17.280  0.00  0.00    +0.000 A 
ENDBRANCH   8  16
BRANCH   6  22
ATOM     22  C   UNL     1       5.659   3.535  16.365  0.00  0.00    +0.000 C 
BRANCH  22  23
ATOM     23  C   UNL     1       6.153   3.930  14.998  0.00  0.00    +0.000 A 
ATOM     24  C   UNL     1       7.203   4.848  14.839  0.00  0.00    +0.000 A 
ATOM     25  C   UNL     1       7.677   5.149  13.567  0.00  0.00    +0.000 A 
ATOM     26  C   UNL     1       7.116   4.537  12.445  0.00  0.00    +0.000 A 
ATOM     27  C   UNL     1       6.085   3.612  12.592  0.00  0.00    +0.000 A 
ATOM     28  C   UNL     1       5.611   3.304  13.863  0.00  0.00    +0.000 A 
ENDBRANCH  22  23
ENDBRANCH   6  22
TORSDOF 4
ENDMDL
MODEL 2
REMARK VINA RESULT:      -8.5      0.216      1.307
REMARK  Name = 
REMARK  4 active torsions:
REMARK  status: ('A' for Active; 'I' for Inactive)
REMARK    1  A    between atoms: C_2  and  C_3
REMARK    2  A    between atoms: N_13  and  C_14
REMARK    3  A    between atoms: C_14  and  C_15
REMARK    4  A    between atoms: C_22  and  C_23
REMARK                            x       y       z     vdW  Elec       q    Type
REMARK                         _______ _______ _______ _____ _____    ______ ____
ROOT
ATOM      1  O   UNL     1       1.774   5.698  20.731  0.00  0.00    +0.000 OA
ATOM      2  C   UNL     1       2.347   6.175  19.757  0.00  0.00    +0.000 C 
ATOM      3  N   UNL     1       3.245   5.452  18.957  0.00  0.00    +0.000 N 
ATOM      4  C   UNL     1       3.509   4.025  19.225  0.00  0.00    +0.000 C 
ATOM      5  C   UNL     1       3.568   3.129  17.952  0.00  0.00    +0.000 C 
ATOM      6  N   UNL     1       4.115   3.699  16.700  0.00  0.00    +0.000 NA
ATOM      7  C   UNL     1       3.704   5.111  16.583  0.00  0.00    +0.000 C 
ATOM      8  C   UNL     1       3.997   6.017  17.817  0.00  0.00    +0.000 C 
ENDROOT
BRANCH   2   9
ATOM      9  C   UNL     1       2.070   7.592  19.388  0.00  0.00    +0.000 A 
ATOM     10  C   UNL     1       2.260   7.987  18.053  0.00  0.00    +0.000 A 
ATOM     11  C   UNL     1       1.714   9.179  17.581  0.00  0.00    +0.000 A 
ATOM     12  C   UNL     1       1.078  10.044  18.465  0.00  0.00    +0.000 A 
ATOM     13  C   UNL     1       1.013   9.724  19.824  0.00  0.00    +0.000 A 
ATOM     14  C   UNL     1       1.497   8.493  20.291  0.00  0.00    +0.000 A 
ATOM     15 CL   UNL     1       1.293   8.145  21.968  0.00  0.00    +0.000 Cl
ENDBRANCH   2   9
BRANCH   8  16
ATOM     16  C   UNL     1       5.473   6.299  18.159  0.00  0.00    +0.000 A 
ATOM     17  C   UNL     1       6.195   7.264  17.441  0.00  0.00    +0.000 A 
ATOM     18  C   UNL     1       7.574   7.418  17.624  0.00  0.00    +0.000 A 
ATOM     19  C   UNL     1       8.244   6.670  18.587  0.00  0.00    +0.000 A 
ATOM     20  C   UNL     1       7.533   5.786  19.388  0.00  0.00    +0.000 A 
ATOM     21  C   UNL     1       6.163   5.604  19.176  0.00  0.00    +0.000 A 
ENDBRANCH   8  16
BRANCH   6  22
ATOM     22  C   UNL     1       5.571   3.578  16.568  0.00  0.00    +0.000 C 
BRANCH  22  23
ATOM     23  C   UNL     1       6.113   3.888  15.198  0.00  0.00    +0.000 A 
ATOM     24  C   UNL     1       5.555   3.314  14.045  0.00  0.00    +0.000 A 
ATOM     25  C   UNL     1       6.038   3.664  12.790  0.00  0.00    +0.000 A 
ATOM     26  C   UNL     1       7.076   4.590  12.669  0.00  0.00    +0.000 A 
ATOM     27  C   UNL     1       7.627   5.178  13.805  0.00  0.00    +0.000 A 
ATOM     28  C   UNL     1       7.142   4.834  15.063  0.00  0.00    +0.000 A 
ENDBRANCH  22  23
ENDBRANCH   6  22
TORSDOF 4
ENDMDL
MODEL 3
REMARK VINA RESULT:      -8.0      6.558      9.430
REMARK  Name = 
REMARK  4 active torsions:
REMARK  status: ('A' for Active; 'I' for Inactive)
REMARK    1  A    between atoms: C_2  and  C_3
REMARK    2  A    between atoms: N_13  and  C_14
REMARK    3  A    between atoms: C_14  and  C_15
REMARK    4  A    between atoms: C_22  and  C_23
REMARK                            x       y       z     vdW  Elec       q    Type
REMARK                         _______ _______ _______ _____ _____    ______ ____
ROOT
ATOM      1  O   UNL     1       1.988  14.890  22.213  0.00  0.00    +0.000 OA
ATOM      2  C   UNL     1       1.772  14.501  21.070  0.00  0.00    +0.000 C 
ATOM      3  N   UNL     1       0.742  13.608  20.738  0.00  0.00    +0.000 N 
ATOM      4  C   UNL     1      -0.194  13.124  21.771  0.00  0.00    +0.000 C 
ATOM      5  C   UNL     1      -1.687  13.088  21.325  0.00  0.00    +0.000 C 
ATOM      6  N   UNL     1      -2.004  12.768  19.914  0.00  0.00    +0.000 NA
ATOM      7  C   UNL     1      -0.991  13.377  19.032  0.00  0.00    +0.000 C 
ATOM      8  C   UNL     1       0.497  13.073  19.382  0.00  0.00    +0.000 C 
ENDROOT
BRANCH   2   9
ATOM      9  C   UNL     1       2.637  15.007  19.966  0.00  0.00    +0.000 A 
ATOM     10  C   UNL     1       3.789  14.278  19.629  0.00  0.00    +0.000 A 
ATOM     11  C   UNL     1       4.443  14.504  18.419  0.00  0.00    +0.000 A 
ATOM     12  C   UNL     1       4.025  15.540  17.593  0.00  0.00    +0.000 A 
ATOM     13  C   UNL     1       2.969  16.364  17.991  0.00  0.00    +0.000 A 
ATOM     14  C   UNL     1       2.262  16.096  19.172  0.00  0.00    +0.000 A 
ATOM     15 CL   UNL     1       0.916  17.110  19.539  0.00  0.00    +0.000 Cl
ENDBRANCH   2   9
BRANCH   8  16
ATOM     16  C   UNL     1       0.984  11.621  19.220  0.00  0.00    +0.000 A 
ATOM     17  C   UNL     1       1.683  11.232  18.065  0.00  0.00    +0.000 A 
ATOM     18  C   UNL     1       1.988   9.888  17.825  0.00  0.00    +0.000 A 
ATOM     19  C   UNL     1       1.677   8.915  18.770  0.00  0.00    +0.000 A 
ATOM     20  C   UNL     1       1.083   9.287  19.970  0.00  0.00    +0.000 A 
ATOM     21  C   UNL     1       0.743  10.625  20.191  0.00  0.00    +0.000 A 
ENDBRANCH   8  16
BRANCH   6  22
ATOM     22  C   UNL     1      -2.128  11.333  19.635  0.00  0.00    +0.000 C 
BRANCH  22  23
ATOM     23  C   UNL     1      -2.568  10.993  18.235  0.00  0.00    +0.000 A 
ATOM     24  C   UNL     1      -1.831  10.106  17.435  0.00  0.00    +0.000 A 
ATOM     25  C   UNL     1      -2.292   9.765  16.169  0.00  0.00    +0.000 A 
ATOM     26  C   UNL     1      -3.490  10.298  15.689  0.00  0.00    +0.000 A 
ATOM     27  C   UNL     1      -4.237  11.166  16.481  0.00  0.00    +0.000 A 
ATOM     28  C   UNL     1      -3.782  11.506  17.751  0.00  0.00    +0.000 A 
ENDBRANCH  22  23
ENDBRANCH   6  22
TORSDOF 4
ENDMDL
MODEL 4
REMARK VINA RESULT:      -7.8      5.047      8.839
REMARK  Name = 
REMARK  4 active torsions:
REMARK  status: ('A' for Active; 'I' for Inactive)
REMARK    1  A    between atoms: C_2  and  C_3
REMARK    2  A    between atoms: N_13  and  C_14
REMARK    3  A    between atoms: C_14  and  C_15
REMARK    4  A    between atoms: C_22  and  C_23
REMARK                            x       y       z     vdW  Elec       q    Type
REMARK                         _______ _______ _______ _____ _____    ______ ____
ROOT
ATOM      1  O   UNL     1      -1.196  15.378  20.311  0.00  0.00    +0.000 OA
ATOM      2  C   UNL     1      -1.553  14.214  20.459  0.00  0.00    +0.000 C 
ATOM      3  N   UNL     1      -0.877  13.121  19.897  0.00  0.00    +0.000 N 
ATOM      4  C   UNL     1       0.366  13.321  19.126  0.00  0.00    +0.000 C 
ATOM      5  C   UNL     1       1.490  12.288  19.434  0.00  0.00    +0.000 C 
ATOM      6  N   UNL     1       1.112  10.895  19.765  0.00  0.00    +0.000 NA
ATOM      7  C   UNL     1      -0.119  10.901  20.578  0.00  0.00    +0.000 C 
ATOM      8  C   UNL     1      -1.318  11.714  20.004  0.00  0.00    +0.000 C 
ENDROOT
BRANCH   2   9
ATOM      9  C   UNL     1      -2.761  13.936  21.286  0.00  0.00    +0.000 A 
ATOM     10  C   UNL     1      -4.004  13.826  20.641  0.00  0.00    +0.000 A 
ATOM     11  C   UNL     1      -5.093  13.248  21.293  0.00  0.00    +0.000 A 
ATOM     12  C   UNL     1      -4.983  12.888  22.631  0.00  0.00    +0.000 A 
ATOM     13  C   UNL     1      -3.792  13.129  23.321  0.00  0.00    +0.000 A 
ATOM     14  C   UNL     1      -2.672  13.643  22.651  0.00  0.00    +0.000 A 
ATOM     15 CL   UNL     1      -1.217  13.823  23.560  0.00  0.00    +0.000 Cl
ENDBRANCH   2   9
BRANCH   8  16
ATOM     16  C   UNL     1      -1.974  11.197  18.709  0.00  0.00    +0.000 A 
ATOM     17  C   UNL     1      -2.657   9.971  18.701  0.00  0.00    +0.000 A 
ATOM     18  C   UNL     1      -3.116   9.408  17.505  0.00  0.00    +0.000 A 
ATOM     19  C   UNL     1      -2.976  10.096  16.304  0.00  0.00    +0.000 A 
ATOM     20  C   UNL     1      -2.401  11.361  16.299  0.00  0.00    +0.000 A 
ATOM     21  C   UNL     1      -1.908  11.904  17.489  0.00  0.00    +0.000 A 
ENDBRANCH   8  16
BRANCH   6  22
ATOM     22  C   UNL     1       0.949  10.021  18.598  0.00  0.00    +0.000 C 
BRANCH  22  23
ATOM     23  C   UNL     1       1.723   8.730  18.658  0.00  0.00    +0.000 A 
ATOM     24  C   UNL     1       2.597   8.356  17.625  0.00  0.00    +0.000 A 
ATOM     25  C   UNL     1       3.343   7.188  17.735  0.00  0.00    +0.000 A 
ATOM     26  C   UNL     1       3.230   6.385  18.871  0.00  0.00    +0.000 A 
ATOM     27  C   UNL     1       2.378   6.755  19.909  0.00  0.00    +0.000 A 
ATOM     28  C   UNL     1       1.634   7.926  19.806  0.00  0.00    +0.000 A 
ENDBRANCH  22  23
ENDBRANCH   6  22
TORSDOF 4
ENDMDL
MODEL 5
REMARK VINA RESULT:      -7.6      4.959      8.734
REMARK  Name = 
REMARK  4 active torsions:
REMARK  status: ('A' for Active; 'I' for Inactive)
REMARK    1  A    between atoms: C_2  and  C_3
REMARK    2  A    between atoms: N_13  and  C_14
REMARK    3  A    between atoms: C_14  and  C_15
REMARK    4  A    between atoms: C_22  and  C_23
REMARK                            x       y       z     vdW  Elec       q    Type
REMARK                         _______ _______ _______ _____ _____    ______ ____
ROOT
ATOM      1  O   UNL     1      -0.860  15.173  20.448  0.00  0.00    +0.000 OA
ATOM      2  C   UNL     1      -1.323  14.042  20.552  0.00  0.00    +0.000 C 
ATOM      3  N   UNL     1      -0.699  12.899  20.029  0.00  0.00    +0.000 N 
ATOM      4  C   UNL     1       0.611  13.000  19.357  0.00  0.00    +0.000 C 
ATOM      5  C   UNL     1       1.619  11.874  19.734  0.00  0.00    +0.000 C 
ATOM      6  N   UNL     1       1.101  10.515  20.017  0.00  0.00    +0.000 NA
ATOM      7  C   UNL     1      -0.184  10.619  20.734  0.00  0.00    +0.000 C 
ATOM      8  C   UNL     1      -1.263  11.534  20.082  0.00  0.00    +0.000 C 
ENDROOT
BRANCH   2   9
ATOM      9  C   UNL     1      -2.610  13.860  21.281  0.00  0.00    +0.000 A 
ATOM     10  C   UNL     1      -3.785  13.680  20.533  0.00  0.00    +0.000 A 
ATOM     11  C   UNL     1      -4.940  13.181  21.134  0.00  0.00    +0.000 A 
ATOM     12  C   UNL     1      -4.967  12.973  22.508  0.00  0.00    +0.000 A 
ATOM     13  C   UNL     1      -3.846  13.288  23.281  0.00  0.00    +0.000 A 
ATOM     14  C   UNL     1      -2.659  13.721  22.673  0.00  0.00    +0.000 A 
ATOM     15 CL   UNL     1      -1.298  14.001  23.696  0.00  0.00    +0.000 Cl
ENDBRANCH   2   9
BRANCH   8  16
ATOM     16  C   UNL     1      -1.858  11.084  18.734  0.00  0.00    +0.000 A 
ATOM     17  C   UNL     1      -1.766  11.914  17.606  0.00  0.00    +0.000 A 
ATOM     18  C   UNL     1      -2.440  11.598  16.420  0.00  0.00    +0.000 A 
ATOM     19  C   UNL     1      -3.151  10.407  16.310  0.00  0.00    +0.000 A 
ATOM     20  C   UNL     1      -3.167   9.516  17.376  0.00  0.00    +0.000 A 
ATOM     21  C   UNL     1      -2.527   9.851  18.573  0.00  0.00    +0.000 A 
ENDBRANCH   8  16
BRANCH   6  22
ATOM     22  C   UNL     1       0.957   9.667  18.829  0.00  0.00    +0.000 C 
BRANCH  22  23
ATOM     23  C   UNL     1       1.902   8.496  18.765  0.00  0.00    +0.000 A 
ATOM     24  C   UNL     1       1.923   7.519  19.772  0.00  0.00    +0.000 A 
ATOM     25  C   UNL     1       2.765   6.419  19.657  0.00  0.00    +0.000 A 
ATOM     26  C   UNL     1       3.588   6.278  18.539  0.00  0.00    +0.000 A 
ATOM     27  C   UNL     1       3.565   7.233  17.525  0.00  0.00    +0.000 A 
ATOM     28  C   UNL     1       2.720   8.333  17.634  0.00  0.00    +0.000 A 
ENDBRANCH  22  23
ENDBRANCH   6  22
TORSDOF 4
ENDMDL
MODEL 6
REMARK VINA RESULT:      -7.6      4.955      8.801
REMARK  Name = 
REMARK  4 active torsions:
REMARK  status: ('A' for Active; 'I' for Inactive)
REMARK    1  A    between atoms: C_2  and  C_3
REMARK    2  A    between atoms: N_13  and  C_14
REMARK    3  A    between atoms: C_14  and  C_15
REMARK    4  A    between atoms: C_22  and  C_23
REMARK                            x       y       z     vdW  Elec       q    Type
REMARK                         _______ _______ _______ _____ _____    ______ ____
ROOT
ATOM      1  O   UNL     1      -0.965  15.475  19.839  0.00  0.00    +0.000 OA
ATOM      2  C   UNL     1      -1.267  14.312  20.083  0.00  0.00    +0.000 C 
ATOM      3  N   UNL     1      -0.588  13.207  19.548  0.00  0.00    +0.000 N 
ATOM      4  C   UNL     1       0.592  13.398  18.683  0.00  0.00    +0.000 C 
ATOM      5  C   UNL     1       1.773  12.425  18.979  0.00  0.00    +0.000 C 
ATOM      6  N   UNL     1       1.470  11.045  19.423  0.00  0.00    +0.000 NA
ATOM      7  C   UNL     1       0.295  11.063  20.315  0.00  0.00    +0.000 C 
ATOM      8  C   UNL     1      -0.969  11.797  19.773  0.00  0.00    +0.000 C 
ENDROOT
BRANCH   2   9
ATOM      9  C   UNL     1      -2.408  14.048  21.007  0.00  0.00    +0.000 A 
ATOM     10  C   UNL     1      -3.654  13.713  20.454  0.00  0.00    +0.000 A 
ATOM     11  C   UNL     1      -4.650  13.140  21.244  0.00  0.00    +0.000 A 
ATOM     12  C   UNL     1      -4.453  13.009  22.613  0.00  0.00    +0.000 A 
ATOM     13  C   UNL     1      -3.270  13.475  23.193  0.00  0.00    +0.000 A 
ATOM     14  C   UNL     1      -2.237  13.985  22.394  0.00  0.00    +0.000 A 
ATOM     15 CL   UNL     1      -0.777  14.453  23.186  0.00  0.00    +0.000 Cl
ENDBRANCH   2   9
BRANCH   8  16
ATOM     16  C   UNL     1      -1.688  11.174  18.562  0.00  0.00    +0.000 A 
ATOM     17  C   UNL     1      -1.798  11.889  17.358  0.00  0.00    +0.000 A 
ATOM     18  C   UNL     1      -2.586  11.411  16.305  0.00  0.00    +0.000 A 
ATOM     19  C   UNL     1      -3.211  10.171  16.398  0.00  0.00    +0.000 A 
ATOM     20  C   UNL     1      -3.028   9.394  17.535  0.00  0.00    +0.000 A 
ATOM     21  C   UNL     1      -2.274   9.890  18.603  0.00  0.00    +0.000 A 
ENDBRANCH   8  16
BRANCH   6  22
ATOM     22  C   UNL     1       1.265  10.091  18.328  0.00  0.00    +0.000 C 
BRANCH  22  23
ATOM     23  C   UNL     1       1.879   8.734  18.543  0.00  0.00    +0.000 A 
ATOM     24  C   UNL     1       2.753   8.171  17.600  0.00  0.00    +0.000 A 
ATOM     25  C   UNL     1       3.352   6.942  17.853  0.00  0.00    +0.000 A 
ATOM     26  C   UNL     1       3.091   6.265  19.046  0.00  0.00    +0.000 A 
ATOM     27  C   UNL     1       2.239   6.821  19.996  0.00  0.00    +0.000 A 
ATOM     28  C   UNL     1       1.641   8.054  19.749  0.00  0.00    +0.000 A 
ENDBRANCH  22  23
ENDBRANCH   6  22
TORSDOF 4
ENDMDL
MODEL 7
REMARK VINA RESULT:      -7.6      6.571      9.430
REMARK  Name = 
REMARK  4 active torsions:
REMARK  status: ('A' for Active; 'I' for Inactive)
REMARK    1  A    between atoms: C_2  and  C_3
REMARK    2  A    between atoms: N_13  and  C_14
REMARK    3  A    between atoms: C_14  and  C_15
REMARK    4  A    between atoms: C_22  and  C_23
REMARK                            x       y       z     vdW  Elec       q    Type
REMARK                         _______ _______ _______ _____ _____    ______ ____
ROOT
ATOM      1  O   UNL     1       1.817  14.934  22.418  0.00  0.00    +0.000 OA
ATOM      2  C   UNL     1       1.767  14.436  21.298  0.00  0.00    +0.000 C 
ATOM      3  N   UNL     1       0.722  13.605  20.867  0.00  0.00    +0.000 N 
ATOM      4  C   UNL     1      -0.429  13.327  21.748  0.00  0.00    +0.000 C 
ATOM      5  C   UNL     1      -1.813  13.370  21.035  0.00  0.00    +0.000 C 
ATOM      6  N   UNL     1      -1.908  12.918  19.627  0.00  0.00    +0.000 NA
ATOM      7  C   UNL     1      -0.695  13.331  18.896  0.00  0.00    +0.000 C 
ATOM      8  C   UNL     1       0.666  12.940  19.548  0.00  0.00    +0.000 C 
ENDROOT
BRANCH   2   9
ATOM      9  C   UNL     1       2.863  14.734  20.333  0.00  0.00    +0.000 A 
ATOM     10  C   UNL     1       2.529  15.303  19.093  0.00  0.00    +0.000 A 
ATOM     11  C   UNL     1       3.507  15.902  18.300  0.00  0.00    +0.000 A 
ATOM     12  C   UNL     1       4.841  15.832  18.681  0.00  0.00    +0.000 A 
ATOM     13  C   UNL     1       5.198  15.140  19.843  0.00  0.00    +0.000 A 
ATOM     14  C   UNL     1       4.212  14.599  20.680  0.00  0.00    +0.000 A 
ATOM     15 CL   UNL     1       4.738  13.841  22.138  0.00  0.00    +0.000 Cl
ENDBRANCH   2   9
BRANCH   8  16
ATOM     16  C   UNL     1       1.016  11.442  19.622  0.00  0.00    +0.000 A 
ATOM     17  C   UNL     1       1.473  10.763  18.481  0.00  0.00    +0.000 A 
ATOM     18  C   UNL     1       1.638   9.374  18.485  0.00  0.00    +0.000 A 
ATOM     19  C   UNL     1       1.430   8.643  19.651  0.00  0.00    +0.000 A 
ATOM     20  C   UNL     1       1.083   9.304  20.823  0.00  0.00    +0.000 A 
ATOM     21  C   UNL     1       0.881  10.687  20.807  0.00  0.00    +0.000 A 
ENDBRANCH   8  16
BRANCH   6  22
ATOM     22  C   UNL     1      -2.134  11.478  19.471  0.00  0.00    +0.000 C 
BRANCH  22  23
ATOM     23  C   UNL     1      -2.702  11.064  18.139  0.00  0.00    +0.000 A 
ATOM     24  C   UNL     1      -3.908  11.602  17.662  0.00  0.00    +0.000 A 
ATOM     25  C   UNL     1      -4.378  11.246  16.403  0.00  0.00    +0.000 A 
ATOM     26  C   UNL     1      -3.654  10.358  15.607  0.00  0.00    +0.000 A 
ATOM     27  C   UNL     1      -2.449   9.830  16.063  0.00  0.00    +0.000 A 
ATOM     28  C   UNL     1      -1.971  10.187  17.320  0.00  0.00    +0.000 A 
ENDBRANCH  22  23
ENDBRANCH   6  22
TORSDOF 4
ENDMDL
MODEL 8
REMARK VINA RESULT:      -7.5      5.876     10.388
REMARK  Name = 
REMARK  4 active torsions:
REMARK  status: ('A' for Active; 'I' for Inactive)
REMARK    1  A    between atoms: C_2  and  C_3
REMARK    2  A    between atoms: N_13  and  C_14
REMARK    3  A    between atoms: C_14  and  C_15
REMARK    4  A    between atoms: C_22  and  C_23
REMARK                            x       y       z     vdW  Elec       q    Type
REMARK                         _______ _______ _______ _____ _____    ______ ____
ROOT
ATOM      1  O   UNL     1      -1.419  10.235  18.493  0.00  0.00    +0.000 OA
ATOM      2  C   UNL     1      -0.590  10.594  19.322  0.00  0.00    +0.000 C 
ATOM      3  N   UNL     1      -0.453  11.922  19.754  0.00  0.00    +0.000 N 
ATOM      4  C   UNL     1      -1.365  12.971  19.258  0.00  0.00    +0.000 C 
ATOM      5  C   UNL     1      -1.867  13.961  20.352  0.00  0.00    +0.000 C 
ATOM      6  N   UNL     1      -0.957  14.319  21.464  0.00  0.00    +0.000 NA
ATOM      7  C   UNL     1      -0.168  13.136  21.855  0.00  0.00    +0.000 C 
ATOM      8  C   UNL     1       0.577  12.395  20.703  0.00  0.00    +0.000 C 
ENDROOT
BRANCH   2   9
ATOM      9  C   UNL     1       0.317   9.571  19.917  0.00  0.00    +0.000 A 
ATOM     10  C   UNL     1      -0.009   9.036  21.174  0.00  0.00    +0.000 A 
ATOM     11  C   UNL     1       0.596   7.864  21.625  0.00  0.00    +0.000 A 
ATOM     12  C   UNL     1       1.616   7.284  20.880  0.00  0.00    +0.000 A 
ATOM     13  C   UNL     1       2.045   7.893  19.697  0.00  0.00    +0.000 A 
ATOM     14  C   UNL     1       1.392   9.031  19.203  0.00  0.00    +0.000 A 
ATOM     15 CL   UNL     1       1.931   9.662  17.691  0.00  0.00    +0.000 Cl
ENDBRANCH   2   9
BRANCH   8  16
ATOM     16  C   UNL     1       1.729  13.143  20.005  0.00  0.00    +0.000 A 
ATOM     17  C   UNL     1       2.738  13.758  20.764  0.00  0.00    +0.000 A 
ATOM     18  C   UNL     1       3.698  14.577  20.159  0.00  0.00    +0.000 A 
ATOM     19  C   UNL     1       3.721  14.732  18.776  0.00  0.00    +0.000 A 
ATOM     20  C   UNL     1       2.801  14.048  17.992  0.00  0.00    +0.000 A 
ATOM     21  C   UNL     1       1.818  13.261  18.601  0.00  0.00    +0.000 A 
ENDBRANCH   8  16
BRANCH   6  22
ATOM     22  C   UNL     1      -0.071  15.452  21.176  0.00  0.00    +0.000 C 
BRANCH  22  23
ATOM     23  C   UNL     1      -0.566  16.392  20.109  0.00  0.00    +0.000 A 
ATOM     24  C   UNL     1      -1.648  17.255  20.341  0.00  0.00    +0.000 A 
ATOM     25  C   UNL     1      -2.045  18.153  19.358  0.00  0.00    +0.000 A 
ATOM     26  C   UNL     1      -1.368  18.205  18.138  0.00  0.00    +0.000 A 
ATOM     27  C   UNL     1      -0.283  17.364  17.902  0.00  0.00    +0.000 A 
ATOM     28  C   UNL     1       0.121  16.467  18.886  0.00  0.00    +0.000 A 
ENDBRANCH  22  23
ENDBRANCH   6  22
TORSDOF 4
ENDMDL
MODEL 9
REMARK VINA RESULT:      -7.4      5.795      9.771
REMARK  Name = 
REMARK  4 active torsions:
REMARK  status: ('A' for Active; 'I' for Inactive)
REMARK    1  A    between atoms: C_2  and  C_3
REMARK    2  A    between atoms: N_13  and  C_14
REMARK    3  A    between atoms: C_14  and  C_15
REMARK    4  A    between atoms: C_22  and  C_23
REMARK                            x       y       z     vdW  Elec       q    Type
REMARK                         _______ _______ _______ _____ _____    ______ ____
ROOT
ATOM      1  O   UNL     1      -2.781  15.498  20.957  0.00  0.00    +0.000 OA
ATOM      2  C   UNL     1      -2.809  14.273  20.999  0.00  0.00    +0.000 C 
ATOM      3  N   UNL     1      -1.886  13.455  20.332  0.00  0.00    +0.000 N 
ATOM      4  C   UNL     1      -0.769  14.048  19.570  0.00  0.00    +0.000 C 
ATOM      5  C   UNL     1       0.600  13.332  19.769  0.00  0.00    +0.000 C 
ATOM      6  N   UNL     1       0.619  11.865  19.973  0.00  0.00    +0.000 NA
ATOM      7  C   UNL     1      -0.541  11.469  20.795  0.00  0.00    +0.000 C 
ATOM      8  C   UNL     1      -1.932  11.977  20.311  0.00  0.00    +0.000 C 
ENDROOT
BRANCH   2   9
ATOM      9  C   UNL     1      -3.871  13.609  21.808  0.00  0.00    +0.000 A 
ATOM     10  C   UNL     1      -3.521  13.068  23.056  0.00  0.00    +0.000 A 
ATOM     11  C   UNL     1      -4.505  12.741  23.988  0.00  0.00    +0.000 A 
ATOM     12  C   UNL     1      -5.846  12.838  23.638  0.00  0.00    +0.000 A 
ATOM     13  C   UNL     1      -6.200  13.239  22.346  0.00  0.00    +0.000 A 
ATOM     14  C   UNL     1      -5.217  13.638  21.429  0.00  0.00    +0.000 A 
ATOM     15 CL   UNL     1      -5.750  14.204  19.889  0.00  0.00    +0.000 Cl
ENDBRANCH   2   9
BRANCH   8  16
ATOM     16  C   UNL     1      -2.470  11.418  18.980  0.00  0.00    +0.000 A 
ATOM     17  C   UNL     1      -3.480  12.098  18.282  0.00  0.00    +0.000 A 
ATOM     18  C   UNL     1      -4.095  11.526  17.163  0.00  0.00    +0.000 A 
ATOM     19  C   UNL     1      -3.658  10.301  16.668  0.00  0.00    +0.000 A 
ATOM     20  C   UNL     1      -2.586   9.658  17.276  0.00  0.00    +0.000 A 
ATOM     21  C   UNL     1      -2.000  10.212  18.417  0.00  0.00    +0.000 A 
ENDBRANCH   8  16
BRANCH   6  22
ATOM     22  C   UNL     1       0.655  11.084  18.732  0.00  0.00    +0.000 C 
BRANCH  22  23
ATOM     23  C   UNL     1       1.261   9.712  18.862  0.00  0.00    +0.000 A 
ATOM     24  C   UNL     1       1.976   9.127  17.805  0.00  0.00    +0.000 A 
ATOM     25  C   UNL     1       2.574   7.884  17.973  0.00  0.00    +0.000 A 
ATOM     26  C   UNL     1       2.472   7.214  19.193  0.00  0.00    +0.000 A 
ATOM     27  C   UNL     1       1.778   7.791  20.255  0.00  0.00    +0.000 A 
ATOM     28  C   UNL     1       1.182   9.038  20.092  0.00  0.00    +0.000 A 
ENDBRANCH  22  23
ENDBRANCH   6  22
TORSDOF 4
ENDMDL
