MODEL 1
REMARK VINA RESULT:      -7.7      0.000      0.000
REMARK  Name = 
REMARK  5 active torsions:
REMARK  status: ('A' for Active; 'I' for Inactive)
REMARK    1  A    between atoms: C_1  and  C_2
REMARK    2  A    between atoms: N_7  and  C_8
REMARK    3  A    between atoms: C_8  and  C_9
REMARK    4  A    between atoms: C_17  and  O_18
REMARK    5  A    between atoms: C_19  and  O_20
REMARK                            x       y       z     vdW  Elec       q    Type
REMARK                         _______ _______ _______ _____ _____    ______ ____
ROOT
ATOM      1  C   UNL     1       1.417   2.858  21.560  0.00  0.00    +0.000 C 
ATOM      2  C   UNL     1       2.116   3.513  20.377  0.00  0.00    +0.000 C 
ATOM      3  C   UNL     1       1.596   2.979  19.033  0.00  0.00    +0.000 C 
ATOM      4  C   UNL     1       2.410   3.549  17.879  0.00  0.00    +0.000 C 
ATOM      5  N   UNL     1       3.517   2.697  17.428  0.00  0.00    +0.000 NA
ATOM      6  C   UNL     1       4.331   3.617  16.981  0.00  0.00    +0.000 C 
ATOM      7  N   UNL     1       5.610   3.354  16.632  0.00  0.00    +0.000 N 
ATOM      8  O   UNL     1       3.964   4.944  17.096  0.00  0.00    +0.000 OA
ATOM      9  C   UNL     1       3.216   4.777  18.266  0.00  0.00    +0.000 C 
ATOM     10  C   UNL     1       2.291   5.735  18.980  0.00  0.00    +0.000 C 
ATOM     11  C   UNL     1       2.134   5.081  20.406  0.00  0.00    +0.000 C 
ATOM     12  H   UNL     1       6.089   2.853  17.367  0.00  0.00    +0.000 HD
ENDROOT
BRANCH  10  13
ATOM     13  O   UNL     1       2.836   7.044  19.119  0.00  0.00    +0.000 OA
ATOM     14  H   UNL     1       2.069   7.651  19.131  0.00  0.00    +0.000 HD
ENDBRANCH  10  13
BRANCH  11  15
ATOM     15  O   UNL     1       1.032   5.670  21.084  0.00  0.00    +0.000 OA
ATOM     16  H   UNL     1       1.131   6.643  21.043  0.00  0.00    +0.000 HD
ENDBRANCH  11  15
BRANCH   7  17
ATOM     17  C   UNL     1       6.481   4.179  15.852  0.00  0.00    +0.000 C 
BRANCH  17  18
ATOM     18  C   UNL     1       7.053   5.220  16.797  0.00  0.00    +0.000 A 
ATOM     19  C   UNL     1       7.574   4.819  18.043  0.00  0.00    +0.000 A 
ATOM     20  C   UNL     1       8.074   5.755  18.946  0.00  0.00    +0.000 A 
ATOM     21  C   UNL     1       8.071   7.106  18.613  0.00  0.00    +0.000 A 
ATOM     22  C   UNL     1       7.557   7.520  17.384  0.00  0.00    +0.000 A 
ATOM     23  C   UNL     1       7.046   6.584  16.480  0.00  0.00    +0.000 A 
ENDBRANCH  17  18
ENDBRANCH   7  17
TORSDOF 4
ENDMDL
MODEL 2
REMARK VINA RESULT:      -7.7      3.926      5.682
REMARK  Name = 
REMARK  5 active torsions:
REMARK  status: ('A' for Active; 'I' for Inactive)
REMARK    1  A    between atoms: C_1  and  C_2
REMARK    2  A    between atoms: N_7  and  C_8
REMARK    3  A    between atoms: C_8  and  C_9
REMARK    4  A    between atoms: C_17  and  O_18
REMARK    5  A    between atoms: C_19  and  O_20
REMARK                            x       y       z     vdW  Elec       q    Type
REMARK                         _______ _______ _______ _____ _____    ______ ____
ROOT
ATOM      1  C   UNL     1       4.435   4.051  19.443  0.00  0.00    +0.000 C 
ATOM      2  C   UNL     1       5.225   5.090  18.658  0.00  0.00    +0.000 C 
ATOM      3  C   UNL     1       6.719   4.738  18.579  0.00  0.00    +0.000 C 
ATOM      4  C   UNL     1       7.499   5.864  17.911  0.00  0.00    +0.000 C 
ATOM      5  N   UNL     1       8.100   6.829  18.839  0.00  0.00    +0.000 NA
ATOM      6  C   UNL     1       8.099   7.892  18.078  0.00  0.00    +0.000 C 
ATOM      7  N   UNL     1       8.377   9.128  18.548  0.00  0.00    +0.000 N 
ATOM      8  O   UNL     1       7.560   7.802  16.809  0.00  0.00    +0.000 OA
ATOM      9  C   UNL     1       6.615   6.823  17.132  0.00  0.00    +0.000 C 
ATOM     10  C   UNL     1       5.711   6.004  16.240  0.00  0.00    +0.000 C 
ATOM     11  C   UNL     1       4.637   5.437  17.246  0.00  0.00    +0.000 C 
ATOM     12  H   UNL     1       7.822   9.336  19.366  0.00  0.00    +0.000 HD
ENDROOT
BRANCH  10  13
ATOM     13  O   UNL     1       5.057   6.778  15.239  0.00  0.00    +0.000 OA
ATOM     14  H   UNL     1       5.100   6.245  14.421  0.00  0.00    +0.000 HD
ENDBRANCH  10  13
BRANCH  11  15
ATOM     15  O   UNL     1       3.919   4.376  16.631  0.00  0.00    +0.000 OA
ATOM     16  H   UNL     1       4.263   4.259  15.722  0.00  0.00    +0.000 HD
ENDBRANCH  11  15
BRANCH   7  17
ATOM     17  C   UNL     1       8.713  10.290  17.782  0.00  0.00    +0.000 C 
BRANCH  17  18
ATOM     18  C   UNL     1       9.828  10.995  18.534  0.00  0.00    +0.000 A 
ATOM     19  C   UNL     1       9.735  11.155  19.930  0.00  0.00    +0.000 A 
ATOM     20  C   UNL     1      10.726  11.828  20.642  0.00  0.00    +0.000 A 
ATOM     21  C   UNL     1      11.830  12.343  19.971  0.00  0.00    +0.000 A 
ATOM     22  C   UNL     1      11.936  12.195  18.588  0.00  0.00    +0.000 A 
ATOM     23  C   UNL     1      10.939  11.528  17.869  0.00  0.00    +0.000 A 
ENDBRANCH  17  18
ENDBRANCH   7  17
TORSDOF 4
ENDMDL
MODEL 3
REMARK VINA RESULT:      -7.7      0.210      1.100
REMARK  Name = 
REMARK  5 active torsions:
REMARK  status: ('A' for Active; 'I' for Inactive)
REMARK    1  A    between atoms: C_1  and  C_2
REMARK    2  A    between atoms: N_7  and  C_8
REMARK    3  A    between atoms: C_8  and  C_9
REMARK    4  A    between atoms: C_17  and  O_18
REMARK    5  A    between atoms: C_19  and  O_20
REMARK                            x       y       z     vdW  Elec       q    Type
REMARK                         _______ _______ _______ _____ _____    ______ ____
ROOT
ATOM      1  C   UNL     1       1.158   2.884  21.226  0.00  0.00    +0.000 C 
ATOM      2  C   UNL     1       1.951   3.569  20.120  0.00  0.00    +0.000 C 
ATOM      3  C   UNL     1       1.466   3.153  18.722  0.00  0.00    +0.000 C 
ATOM      4  C   UNL     1       2.368   3.745  17.646  0.00  0.00    +0.000 C 
ATOM      5  N   UNL     1       3.444   2.856  17.190  0.00  0.00    +0.000 NA
ATOM      6  C   UNL     1       4.332   3.751  16.842  0.00  0.00    +0.000 C 
ATOM      7  N   UNL     1       5.608   3.433  16.534  0.00  0.00    +0.000 N 
ATOM      8  O   UNL     1       4.038   5.088  17.027  0.00  0.00    +0.000 OA
ATOM      9  C   UNL     1       3.224   4.893  18.149  0.00  0.00    +0.000 C 
ATOM     10  C   UNL     1       2.324   5.860  18.883  0.00  0.00    +0.000 C 
ATOM     11  C   UNL     1       2.060   5.127  20.254  0.00  0.00    +0.000 C 
ATOM     12  H   UNL     1       6.020   2.857  17.255  0.00  0.00    +0.000 HD
ENDROOT
BRANCH  10  13
ATOM     13  O   UNL     1       2.936   7.121  19.132  0.00  0.00    +0.000 OA
ATOM     14  H   UNL     1       2.385   7.781  18.668  0.00  0.00    +0.000 HD
ENDBRANCH  10  13
BRANCH  11  15
ATOM     15  O   UNL     1       0.962   5.739  20.919  0.00  0.00    +0.000 OA
ATOM     16  H   UNL     1       0.269   5.061  21.056  0.00  0.00    +0.000 HD
ENDBRANCH  11  15
BRANCH   7  17
ATOM     17  C   UNL     1       6.563   4.250  15.849  0.00  0.00    +0.000 C 
BRANCH  17  18
ATOM     18  C   UNL     1       7.091   5.243  16.868  0.00  0.00    +0.000 A 
ATOM     19  C   UNL     1       7.130   6.615  16.550  0.00  0.00    +0.000 A 
ATOM     20  C   UNL     1       7.641   7.546  17.451  0.00  0.00    +0.000 A 
ATOM     21  C   UNL     1       8.112   7.122  18.690  0.00  0.00    +0.000 A 
ATOM     22  C   UNL     1       8.082   5.767  19.020  0.00  0.00    +0.000 A 
ATOM     23  C   UNL     1       7.578   4.830  18.114  0.00  0.00    +0.000 A 
ENDBRANCH  17  18
ENDBRANCH   7  17
TORSDOF 4
ENDMDL
MODEL 4
REMARK VINA RESULT:      -7.6      3.902      5.725
REMARK  Name = 
REMARK  5 active torsions:
REMARK  status: ('A' for Active; 'I' for Inactive)
REMARK    1  A    between atoms: C_1  and  C_2
REMARK    2  A    between atoms: N_7  and  C_8
REMARK    3  A    between atoms: C_8  and  C_9
REMARK    4  A    between atoms: C_17  and  O_18
REMARK    5  A    between atoms: C_19  and  O_20
REMARK                            x       y       z     vdW  Elec       q    Type
REMARK                         _______ _______ _______ _____ _____    ______ ____
ROOT
ATOM      1  C   UNL     1       4.416   3.981  19.376  0.00  0.00    +0.000 C 
ATOM      2  C   UNL     1       5.220   5.023  18.610  0.00  0.00    +0.000 C 
ATOM      3  C   UNL     1       6.709   4.653  18.523  0.00  0.00    +0.000 C 
ATOM      4  C   UNL     1       7.503   5.780  17.876  0.00  0.00    +0.000 C 
ATOM      5  N   UNL     1       8.118   6.719  18.822  0.00  0.00    +0.000 NA
ATOM      6  C   UNL     1       8.131   7.797  18.081  0.00  0.00    +0.000 C 
ATOM      7  N   UNL     1       8.426   9.019  18.573  0.00  0.00    +0.000 N 
ATOM      8  O   UNL     1       7.591   7.738  16.810  0.00  0.00    +0.000 OA
ATOM      9  C   UNL     1       6.632   6.765  17.116  0.00  0.00    +0.000 C 
ATOM     10  C   UNL     1       5.718   5.975  16.209  0.00  0.00    +0.000 C 
ATOM     11  C   UNL     1       4.636   5.405  17.205  0.00  0.00    +0.000 C 
ATOM     12  H   UNL     1       7.874   9.220  19.395  0.00  0.00    +0.000 HD
ENDROOT
BRANCH  10  13
ATOM     13  O   UNL     1       5.074   6.776  15.224  0.00  0.00    +0.000 OA
ATOM     14  H   UNL     1       4.121   6.750  15.440  0.00  0.00    +0.000 HD
ENDBRANCH  10  13
BRANCH  11  15
ATOM     15  O   UNL     1       3.903   4.365  16.571  0.00  0.00    +0.000 OA
ATOM     16  H   UNL     1       3.473   3.825  17.265  0.00  0.00    +0.000 HD
ENDBRANCH  11  15
BRANCH   7  17
ATOM     17  C   UNL     1       8.778  10.191  17.829  0.00  0.00    +0.000 C 
BRANCH  17  18
ATOM     18  C   UNL     1       9.729  10.988  18.703  0.00  0.00    +0.000 A 
ATOM     19  C   UNL     1      10.874  11.577  18.130  0.00  0.00    +0.000 A 
ATOM     20  C   UNL     1      11.783  12.286  18.912  0.00  0.00    +0.000 A 
ATOM     21  C   UNL     1      11.557  12.426  20.278  0.00  0.00    +0.000 A 
ATOM     22  C   UNL     1      10.430  11.848  20.861  0.00  0.00    +0.000 A 
ATOM     23  C   UNL     1       9.520  11.128  20.080  0.00  0.00    +0.000 A 
ENDBRANCH  17  18
ENDBRANCH   7  17
TORSDOF 4
ENDMDL
MODEL 5
REMARK VINA RESULT:      -7.5      3.422      6.403
REMARK  Name = 
REMARK  5 active torsions:
REMARK  status: ('A' for Active; 'I' for Inactive)
REMARK    1  A    between atoms: C_1  and  C_2
REMARK    2  A    between atoms: N_7  and  C_8
REMARK    3  A    between atoms: C_8  and  C_9
REMARK    4  A    between atoms: C_17  and  O_18
REMARK    5  A    between atoms: C_19  and  O_20
REMARK                            x       y       z     vdW  Elec       q    Type
REMARK                         _______ _______ _______ _____ _____    ______ ____
ROOT
ATOM      1  C   UNL     1       6.703   4.615  14.959  0.00  0.00    +0.000 C 
ATOM      2  C   UNL     1       6.050   4.918  16.301  0.00  0.00    +0.000 C 
ATOM      3  C   UNL     1       4.866   3.981  16.589  0.00  0.00    +0.000 C 
ATOM      4  C   UNL     1       4.151   4.400  17.867  0.00  0.00    +0.000 C 
ATOM      5  N   UNL     1       2.994   5.280  17.662  0.00  0.00    +0.000 NA
ATOM      6  C   UNL     1       3.017   5.936  18.794  0.00  0.00    +0.000 C 
ATOM      7  N   UNL     1       2.254   7.027  19.021  0.00  0.00    +0.000 N 
ATOM      8  O   UNL     1       4.022   5.663  19.701  0.00  0.00    +0.000 OA
ATOM      9  C   UNL     1       4.982   5.323  18.741  0.00  0.00    +0.000 C 
ATOM     10  C   UNL     1       6.350   4.703  18.905  0.00  0.00    +0.000 C 
ATOM     11  C   UNL     1       7.038   4.991  17.515  0.00  0.00    +0.000 C 
ATOM     12  H   UNL     1       2.357   7.701  18.275  0.00  0.00    +0.000 HD
ENDROOT
BRANCH  10  13
ATOM     13  O   UNL     1       7.118   5.301  19.944  0.00  0.00    +0.000 OA
ATOM     14  H   UNL     1       6.663   5.071  20.778  0.00  0.00    +0.000 HD
ENDBRANCH  10  13
BRANCH  11  15
ATOM     15  O   UNL     1       8.198   4.180  17.379  0.00  0.00    +0.000 OA
ATOM     16  H   UNL     1       7.912   3.268  17.170  0.00  0.00    +0.000 HD
ENDBRANCH  11  15
BRANCH   7  17
ATOM     17  C   UNL     1       1.957   7.628  20.286  0.00  0.00    +0.000 C 
BRANCH  17  18
ATOM     18  C   UNL     1       1.145   8.876  19.993  0.00  0.00    +0.000 A 
ATOM     19  C   UNL     1       0.374   9.463  21.015  0.00  0.00    +0.000 A 
ATOM     20  C   UNL     1      -0.408  10.589  20.767  0.00  0.00    +0.000 A 
ATOM     21  C   UNL     1      -0.423  11.153  19.495  0.00  0.00    +0.000 A 
ATOM     22  C   UNL     1       0.334  10.583  18.471  0.00  0.00    +0.000 A 
ATOM     23  C   UNL     1       1.113   9.448  18.715  0.00  0.00    +0.000 A 
ENDBRANCH  17  18
ENDBRANCH   7  17
TORSDOF 4
ENDMDL
MODEL 6
REMARK VINA RESULT:      -7.4      2.584      3.846
REMARK  Name = 
REMARK  5 active torsions:
REMARK  status: ('A' for Active; 'I' for Inactive)
REMARK    1  A    between atoms: C_1  and  C_2
REMARK    2  A    between atoms: N_7  and  C_8
REMARK    3  A    between atoms: C_8  and  C_9
REMARK    4  A    between atoms: C_17  and  O_18
REMARK    5  A    between atoms: C_19  and  O_20
REMARK                            x       y       z     vdW  Elec       q    Type
REMARK                         _______ _______ _______ _____ _____    ______ ____
ROOT
ATOM      1  C   UNL     1       0.496   3.557  19.774  0.00  0.00    +0.000 C 
ATOM      2  C   UNL     1       1.975   3.702  19.442  0.00  0.00    +0.000 C 
ATOM      3  C   UNL     1       2.527   5.074  19.864  0.00  0.00    +0.000 C 
ATOM      4  C   UNL     1       3.967   5.238  19.393  0.00  0.00    +0.000 C 
ATOM      5  N   UNL     1       4.115   5.928  18.106  0.00  0.00    +0.000 NA
ATOM      6  C   UNL     1       5.228   5.378  17.692  0.00  0.00    +0.000 C 
ATOM      7  N   UNL     1       5.697   5.535  16.435  0.00  0.00    +0.000 N 
ATOM      8  O   UNL     1       5.822   4.407  18.475  0.00  0.00    +0.000 OA
ATOM      9  C   UNL     1       4.627   3.923  19.020  0.00  0.00    +0.000 C 
ATOM     10  C   UNL     1       4.393   2.947  20.150  0.00  0.00    +0.000 C 
ATOM     11  C   UNL     1       2.885   2.532  19.953  0.00  0.00    +0.000 C 
ATOM     12  H   UNL     1       4.981   5.327  15.754  0.00  0.00    +0.000 HD
ENDROOT
BRANCH  10  13
ATOM     13  O   UNL     1       5.215   1.787  20.070  0.00  0.00    +0.000 OA
ATOM     14  H   UNL     1       6.117   2.113  19.877  0.00  0.00    +0.000 HD
ENDBRANCH  10  13
BRANCH  11  15
ATOM     15  O   UNL     1       2.409   1.886  21.127  0.00  0.00    +0.000 OA
ATOM     16  H   UNL     1       1.565   2.307  21.388  0.00  0.00    +0.000 HD
ENDBRANCH  11  15
BRANCH   7  17
ATOM     17  C   UNL     1       7.021   5.259  15.965  0.00  0.00    +0.000 C 
BRANCH  17  18
ATOM     18  C   UNL     1       6.882   4.806  14.523  0.00  0.00    +0.000 A 
ATOM     19  C   UNL     1       5.888   3.869  14.180  0.00  0.00    +0.000 A 
ATOM     20  C   UNL     1       5.758   3.408  12.871  0.00  0.00    +0.000 A 
ATOM     21  C   UNL     1       6.613   3.885  11.883  0.00  0.00    +0.000 A 
ATOM     22  C   UNL     1       7.604   4.811  12.207  0.00  0.00    +0.000 A 
ATOM     23  C   UNL     1       7.743   5.269  13.521  0.00  0.00    +0.000 A 
ENDBRANCH  17  18
ENDBRANCH   7  17
TORSDOF 4
ENDMDL
MODEL 7
REMARK VINA RESULT:      -7.3      3.464      6.498
REMARK  Name = 
REMARK  5 active torsions:
REMARK  status: ('A' for Active; 'I' for Inactive)
REMARK    1  A    between atoms: C_1  and  C_2
REMARK    2  A    between atoms: N_7  and  C_8
REMARK    3  A    between atoms: C_8  and  C_9
REMARK    4  A    between atoms: C_17  and  O_18
REMARK    5  A    between atoms: C_19  and  O_20
REMARK                            x       y       z     vdW  Elec       q    Type
REMARK                         _______ _______ _______ _____ _____    ______ ____
ROOT
ATOM      1  C   UNL     1       6.158   4.759  14.814  0.00  0.00    +0.000 C 
ATOM      2  C   UNL     1       5.627   5.029  16.216  0.00  0.00    +0.000 C 
ATOM      3  C   UNL     1       4.488   4.070  16.594  0.00  0.00    +0.000 C 
ATOM      4  C   UNL     1       3.889   4.456  17.941  0.00  0.00    +0.000 C 
ATOM      5  N   UNL     1       2.706   5.322  17.860  0.00  0.00    +0.000 NA
ATOM      6  C   UNL     1       2.825   5.958  18.997  0.00  0.00    +0.000 C 
ATOM      7  N   UNL     1       2.073   7.034  19.314  0.00  0.00    +0.000 N 
ATOM      8  O   UNL     1       3.914   5.685  19.802  0.00  0.00    +0.000 OA
ATOM      9  C   UNL     1       4.785   5.375  18.752  0.00  0.00    +0.000 C 
ATOM     10  C   UNL     1       6.170   4.773  18.776  0.00  0.00    +0.000 C 
ATOM     11  C   UNL     1       6.723   5.095  17.335  0.00  0.00    +0.000 C 
ATOM     12  H   UNL     1       2.098   7.722  18.575  0.00  0.00    +0.000 HD
ENDROOT
BRANCH  10  13
ATOM     13  O   UNL     1       7.024   5.364  19.751  0.00  0.00    +0.000 OA
ATOM     14  H   UNL     1       6.813   4.918  20.595  0.00  0.00    +0.000 HD
ENDBRANCH  10  13
BRANCH  11  15
ATOM     15  O   UNL     1       7.876   4.304  17.077  0.00  0.00    +0.000 OA
ATOM     16  H   UNL     1       8.277   4.056  17.935  0.00  0.00    +0.000 HD
ENDBRANCH  11  15
BRANCH   7  17
ATOM     17  C   UNL     1       1.886   7.608  20.612  0.00  0.00    +0.000 C 
BRANCH  17  18
ATOM     18  C   UNL     1       1.043   8.854  20.417  0.00  0.00    +0.000 A 
ATOM     19  C   UNL     1       1.033   9.501  19.166  0.00  0.00    +0.000 A 
ATOM     20  C   UNL     1       0.295  10.666  18.967  0.00  0.00    +0.000 A 
ATOM     21  C   UNL     1      -0.453  11.197  20.013  0.00  0.00    +0.000 A 
ATOM     22  C   UNL     1      -0.452  10.570  21.258  0.00  0.00    +0.000 A 
ATOM     23  C   UNL     1       0.294   9.406  21.464  0.00  0.00    +0.000 A 
ENDBRANCH  17  18
ENDBRANCH   7  17
TORSDOF 4
ENDMDL
MODEL 8
REMARK VINA RESULT:      -7.3      2.668      5.991
REMARK  Name = 
REMARK  5 active torsions:
REMARK  status: ('A' for Active; 'I' for Inactive)
REMARK    1  A    between atoms: C_1  and  C_2
REMARK    2  A    between atoms: N_7  and  C_8
REMARK    3  A    between atoms: C_8  and  C_9
REMARK    4  A    between atoms: C_17  and  O_18
REMARK    5  A    between atoms: C_19  and  O_20
REMARK                            x       y       z     vdW  Elec       q    Type
REMARK                         _______ _______ _______ _____ _____    ______ ____
ROOT
ATOM      1  C   UNL     1       5.702   3.941  13.190  0.00  0.00    +0.000 C 
ATOM      2  C   UNL     1       5.607   4.450  14.622  0.00  0.00    +0.000 C 
ATOM      3  C   UNL     1       5.603   3.302  15.643  0.00  0.00    +0.000 C 
ATOM      4  C   UNL     1       5.366   3.837  17.049  0.00  0.00    +0.000 C 
ATOM      5  N   UNL     1       3.966   3.809  17.488  0.00  0.00    +0.000 NA
ATOM      6  C   UNL     1       3.977   4.820  18.317  0.00  0.00    +0.000 C 
ATOM      7  N   UNL     1       2.851   5.344  18.848  0.00  0.00    +0.000 N 
ATOM      8  O   UNL     1       5.146   5.541  18.473  0.00  0.00    +0.000 OA
ATOM      9  C   UNL     1       5.608   5.332  17.168  0.00  0.00    +0.000 C 
ATOM     10  C   UNL     1       6.950   5.638  16.546  0.00  0.00    +0.000 C 
ATOM     11  C   UNL     1       6.652   5.557  15.000  0.00  0.00    +0.000 C 
ATOM     12  H   UNL     1       2.173   5.547  18.127  0.00  0.00    +0.000 HD
ENDROOT
BRANCH  10  13
ATOM     13  O   UNL     1       7.435   6.938  16.865  0.00  0.00    +0.000 OA
ATOM     14  H   UNL     1       8.249   7.056  16.336  0.00  0.00    +0.000 HD
ENDBRANCH  10  13
BRANCH  11  15
ATOM     15  O   UNL     1       7.875   5.481  14.280  0.00  0.00    +0.000 OA
ATOM     16  H   UNL     1       7.679   5.599  13.328  0.00  0.00    +0.000 HD
ENDBRANCH  11  15
BRANCH   7  17
ATOM     17  C   UNL     1       2.750   6.215  19.979  0.00  0.00    +0.000 C 
BRANCH  17  18
ATOM     18  C   UNL     1       2.161   7.518  19.470  0.00  0.00    +0.000 A 
ATOM     19  C   UNL     1       1.423   8.339  20.345  0.00  0.00    +0.000 A 
ATOM     20  C   UNL     1       0.841   9.524  19.898  0.00  0.00    +0.000 A 
ATOM     21  C   UNL     1       0.998   9.912  18.571  0.00  0.00    +0.000 A 
ATOM     22  C   UNL     1       1.725   9.109  17.691  0.00  0.00    +0.000 A 
ATOM     23  C   UNL     1       2.302   7.916  18.135  0.00  0.00    +0.000 A 
ENDBRANCH  17  18
ENDBRANCH   7  17
TORSDOF 4
ENDMDL
MODEL 9
REMARK VINA RESULT:      -7.3      2.566      3.903
REMARK  Name = 
REMARK  5 active torsions:
REMARK  status: ('A' for Active; 'I' for Inactive)
REMARK    1  A    between atoms: C_1  and  C_2
REMARK    2  A    between atoms: N_7  and  C_8
REMARK    3  A    between atoms: C_8  and  C_9
REMARK    4  A    between atoms: C_17  and  O_18
REMARK    5  A    between atoms: C_19  and  O_20
REMARK                            x       y       z     vdW  Elec       q    Type
REMARK                         _______ _______ _______ _____ _____    ______ ____
ROOT
ATOM      1  C   UNL     1       0.418   3.369  19.633  0.00  0.00    +0.000 C 
ATOM      2  C   UNL     1       1.887   3.610  19.316  0.00  0.00    +0.000 C 
ATOM      3  C   UNL     1       2.329   5.036  19.684  0.00  0.00    +0.000 C 
ATOM      4  C   UNL     1       3.760   5.287  19.227  0.00  0.00    +0.000 C 
ATOM      5  N   UNL     1       3.881   5.929  17.912  0.00  0.00    +0.000 NA
ATOM      6  C   UNL     1       5.038   5.446  17.540  0.00  0.00    +0.000 C 
ATOM      7  N   UNL     1       5.517   5.582  16.284  0.00  0.00    +0.000 N 
ATOM      8  O   UNL     1       5.688   4.557  18.374  0.00  0.00    +0.000 OA
ATOM      9  C   UNL     1       4.523   4.009  18.923  0.00  0.00    +0.000 C 
ATOM     10  C   UNL     1       4.342   3.069  20.091  0.00  0.00    +0.000 C 
ATOM     11  C   UNL     1       2.872   2.534  19.892  0.00  0.00    +0.000 C 
ATOM     12  H   UNL     1       4.830   5.291  15.602  0.00  0.00    +0.000 HD
ENDROOT
BRANCH  10  13
ATOM     13  O   UNL     1       5.249   1.971  20.076  0.00  0.00    +0.000 OA
ATOM     14  H   UNL     1       4.939   1.380  19.361  0.00  0.00    +0.000 HD
ENDBRANCH  10  13
BRANCH  11  15
ATOM     15  O   UNL     1       2.425   1.907  21.087  0.00  0.00    +0.000 OA
ATOM     16  H   UNL     1       1.704   2.449  21.466  0.00  0.00    +0.000 HD
ENDBRANCH  11  15
BRANCH   7  17
ATOM     17  C   UNL     1       6.865   5.385  15.845  0.00  0.00    +0.000 C 
BRANCH  17  18
ATOM     18  C   UNL     1       6.784   4.787  14.453  0.00  0.00    +0.000 A 
ATOM     19  C   UNL     1       7.725   5.165  13.476  0.00  0.00    +0.000 A 
ATOM     20  C   UNL     1       7.656   4.659  12.179  0.00  0.00    +0.000 A 
ATOM     21  C   UNL     1       6.651   3.759  11.843  0.00  0.00    +0.000 A 
ATOM     22  C   UNL     1       5.710   3.375  12.799  0.00  0.00    +0.000 A 
ATOM     23  C   UNL     1       5.772   3.888  14.097  0.00  0.00    +0.000 A 
ENDBRANCH  17  18
ENDBRANCH   7  17
TORSDOF 4
ENDMDL
