MODEL 1
REMARK VINA RESULT:      -7.9      0.000      0.000
REMARK  Name = 
REMARK  5 active torsions:
REMARK  status: ('A' for Active; 'I' for Inactive)
REMARK    1  A    between atoms: C_2  and  C_3
REMARK    2  A    between atoms: N_5  and  C_6
REMARK    3  A    between atoms: N_11  and  C_12
REMARK    4  A    between atoms: C_12  and  C_13
REMARK    5  A    between atoms: C_16  and  C_17
REMARK                            x       y       z     vdW  Elec       q    Type
REMARK                         _______ _______ _______ _____ _____    ______ ____
ROOT
ATOM      1  C   UNL     1       5.636   4.230  15.769  0.00  0.00    +0.000 A 
ATOM      2  C   UNL     1       4.492   4.024  16.419  0.00  0.00    +0.000 A 
ATOM      3  N   UNL     1       4.336   4.366  17.742  0.00  0.00    +0.000 N 
ATOM      4  C   UNL     1       5.315   5.066  18.464  0.00  0.00    +0.000 A 
ATOM      5  O   UNL     1       5.157   5.400  19.637  0.00  0.00    +0.000 OA
ATOM      6  N   UNL     1       6.507   5.308  17.773  0.00  0.00    +0.000 N 
ATOM      7  C   UNL     1       6.777   4.826  16.499  0.00  0.00    +0.000 A 
ATOM      8  O   UNL     1       7.893   4.831  15.987  0.00  0.00    +0.000 OA
ENDROOT
BRANCH   3   9
ATOM      9  C   UNL     1       3.091   3.976  18.369  0.00  0.00    +0.000 C 
ATOM     10  C   UNL     1       1.979   4.990  18.546  0.00  0.00    +0.000 C 
ATOM     11  C   UNL     1       1.793   3.836  17.607  0.00  0.00    +0.000 C 
ENDBRANCH   3   9
BRANCH   1  13
ATOM     12  N   UNL     1       5.940   3.475  13.109  0.00  0.00    +0.000 NA
ATOM     13  C   UNL     1       5.802   3.817  14.315  0.00  0.00    +0.000 C 
ENDBRANCH   1  13
BRANCH   6  14
ATOM     14  C   UNL     1       7.620   5.866  18.538  0.00  0.00    +0.000 C 
BRANCH  14  15
ATOM     15  C   UNL     1       7.938   7.287  18.185  0.00  0.00    +0.000 A 
ATOM     16  N   UNL     1       7.195   7.996  17.324  0.00  0.00    +0.000 NA
ATOM     17  O   UNL     1       7.628   9.307  17.526  0.00  0.00    +0.000 OA
ATOM     18  C   UNL     1       8.603   9.268  18.490  0.00  0.00    +0.000 A 
ATOM     19  N   UNL     1       8.855   8.036  18.890  0.00  0.00    +0.000 NA
BRANCH  18  20
ATOM     20  C   UNL     1       9.252  10.487  19.062  0.00  0.00    +0.000 A 
ATOM     21  C   UNL     1       9.357  10.791  20.451  0.00  0.00    +0.000 A 
ATOM     22  C   UNL     1       9.986  11.998  20.674  0.00  0.00    +0.000 A 
ATOM     23  S   UNL     1      10.431  12.769  19.212  0.00  0.00    +0.000 S 
ATOM     24  C   UNL     1       9.800  11.479  18.276  0.00  0.00    +0.000 A 
ENDBRANCH  18  20
ENDBRANCH  14  15
ENDBRANCH   6  14
TORSDOF 5
ENDMDL
MODEL 2
REMARK VINA RESULT:      -7.6      4.699      6.760
REMARK  Name = 
REMARK  5 active torsions:
REMARK  status: ('A' for Active; 'I' for Inactive)
REMARK    1  A    between atoms: C_2  and  C_3
REMARK    2  A    between atoms: N_5  and  C_6
REMARK    3  A    between atoms: N_11  and  C_12
REMARK    4  A    between atoms: C_12  and  C_13
REMARK    5  A    between atoms: C_16  and  C_17
REMARK                            x       y       z     vdW  Elec       q    Type
REMARK                         _______ _______ _______ _____ _____    ______ ____
ROOT
ATOM      1  C   UNL     1       3.178   6.604  18.297  0.00  0.00    +0.000 A 
ATOM      2  C   UNL     1       2.578   5.650  19.009  0.00  0.00    +0.000 A 
ATOM      3  N   UNL     1       3.195   4.453  19.287  0.00  0.00    +0.000 N 
ATOM      4  C   UNL     1       4.534   4.197  18.955  0.00  0.00    +0.000 A 
ATOM      5  O   UNL     1       5.093   3.137  19.236  0.00  0.00    +0.000 OA
ATOM      6  N   UNL     1       5.174   5.209  18.232  0.00  0.00    +0.000 N 
ATOM      7  C   UNL     1       4.540   6.356  17.775  0.00  0.00    +0.000 A 
ATOM      8  O   UNL     1       5.025   7.124  16.948  0.00  0.00    +0.000 OA
ENDROOT
BRANCH   3   9
ATOM      9  C   UNL     1       2.394   3.453  19.959  0.00  0.00    +0.000 C 
ATOM     10  C   UNL     1       2.233   3.494  21.464  0.00  0.00    +0.000 C 
ATOM     11  C   UNL     1       1.050   3.754  20.581  0.00  0.00    +0.000 C 
ENDBRANCH   3   9
BRANCH   1  13
ATOM     12  N   UNL     1       1.881   8.991  17.702  0.00  0.00    +0.000 NA
ATOM     13  C   UNL     1       2.469   7.908  17.972  0.00  0.00    +0.000 C 
ENDBRANCH   1  13
BRANCH   6  14
ATOM     14  C   UNL     1       6.505   4.912  17.704  0.00  0.00    +0.000 C 
BRANCH  14  15
ATOM     15  C   UNL     1       6.586   4.981  16.210  0.00  0.00    +0.000 A 
ATOM     16  N   UNL     1       7.579   5.616  15.573  0.00  0.00    +0.000 NA
ATOM     17  O   UNL     1       7.452   5.176  14.255  0.00  0.00    +0.000 OA
ATOM     18  C   UNL     1       6.384   4.317  14.215  0.00  0.00    +0.000 A 
ATOM     19  N   UNL     1       5.795   4.204  15.390  0.00  0.00    +0.000 NA
BRANCH  18  20
ATOM     20  C   UNL     1       5.981   3.551  12.996  0.00  0.00    +0.000 A 
ATOM     21  C   UNL     1       4.719   3.650  12.339  0.00  0.00    +0.000 A 
ATOM     22  C   UNL     1       4.629   2.801  11.255  0.00  0.00    +0.000 A 
ATOM     23  S   UNL     1       6.054   1.877  11.043  0.00  0.00    +0.000 S 
ATOM     24  C   UNL     1       6.804   2.624  12.392  0.00  0.00    +0.000 A 
ENDBRANCH  18  20
ENDBRANCH  14  15
ENDBRANCH   6  14
TORSDOF 5
ENDMDL
MODEL 3
REMARK VINA RESULT:      -7.3      1.049      3.273
REMARK  Name = 
REMARK  5 active torsions:
REMARK  status: ('A' for Active; 'I' for Inactive)
REMARK    1  A    between atoms: C_2  and  C_3
REMARK    2  A    between atoms: N_5  and  C_6
REMARK    3  A    between atoms: N_11  and  C_12
REMARK    4  A    between atoms: C_12  and  C_13
REMARK    5  A    between atoms: C_16  and  C_17
REMARK                            x       y       z     vdW  Elec       q    Type
REMARK                         _______ _______ _______ _____ _____    ______ ____
ROOT
ATOM      1  C   UNL     1       4.090   4.324  17.450  0.00  0.00    +0.000 A 
ATOM      2  C   UNL     1       4.505   3.823  16.287  0.00  0.00    +0.000 A 
ATOM      3  N   UNL     1       5.813   3.924  15.876  0.00  0.00    +0.000 N 
ATOM      4  C   UNL     1       6.826   4.443  16.698  0.00  0.00    +0.000 A 
ATOM      5  O   UNL     1       8.002   4.500  16.340  0.00  0.00    +0.000 OA
ATOM      6  N   UNL     1       6.397   4.944  17.931  0.00  0.00    +0.000 N 
ATOM      7  C   UNL     1       5.065   5.027  18.314  0.00  0.00    +0.000 A 
ATOM      8  O   UNL     1       4.668   5.673  19.279  0.00  0.00    +0.000 OA
ENDROOT
BRANCH   3   9
ATOM      9  C   UNL     1       6.111   3.454  14.541  0.00  0.00    +0.000 C 
ATOM     10  C   UNL     1       5.264   3.906  13.369  0.00  0.00    +0.000 C 
ATOM     11  C   UNL     1       6.696   4.340  13.465  0.00  0.00    +0.000 C 
ENDBRANCH   3   9
BRANCH   1  13
ATOM     12  N   UNL     1       1.425   4.155  18.225  0.00  0.00    +0.000 NA
ATOM     13  C   UNL     1       2.633   4.231  17.873  0.00  0.00    +0.000 C 
ENDBRANCH   1  13
BRANCH   6  14
ATOM     14  C   UNL     1       7.381   5.661  18.740  0.00  0.00    +0.000 C 
BRANCH  14  15
ATOM     15  C   UNL     1       7.736   7.010  18.194  0.00  0.00    +0.000 A 
ATOM     16  N   UNL     1       7.085   7.561  17.161  0.00  0.00    +0.000 NA
ATOM     17  O   UNL     1       7.500   8.893  17.189  0.00  0.00    +0.000 OA
ATOM     18  C   UNL     1       8.375   9.022  18.237  0.00  0.00    +0.000 A 
ATOM     19  N   UNL     1       8.582   7.875  18.854  0.00  0.00    +0.000 NA
BRANCH  18  20
ATOM     20  C   UNL     1       8.969  10.326  18.665  0.00  0.00    +0.000 A 
ATOM     21  C   UNL     1       8.870  11.554  17.946  0.00  0.00    +0.000 A 
ATOM     22  C   UNL     1       9.540  12.582  18.576  0.00  0.00    +0.000 A 
ATOM     23  S   UNL     1      10.300  12.062  20.019  0.00  0.00    +0.000 S 
ATOM     24  C   UNL     1       9.718  10.463  19.815  0.00  0.00    +0.000 A 
ENDBRANCH  18  20
ENDBRANCH  14  15
ENDBRANCH   6  14
TORSDOF 5
ENDMDL
MODEL 4
REMARK VINA RESULT:      -6.7      2.454      4.143
REMARK  Name = 
REMARK  5 active torsions:
REMARK  status: ('A' for Active; 'I' for Inactive)
REMARK    1  A    between atoms: C_2  and  C_3
REMARK    2  A    between atoms: N_5  and  C_6
REMARK    3  A    between atoms: N_11  and  C_12
REMARK    4  A    between atoms: C_12  and  C_13
REMARK    5  A    between atoms: C_16  and  C_17
REMARK                            x       y       z     vdW  Elec       q    Type
REMARK                         _______ _______ _______ _____ _____    ______ ____
ROOT
ATOM      1  C   UNL     1       2.429   6.626  19.620  0.00  0.00    +0.000 A 
ATOM      2  C   UNL     1       2.317   5.372  20.056  0.00  0.00    +0.000 A 
ATOM      3  N   UNL     1       2.939   4.323  19.419  0.00  0.00    +0.000 N 
ATOM      4  C   UNL     1       3.832   4.508  18.352  0.00  0.00    +0.000 A 
ATOM      5  O   UNL     1       4.413   3.569  17.809  0.00  0.00    +0.000 OA
ATOM      6  N   UNL     1       3.972   5.828  17.912  0.00  0.00    +0.000 N 
ATOM      7  C   UNL     1       3.231   6.893  18.405  0.00  0.00    +0.000 A 
ATOM      8  O   UNL     1       3.177   7.996  17.869  0.00  0.00    +0.000 OA
ENDROOT
BRANCH   3   9
ATOM      9  C   UNL     1       2.638   2.997  19.913  0.00  0.00    +0.000 C 
ATOM     10  C   UNL     1       3.357   2.459  21.134  0.00  0.00    +0.000 C 
ATOM     11  C   UNL     1       1.887   2.747  21.200  0.00  0.00    +0.000 C 
ENDBRANCH   3   9
BRANCH   1  13
ATOM     12  N   UNL     1       1.112   8.718  20.894  0.00  0.00    +0.000 NA
ATOM     13  C   UNL     1       1.709   7.770  20.317  0.00  0.00    +0.000 C 
ENDBRANCH   1  13
BRANCH   6  14
ATOM     14  C   UNL     1       4.743   6.045  16.689  0.00  0.00    +0.000 C 
BRANCH  14  15
ATOM     15  C   UNL     1       6.113   6.599  16.935  0.00  0.00    +0.000 A 
ATOM     16  N   UNL     1       7.169   6.264  16.181  0.00  0.00    +0.000 NA
ATOM     17  O   UNL     1       8.131   7.213  16.531  0.00  0.00    +0.000 OA
ATOM     18  C   UNL     1       7.567   8.033  17.475  0.00  0.00    +0.000 A 
ATOM     19  N   UNL     1       6.339   7.661  17.784  0.00  0.00    +0.000 NA
BRANCH  18  20
ATOM     20  C   UNL     1       8.244   9.243  18.034  0.00  0.00    +0.000 A 
ATOM     21  C   UNL     1       8.230  10.542  17.446  0.00  0.00    +0.000 A 
ATOM     22  C   UNL     1       8.965  11.452  18.177  0.00  0.00    +0.000 A 
ATOM     23  S   UNL     1       9.683  10.737  19.556  0.00  0.00    +0.000 S 
ATOM     24  C   UNL     1       8.996   9.209  19.190  0.00  0.00    +0.000 A 
ENDBRANCH  18  20
ENDBRANCH  14  15
ENDBRANCH   6  14
TORSDOF 5
ENDMDL
MODEL 5
REMARK VINA RESULT:      -6.6      3.427      6.208
REMARK  Name = 
REMARK  5 active torsions:
REMARK  status: ('A' for Active; 'I' for Inactive)
REMARK    1  A    between atoms: C_2  and  C_3
REMARK    2  A    between atoms: N_5  and  C_6
REMARK    3  A    between atoms: N_11  and  C_12
REMARK    4  A    between atoms: C_12  and  C_13
REMARK    5  A    between atoms: C_16  and  C_17
REMARK                            x       y       z     vdW  Elec       q    Type
REMARK                         _______ _______ _______ _____ _____    ______ ____
ROOT
ATOM      1  C   UNL     1       6.785   6.066  17.442  0.00  0.00    +0.000 A 
ATOM      2  C   UNL     1       6.769   5.488  16.241  0.00  0.00    +0.000 A 
ATOM      3  N   UNL     1       6.032   4.354  15.990  0.00  0.00    +0.000 N 
ATOM      4  C   UNL     1       5.151   3.800  16.932  0.00  0.00    +0.000 A 
ATOM      5  O   UNL     1       4.468   2.806  16.691  0.00  0.00    +0.000 OA
ATOM      6  N   UNL     1       5.146   4.423  18.184  0.00  0.00    +0.000 N 
ATOM      7  C   UNL     1       6.002   5.457  18.540  0.00  0.00    +0.000 A 
ATOM      8  O   UNL     1       6.166   5.844  19.693  0.00  0.00    +0.000 OA
ENDROOT
BRANCH   3   9
ATOM      9  C   UNL     1       6.196   3.751  14.685  0.00  0.00    +0.000 C 
ATOM     10  C   UNL     1       5.312   4.181  13.533  0.00  0.00    +0.000 C 
ATOM     11  C   UNL     1       6.779   4.491  13.503  0.00  0.00    +0.000 C 
ENDBRANCH   3   9
BRANCH   1  13
ATOM     12  N   UNL     1       8.331   8.325  17.934  0.00  0.00    +0.000 NA
ATOM     13  C   UNL     1       7.630   7.301  17.711  0.00  0.00    +0.000 C 
ENDBRANCH   1  13
BRANCH   6  14
ATOM     14  C   UNL     1       4.388   3.772  19.251  0.00  0.00    +0.000 C 
BRANCH  14  15
ATOM     15  C   UNL     1       3.224   4.579  19.737  0.00  0.00    +0.000 A 
ATOM     16  N   UNL     1       2.515   4.236  20.822  0.00  0.00    +0.000 NA
ATOM     17  O   UNL     1       1.767   5.382  21.096  0.00  0.00    +0.000 OA
ATOM     18  C   UNL     1       2.089   6.313  20.142  0.00  0.00    +0.000 A 
ATOM     19  N   UNL     1       2.949   5.842  19.261  0.00  0.00    +0.000 NA
BRANCH  18  20
ATOM     20  C   UNL     1       1.572   7.716  20.146  0.00  0.00    +0.000 A 
ATOM     21  C   UNL     1       1.658   8.630  19.055  0.00  0.00    +0.000 A 
ATOM     22  C   UNL     1       1.116   9.861  19.363  0.00  0.00    +0.000 A 
ATOM     23  S   UNL     1       0.523   9.917  20.968  0.00  0.00    +0.000 S 
ATOM     24  C   UNL     1       0.972   8.287  21.250  0.00  0.00    +0.000 A 
ENDBRANCH  18  20
ENDBRANCH  14  15
ENDBRANCH   6  14
TORSDOF 5
ENDMDL
MODEL 6
REMARK VINA RESULT:      -6.5      2.251      3.347
REMARK  Name = 
REMARK  5 active torsions:
REMARK  status: ('A' for Active; 'I' for Inactive)
REMARK    1  A    between atoms: C_2  and  C_3
REMARK    2  A    between atoms: N_5  and  C_6
REMARK    3  A    between atoms: N_11  and  C_12
REMARK    4  A    between atoms: C_12  and  C_13
REMARK    5  A    between atoms: C_16  and  C_17
REMARK                            x       y       z     vdW  Elec       q    Type
REMARK                         _______ _______ _______ _____ _____    ______ ____
ROOT
ATOM      1  C   UNL     1       2.911   6.847  18.505  0.00  0.00    +0.000 A 
ATOM      2  C   UNL     1       2.440   6.120  19.517  0.00  0.00    +0.000 A 
ATOM      3  N   UNL     1       3.077   4.981  19.952  0.00  0.00    +0.000 N 
ATOM      4  C   UNL     1       4.325   4.574  19.454  0.00  0.00    +0.000 A 
ATOM      5  O   UNL     1       4.907   3.574  19.871  0.00  0.00    +0.000 OA
ATOM      6  N   UNL     1       4.834   5.354  18.410  0.00  0.00    +0.000 N 
ATOM      7  C   UNL     1       4.145   6.404  17.819  0.00  0.00    +0.000 A 
ATOM      8  O   UNL     1       4.479   6.933  16.762  0.00  0.00    +0.000 OA
ENDROOT
BRANCH   3   9
ATOM      9  C   UNL     1       2.400   4.211  20.973  0.00  0.00    +0.000 C 
ATOM     10  C   UNL     1       1.047   3.593  20.686  0.00  0.00    +0.000 C 
ATOM     11  C   UNL     1       2.239   2.710  20.902  0.00  0.00    +0.000 C 
ENDBRANCH   3   9
BRANCH   1  13
ATOM     12  N   UNL     1       1.569   9.112  17.610  0.00  0.00    +0.000 NA
ATOM     13  C   UNL     1       2.177   8.085  18.015  0.00  0.00    +0.000 C 
ENDBRANCH   1  13
BRANCH   6  14
ATOM     14  C   UNL     1       6.035   4.864  17.736  0.00  0.00    +0.000 C 
BRANCH  14  15
ATOM     15  C   UNL     1       7.046   5.934  17.460  0.00  0.00    +0.000 A 
ATOM     16  N   UNL     1       7.523   6.172  16.230  0.00  0.00    +0.000 NA
ATOM     17  O   UNL     1       8.160   7.406  16.362  0.00  0.00    +0.000 OA
ATOM     18  C   UNL     1       8.015   7.799  17.668  0.00  0.00    +0.000 A 
ATOM     19  N   UNL     1       7.373   6.900  18.388  0.00  0.00    +0.000 NA
BRANCH  18  20
ATOM     20  C   UNL     1       8.475   9.123  18.191  0.00  0.00    +0.000 A 
ATOM     21  C   UNL     1       9.071   9.343  19.467  0.00  0.00    +0.000 A 
ATOM     22  C   UNL     1       9.367  10.673  19.681  0.00  0.00    +0.000 A 
ATOM     23  S   UNL     1       8.911  11.653  18.353  0.00  0.00    +0.000 S 
ATOM     24  C   UNL     1       8.332  10.296  17.480  0.00  0.00    +0.000 A 
ENDBRANCH  18  20
ENDBRANCH  14  15
ENDBRANCH   6  14
TORSDOF 5
ENDMDL
MODEL 7
REMARK VINA RESULT:      -6.5      4.658      6.965
REMARK  Name = 
REMARK  5 active torsions:
REMARK  status: ('A' for Active; 'I' for Inactive)
REMARK    1  A    between atoms: C_2  and  C_3
REMARK    2  A    between atoms: N_5  and  C_6
REMARK    3  A    between atoms: N_11  and  C_12
REMARK    4  A    between atoms: C_12  and  C_13
REMARK    5  A    between atoms: C_16  and  C_17
REMARK                            x       y       z     vdW  Elec       q    Type
REMARK                         _______ _______ _______ _____ _____    ______ ____
ROOT
ATOM      1  C   UNL     1       3.208   4.349  19.640  0.00  0.00    +0.000 A 
ATOM      2  C   UNL     1       2.456   5.375  19.243  0.00  0.00    +0.000 A 
ATOM      3  N   UNL     1       2.934   6.337  18.384  0.00  0.00    +0.000 N 
ATOM      4  C   UNL     1       4.192   6.244  17.767  0.00  0.00    +0.000 A 
ATOM      5  O   UNL     1       4.601   7.089  16.973  0.00  0.00    +0.000 OA
ATOM      6  N   UNL     1       4.971   5.152  18.162  0.00  0.00    +0.000 N 
ATOM      7  C   UNL     1       4.604   4.256  19.157  0.00  0.00    +0.000 A 
ATOM      8  O   UNL     1       5.374   3.448  19.669  0.00  0.00    +0.000 OA
ENDROOT
BRANCH   3   9
ATOM      9  C   UNL     1       2.065   7.465  18.128  0.00  0.00    +0.000 C 
ATOM     10  C   UNL     1       1.814   8.492  19.212  0.00  0.00    +0.000 C 
ATOM     11  C   UNL     1       2.573   8.880  17.979  0.00  0.00    +0.000 C 
ENDBRANCH   3   9
BRANCH   1  13
ATOM     12  N   UNL     1       2.233   2.452  21.424  0.00  0.00    +0.000 NA
ATOM     13  C   UNL     1       2.675   3.312  20.615  0.00  0.00    +0.000 C 
ENDBRANCH   1  13
BRANCH   6  14
ATOM     14  C   UNL     1       6.355   5.115  17.692  0.00  0.00    +0.000 C 
BRANCH  14  15
ATOM     15  C   UNL     1       6.481   5.141  16.200  0.00  0.00    +0.000 A 
ATOM     16  N   UNL     1       7.491   5.761  15.575  0.00  0.00    +0.000 NA
ATOM     17  O   UNL     1       7.405   5.282  14.267  0.00  0.00    +0.000 OA
ATOM     18  C   UNL     1       6.341   4.419  14.220  0.00  0.00    +0.000 A 
ATOM     19  N   UNL     1       5.717   4.338  15.379  0.00  0.00    +0.000 NA
BRANCH  18  20
ATOM     20  C   UNL     1       5.977   3.617  13.011  0.00  0.00    +0.000 A 
ATOM     21  C   UNL     1       4.702   3.620  12.372  0.00  0.00    +0.000 A 
ATOM     22  C   UNL     1       4.658   2.759  11.296  0.00  0.00    +0.000 A 
ATOM     23  S   UNL     1       6.143   1.938  11.068  0.00  0.00    +0.000 S 
ATOM     24  C   UNL     1       6.856   2.748  12.401  0.00  0.00    +0.000 A 
ENDBRANCH  18  20
ENDBRANCH  14  15
ENDBRANCH   6  14
TORSDOF 5
ENDMDL
MODEL 8
REMARK VINA RESULT:      -6.5      4.718      6.922
REMARK  Name = 
REMARK  5 active torsions:
REMARK  status: ('A' for Active; 'I' for Inactive)
REMARK    1  A    between atoms: C_2  and  C_3
REMARK    2  A    between atoms: N_5  and  C_6
REMARK    3  A    between atoms: N_11  and  C_12
REMARK    4  A    between atoms: C_12  and  C_13
REMARK    5  A    between atoms: C_16  and  C_17
REMARK                            x       y       z     vdW  Elec       q    Type
REMARK                         _______ _______ _______ _____ _____    ______ ____
ROOT
ATOM      1  C   UNL     1       3.748   4.434  19.483  0.00  0.00    +0.000 A 
ATOM      2  C   UNL     1       5.023   4.583  19.124  0.00  0.00    +0.000 A 
ATOM      3  N   UNL     1       5.419   5.559  18.239  0.00  0.00    +0.000 N 
ATOM      4  C   UNL     1       4.542   6.541  17.753  0.00  0.00    +0.000 A 
ATOM      5  O   UNL     1       4.909   7.433  16.989  0.00  0.00    +0.000 OA
ATOM      6  N   UNL     1       3.209   6.402  18.152  0.00  0.00    +0.000 N 
ATOM      7  C   UNL     1       2.729   5.333  18.896  0.00  0.00    +0.000 A 
ATOM      8  O   UNL     1       1.537   5.083  19.046  0.00  0.00    +0.000 OA
ENDROOT
BRANCH   3   9
ATOM      9  C   UNL     1       6.808   5.538  17.833  0.00  0.00    +0.000 C 
ATOM     10  C   UNL     1       7.805   6.471  18.487  0.00  0.00    +0.000 C 
ATOM     11  C   UNL     1       7.914   4.992  18.705  0.00  0.00    +0.000 C 
ENDBRANCH   3   9
BRANCH   1  13
ATOM     12  N   UNL     1       2.969   2.413  21.227  0.00  0.00    +0.000 NA
ATOM     13  C   UNL     1       3.322   3.329  20.436  0.00  0.00    +0.000 C 
ENDBRANCH   1  13
BRANCH   6  14
ATOM     14  C   UNL     1       2.229   7.287  17.524  0.00  0.00    +0.000 C 
BRANCH  14  15
ATOM     15  C   UNL     1       1.946   8.526  18.316  0.00  0.00    +0.000 A 
ATOM     16  N   UNL     1       1.926   9.745  17.760  0.00  0.00    +0.000 NA
ATOM     17  O   UNL     1       1.329  10.538  18.740  0.00  0.00    +0.000 OA
ATOM     18  C   UNL     1       1.048   9.723  19.806  0.00  0.00    +0.000 A 
ATOM     19  N   UNL     1       1.453   8.484  19.603  0.00  0.00    +0.000 NA
BRANCH  18  20
ATOM     20  C   UNL     1       0.309  10.176  21.025  0.00  0.00    +0.000 A 
ATOM     21  C   UNL     1       0.122   9.406  22.210  0.00  0.00    +0.000 A 
ATOM     22  C   UNL     1      -0.623  10.079  23.156  0.00  0.00    +0.000 A 
ATOM     23  S   UNL     1      -1.108  11.627  22.609  0.00  0.00    +0.000 S 
ATOM     24  C   UNL     1      -0.305  11.408  21.109  0.00  0.00    +0.000 A 
ENDBRANCH  18  20
ENDBRANCH  14  15
ENDBRANCH   6  14
TORSDOF 5
ENDMDL
MODEL 9
REMARK VINA RESULT:      -6.4      3.311      6.328
REMARK  Name = 
REMARK  5 active torsions:
REMARK  status: ('A' for Active; 'I' for Inactive)
REMARK    1  A    between atoms: C_2  and  C_3
REMARK    2  A    between atoms: N_5  and  C_6
REMARK    3  A    between atoms: N_11  and  C_12
REMARK    4  A    between atoms: C_12  and  C_13
REMARK    5  A    between atoms: C_16  and  C_17
REMARK                            x       y       z     vdW  Elec       q    Type
REMARK                         _______ _______ _______ _____ _____    ______ ____
ROOT
ATOM      1  C   UNL     1       6.854   6.366  17.668  0.00  0.00    +0.000 A 
ATOM      2  C   UNL     1       6.692   6.146  16.364  0.00  0.00    +0.000 A 
ATOM      3  N   UNL     1       5.807   5.206  15.889  0.00  0.00    +0.000 N 
ATOM      4  C   UNL     1       4.924   4.507  16.727  0.00  0.00    +0.000 A 
ATOM      5  O   UNL     1       4.110   3.693  16.294  0.00  0.00    +0.000 OA
ATOM      6  N   UNL     1       5.073   4.759  18.095  0.00  0.00    +0.000 N 
ATOM      7  C   UNL     1       6.070   5.561  18.632  0.00  0.00    +0.000 A 
ATOM      8  O   UNL     1       6.351   5.597  19.826  0.00  0.00    +0.000 OA
ENDROOT
BRANCH   3   9
ATOM      9  C   UNL     1       5.816   4.972  14.462  0.00  0.00    +0.000 C 
ATOM     10  C   UNL     1       7.130   4.831  13.722  0.00  0.00    +0.000 C 
ATOM     11  C   UNL     1       6.213   3.651  13.845  0.00  0.00    +0.000 C 
ENDBRANCH   3   9
BRANCH   1  13
ATOM     12  N   UNL     1       8.695   8.231  18.599  0.00  0.00    +0.000 NA
ATOM     13  C   UNL     1       7.860   7.386  18.177  0.00  0.00    +0.000 C 
ENDBRANCH   1  13
BRANCH   6  14
ATOM     14  C   UNL     1       4.307   3.920  19.015  0.00  0.00    +0.000 C 
BRANCH  14  15
ATOM     15  C   UNL     1       3.162   4.633  19.664  0.00  0.00    +0.000 A 
ATOM     16  N   UNL     1       2.575   4.183  20.782  0.00  0.00    +0.000 NA
ATOM     17  O   UNL     1       1.810   5.269  21.207  0.00  0.00    +0.000 OA
ATOM     18  C   UNL     1       1.999   6.278  20.298  0.00  0.00    +0.000 A 
ATOM     19  N   UNL     1       2.791   5.912  19.309  0.00  0.00    +0.000 NA
BRANCH  18  20
ATOM     20  C   UNL     1       1.427   7.651  20.453  0.00  0.00    +0.000 A 
ATOM     21  C   UNL     1       0.651   8.102  21.561  0.00  0.00    +0.000 A 
ATOM     22  C   UNL     1       0.239   9.410  21.411  0.00  0.00    +0.000 A 
ATOM     23  S   UNL     1       0.773  10.085  19.931  0.00  0.00    +0.000 S 
ATOM     24  C   UNL     1       1.574   8.633  19.495  0.00  0.00    +0.000 A 
ENDBRANCH  18  20
ENDBRANCH  14  15
ENDBRANCH   6  14
TORSDOF 5
ENDMDL
