MODEL 1
REMARK VINA RESULT:      -8.5      0.000      0.000
REMARK  Name = 
REMARK  4 active torsions:
REMARK  status: ('A' for Active; 'I' for Inactive)
REMARK    1  A    between atoms: O_1  and  C_2
REMARK    2  A    between atoms: C_2  and  C_3
REMARK    3  A    between atoms: N_13  and  C_14
REMARK    4  A    between atoms: C_14  and  C_15
REMARK                            x       y       z     vdW  Elec       q    Type
REMARK                         _______ _______ _______ _____ _____    ______ ____
ROOT
ATOM      1  C   UNL     1       6.622   5.564  16.137  0.00  0.00    +0.000 C 
ATOM      2  C   UNL     1       6.920   4.465  17.173  0.00  0.00    +0.000 C 
ATOM      3  C   UNL     1       5.566   3.871  17.589  0.00  0.00    +0.000 C 
ATOM      4  C   UNL     1       4.474   4.694  16.891  0.00  0.00    +0.000 C 
ATOM      5  C   UNL     1       3.344   5.174  17.797  0.00  0.00    +0.000 C 
ATOM      6  N   UNL     1       3.597   6.598  18.120  0.00  0.00    +0.000 NA
ATOM      7  C   UNL     1       4.973   6.872  17.666  0.00  0.00    +0.000 C 
ATOM      8  C   UNL     1       5.176   5.971  16.449  0.00  0.00    +0.000 C 
ENDROOT
BRANCH   1   9
ATOM      9  C   UNL     1       6.761   5.021  14.705  0.00  0.00    +0.000 A 
ATOM     10  C   UNL     1       5.906   4.028  14.223  0.00  0.00    +0.000 A 
ATOM     11  C   UNL     1       6.056   3.561  12.917  0.00  0.00    +0.000 A 
ATOM     12  C   UNL     1       7.058   4.089  12.117  0.00  0.00    +0.000 A 
ATOM     13  C   UNL     1       7.871   5.066  12.658  0.00  0.00    +0.000 A 
ATOM     14  N   UNL     1       7.740   5.544  13.917  0.00  0.00    +0.000 NA
ENDBRANCH   1   9
BRANCH   1  15
ATOM     15  O   UNL     1       7.501   6.680  16.328  0.00  0.00    +0.000 OA
ATOM     16  H   UNL     1       7.111   7.274  16.988  0.00  0.00    +0.000 HD
ENDBRANCH   1  15
BRANCH   6  17
ATOM     17  C   UNL     1       2.645   7.511  17.450  0.00  0.00    +0.000 C 
BRANCH  17  18
ATOM     18  C   UNL     1       2.001   8.508  18.397  0.00  0.00    +0.000 A 
ATOM     19  C   UNL     1       1.767   9.816  17.925  0.00  0.00    +0.000 A 
ATOM     20  C   UNL     1       1.249  10.801  18.762  0.00  0.00    +0.000 A 
ATOM     21  C   UNL     1       0.945  10.495  20.085  0.00  0.00    +0.000 A 
ATOM     22  C   UNL     1       1.140   9.198  20.567  0.00  0.00    +0.000 A 
ATOM     23 CL   UNL     1       0.730   8.906  22.224  0.00  0.00    +0.000 Cl
ATOM     24  C   UNL     1       1.658   8.196  19.729  0.00  0.00    +0.000 A 
ATOM     25 CL   UNL     1       1.888   6.589  20.345  0.00  0.00    +0.000 Cl
ENDBRANCH  17  18
ENDBRANCH   6  17
TORSDOF 4
ENDMDL
MODEL 2
REMARK VINA RESULT:      -8.3      1.328      1.710
REMARK  Name = 
REMARK  4 active torsions:
REMARK  status: ('A' for Active; 'I' for Inactive)
REMARK    1  A    between atoms: O_1  and  C_2
REMARK    2  A    between atoms: C_2  and  C_3
REMARK    3  A    between atoms: N_13  and  C_14
REMARK    4  A    between atoms: C_14  and  C_15
REMARK                            x       y       z     vdW  Elec       q    Type
REMARK                         _______ _______ _______ _____ _____    ______ ____
ROOT
ATOM      1  C   UNL     1       6.802   5.538  16.211  0.00  0.00    +0.000 C 
ATOM      2  C   UNL     1       7.266   4.443  17.189  0.00  0.00    +0.000 C 
ATOM      3  C   UNL     1       5.997   3.789  17.756  0.00  0.00    +0.000 C 
ATOM      4  C   UNL     1       4.796   4.571  17.204  0.00  0.00    +0.000 C 
ATOM      5  C   UNL     1       3.765   4.995  18.245  0.00  0.00    +0.000 C 
ATOM      6  N   UNL     1       3.995   6.426  18.554  0.00  0.00    +0.000 NA
ATOM      7  C   UNL     1       5.295   6.762  17.943  0.00  0.00    +0.000 C 
ATOM      8  C   UNL     1       5.388   5.881  16.699  0.00  0.00    +0.000 C 
ENDROOT
BRANCH   1   9
ATOM      9  C   UNL     1       6.790   5.013  14.766  0.00  0.00    +0.000 A 
ATOM     10  C   UNL     1       5.850   4.070  14.347  0.00  0.00    +0.000 A 
ATOM     11  C   UNL     1       5.865   3.619  13.027  0.00  0.00    +0.000 A 
ATOM     12  C   UNL     1       6.818   4.112  12.150  0.00  0.00    +0.000 A 
ATOM     13  C   UNL     1       7.721   5.041  12.631  0.00  0.00    +0.000 A 
ATOM     14  N   UNL     1       7.721   5.503  13.903  0.00  0.00    +0.000 NA
ENDBRANCH   1   9
BRANCH   1  15
ATOM     15  O   UNL     1       7.650   6.687  16.311  0.00  0.00    +0.000 OA
ATOM     16  H   UNL     1       8.000   6.738  17.214  0.00  0.00    +0.000 HD
ENDBRANCH   1  15
BRANCH   6  17
ATOM     17  C   UNL     1       2.934   7.304  18.015  0.00  0.00    +0.000 C 
BRANCH  17  18
ATOM     18  C   UNL     1       2.084   7.952  19.093  0.00  0.00    +0.000 A 
ATOM     19  C   UNL     1       1.841   7.220  20.275  0.00  0.00    +0.000 A 
ATOM     20  C   UNL     1       1.009   7.722  21.273  0.00  0.00    +0.000 A 
ATOM     21  C   UNL     1       0.412   8.969  21.115  0.00  0.00    +0.000 A 
ATOM     22  C   UNL     1       0.663   9.725  19.967  0.00  0.00    +0.000 A 
ATOM     23 CL   UNL     1      -0.118  11.267  19.856  0.00  0.00    +0.000 Cl
ATOM     24  C   UNL     1       1.504   9.229  18.956  0.00  0.00    +0.000 A 
ATOM     25 CL   UNL     1       1.807  10.187  17.538  0.00  0.00    +0.000 Cl
ENDBRANCH  17  18
ENDBRANCH   6  17
TORSDOF 4
ENDMDL
MODEL 3
REMARK VINA RESULT:      -8.2      2.130      2.851
REMARK  Name = 
REMARK  4 active torsions:
REMARK  status: ('A' for Active; 'I' for Inactive)
REMARK    1  A    between atoms: O_1  and  C_2
REMARK    2  A    between atoms: C_2  and  C_3
REMARK    3  A    between atoms: N_13  and  C_14
REMARK    4  A    between atoms: C_14  and  C_15
REMARK                            x       y       z     vdW  Elec       q    Type
REMARK                         _______ _______ _______ _____ _____    ______ ____
ROOT
ATOM      1  C   UNL     1       4.856   3.929  17.900  0.00  0.00    +0.000 C 
ATOM      2  C   UNL     1       3.784   2.841  17.706  0.00  0.00    +0.000 C 
ATOM      3  C   UNL     1       2.464   3.569  17.408  0.00  0.00    +0.000 C 
ATOM      4  C   UNL     1       2.734   5.074  17.543  0.00  0.00    +0.000 C 
ATOM      5  C   UNL     1       1.732   5.838  18.404  0.00  0.00    +0.000 C 
ATOM      6  N   UNL     1       2.350   6.055  19.733  0.00  0.00    +0.000 NA
ATOM      7  C   UNL     1       3.551   5.199  19.759  0.00  0.00    +0.000 C 
ATOM      8  C   UNL     1       4.044   5.164  18.314  0.00  0.00    +0.000 C 
ENDROOT
BRANCH   1   9
ATOM      9  C   UNL     1       5.634   4.172  16.597  0.00  0.00    +0.000 A 
ATOM     10  C   UNL     1       5.178   3.664  15.379  0.00  0.00    +0.000 A 
ATOM     11  C   UNL     1       5.906   3.907  14.214  0.00  0.00    +0.000 A 
ATOM     12  C   UNL     1       7.075   4.649  14.284  0.00  0.00    +0.000 A 
ATOM     13  C   UNL     1       7.470   5.119  15.522  0.00  0.00    +0.000 A 
ATOM     14  N   UNL     1       6.777   4.906  16.664  0.00  0.00    +0.000 NA
ENDBRANCH   1   9
BRANCH   1  15
ATOM     15  O   UNL     1       5.758   3.558  18.950  0.00  0.00    +0.000 OA
ATOM     16  H   UNL     1       5.590   4.124  19.719  0.00  0.00    +0.000 HD
ENDBRANCH   1  15
BRANCH   6  17
ATOM     17  C   UNL     1       2.723   7.467  19.965  0.00  0.00    +0.000 C 
BRANCH  17  18
ATOM     18  C   UNL     1       1.533   8.360  20.268  0.00  0.00    +0.000 A 
ATOM     19  C   UNL     1       0.901   8.221  21.521  0.00  0.00    +0.000 A 
ATOM     20  C   UNL     1      -0.241   8.954  21.837  0.00  0.00    +0.000 A 
ATOM     21  C   UNL     1      -0.768   9.848  20.910  0.00  0.00    +0.000 A 
ATOM     22  C   UNL     1      -0.141  10.026  19.673  0.00  0.00    +0.000 A 
ATOM     23 CL   UNL     1      -0.862  11.162  18.583  0.00  0.00    +0.000 Cl
ATOM     24  C   UNL     1       1.014   9.294  19.347  0.00  0.00    +0.000 A 
ATOM     25 CL   UNL     1       1.781   9.532  17.807  0.00  0.00    +0.000 Cl
ENDBRANCH  17  18
ENDBRANCH   6  17
TORSDOF 4
ENDMDL
MODEL 4
REMARK VINA RESULT:      -8.0      2.054      2.988
REMARK  Name = 
REMARK  4 active torsions:
REMARK  status: ('A' for Active; 'I' for Inactive)
REMARK    1  A    between atoms: O_1  and  C_2
REMARK    2  A    between atoms: C_2  and  C_3
REMARK    3  A    between atoms: N_13  and  C_14
REMARK    4  A    between atoms: C_14  and  C_15
REMARK                            x       y       z     vdW  Elec       q    Type
REMARK                         _______ _______ _______ _____ _____    ______ ____
ROOT
ATOM      1  C   UNL     1       4.494   3.648  18.292  0.00  0.00    +0.000 C 
ATOM      2  C   UNL     1       3.415   2.666  17.800  0.00  0.00    +0.000 C 
ATOM      3  C   UNL     1       2.168   3.504  17.480  0.00  0.00    +0.000 C 
ATOM      4  C   UNL     1       2.474   4.951  17.893  0.00  0.00    +0.000 C 
ATOM      5  C   UNL     1       1.404   5.621  18.750  0.00  0.00    +0.000 C 
ATOM      6  N   UNL     1       1.865   5.587  20.158  0.00  0.00    +0.000 NA
ATOM      7  C   UNL     1       3.022   4.673  20.177  0.00  0.00    +0.000 C 
ATOM      8  C   UNL     1       3.684   4.843  18.811  0.00  0.00    +0.000 C 
ENDROOT
BRANCH   1   9
ATOM      9  C   UNL     1       5.432   4.054  17.144  0.00  0.00    +0.000 A 
ATOM     10  C   UNL     1       5.178   3.656  15.829  0.00  0.00    +0.000 A 
ATOM     11  C   UNL     1       6.047   4.046  14.810  0.00  0.00    +0.000 A 
ATOM     12  C   UNL     1       7.154   4.821  15.118  0.00  0.00    +0.000 A 
ATOM     13  C   UNL     1       7.347   5.177  16.440  0.00  0.00    +0.000 A 
ATOM     14  N   UNL     1       6.515   4.821  17.445  0.00  0.00    +0.000 NA
ENDBRANCH   1   9
BRANCH   1  15
ATOM     15  O   UNL     1       5.249   3.063  19.360  0.00  0.00    +0.000 OA
ATOM     16  H   UNL     1       6.192   3.116  19.141  0.00  0.00    +0.000 HD
ENDBRANCH   1  15
BRANCH   6  17
ATOM     17  C   UNL     1       2.258   6.921  20.662  0.00  0.00    +0.000 C 
BRANCH  17  18
ATOM     18  C   UNL     1       1.692   8.064  19.838  0.00  0.00    +0.000 A 
ATOM     19  C   UNL     1       2.288   8.342  18.591  0.00  0.00    +0.000 A 
ATOM     20  C   UNL     1       1.870   9.423  17.817  0.00  0.00    +0.000 A 
ATOM     21  C   UNL     1       0.841  10.241  18.272  0.00  0.00    +0.000 A 
ATOM     22  C   UNL     1       0.213   9.967  19.491  0.00  0.00    +0.000 A 
ATOM     23 CL   UNL     1      -1.061  11.035  19.975  0.00  0.00    +0.000 Cl
ATOM     24  C   UNL     1       0.626   8.877  20.276  0.00  0.00    +0.000 A 
ATOM     25 CL   UNL     1      -0.169   8.551  21.785  0.00  0.00    +0.000 Cl
ENDBRANCH  17  18
ENDBRANCH   6  17
TORSDOF 4
ENDMDL
MODEL 5
REMARK VINA RESULT:      -8.0      4.985      6.535
REMARK  Name = 
REMARK  4 active torsions:
REMARK  status: ('A' for Active; 'I' for Inactive)
REMARK    1  A    between atoms: O_1  and  C_2
REMARK    2  A    between atoms: C_2  and  C_3
REMARK    3  A    between atoms: N_13  and  C_14
REMARK    4  A    between atoms: C_14  and  C_15
REMARK                            x       y       z     vdW  Elec       q    Type
REMARK                         _______ _______ _______ _____ _____    ______ ____
ROOT
ATOM      1  C   UNL     1       5.908   5.750  16.498  0.00  0.00    +0.000 C 
ATOM      2  C   UNL     1       6.967   4.645  16.667  0.00  0.00    +0.000 C 
ATOM      3  C   UNL     1       7.716   4.947  17.974  0.00  0.00    +0.000 C 
ATOM      4  C   UNL     1       7.180   6.283  18.508  0.00  0.00    +0.000 C 
ATOM      5  C   UNL     1       8.248   7.298  18.903  0.00  0.00    +0.000 C 
ATOM      6  N   UNL     1       8.362   8.286  17.804  0.00  0.00    +0.000 NA
ATOM      7  C   UNL     1       7.605   7.715  16.675  0.00  0.00    +0.000 C 
ATOM      8  C   UNL     1       6.472   6.918  17.319  0.00  0.00    +0.000 C 
ENDROOT
BRANCH   1   9
ATOM      9  C   UNL     1       4.543   5.289  17.033  0.00  0.00    +0.000 A 
ATOM     10  C   UNL     1       3.682   6.180  17.678  0.00  0.00    +0.000 A 
ATOM     11  C   UNL     1       2.448   5.729  18.148  0.00  0.00    +0.000 A 
ATOM     12  C   UNL     1       2.096   4.400  17.970  0.00  0.00    +0.000 A 
ATOM     13  C   UNL     1       2.997   3.572  17.327  0.00  0.00    +0.000 A 
ATOM     14  N   UNL     1       4.194   3.986  16.853  0.00  0.00    +0.000 NA
ENDBRANCH   1   9
BRANCH   1  15
ATOM     15  O   UNL     1       5.796   6.125  15.120  0.00  0.00    +0.000 OA
ATOM     16  H   UNL     1       6.556   5.766  14.636  0.00  0.00    +0.000 HD
ENDBRANCH   1  15
BRANCH   6  17
ATOM     17  C   UNL     1       7.814   9.611  18.170  0.00  0.00    +0.000 C 
BRANCH  17  18
ATOM     18  C   UNL     1       8.888  10.647  18.453  0.00  0.00    +0.000 A 
ATOM     19  C   UNL     1       9.976  10.269  19.267  0.00  0.00    +0.000 A 
ATOM     20  C   UNL     1      10.957  11.190  19.629  0.00  0.00    +0.000 A 
ATOM     21  C   UNL     1      10.875  12.503  19.176  0.00  0.00    +0.000 A 
ATOM     22  C   UNL     1       9.823  12.892  18.343  0.00  0.00    +0.000 A 
ATOM     23 CL   UNL     1       9.803  14.544  17.823  0.00  0.00    +0.000 Cl
ATOM     24  C   UNL     1       8.831  11.970  17.969  0.00  0.00    +0.000 A 
ATOM     25 CL   UNL     1       7.533  12.472  16.929  0.00  0.00    +0.000 Cl
ENDBRANCH  17  18
ENDBRANCH   6  17
TORSDOF 4
ENDMDL
MODEL 6
REMARK VINA RESULT:      -7.7      4.329      8.323
REMARK  Name = 
REMARK  4 active torsions:
REMARK  status: ('A' for Active; 'I' for Inactive)
REMARK    1  A    between atoms: O_1  and  C_2
REMARK    2  A    between atoms: C_2  and  C_3
REMARK    3  A    between atoms: N_13  and  C_14
REMARK    4  A    between atoms: C_14  and  C_15
REMARK                            x       y       z     vdW  Elec       q    Type
REMARK                         _______ _______ _______ _____ _____    ______ ____
ROOT
ATOM      1  C   UNL     1      -0.217  10.468  19.414  0.00  0.00    +0.000 C 
ATOM      2  C   UNL     1       0.878  11.466  18.994  0.00  0.00    +0.000 C 
ATOM      3  C   UNL     1       1.826  10.711  18.052  0.00  0.00    +0.000 C 
ATOM      4  C   UNL     1       1.359   9.249  18.011  0.00  0.00    +0.000 C 
ATOM      5  C   UNL     1       2.457   8.211  18.226  0.00  0.00    +0.000 C 
ATOM      6  N   UNL     1       2.366   7.741  19.629  0.00  0.00    +0.000 NA
ATOM      7  C   UNL     1       1.444   8.674  20.303  0.00  0.00    +0.000 C 
ATOM      8  C   UNL     1       0.451   9.100  19.224  0.00  0.00    +0.000 C 
ENDROOT
BRANCH   1   9
ATOM      9  C   UNL     1      -1.465  10.618  18.528  0.00  0.00    +0.000 A 
ATOM     10  C   UNL     1      -1.615   9.867  17.360  0.00  0.00    +0.000 A 
ATOM     11  C   UNL     1      -2.762  10.024  16.582  0.00  0.00    +0.000 A 
ATOM     12  C   UNL     1      -3.736  10.927  16.978  0.00  0.00    +0.000 A 
ATOM     13  C   UNL     1      -3.522  11.640  18.143  0.00  0.00    +0.000 A 
ATOM     14  N   UNL     1      -2.424  11.499  18.921  0.00  0.00    +0.000 NA
ENDBRANCH   1   9
BRANCH   1  15
ATOM     15  O   UNL     1      -0.565  10.660  20.791  0.00  0.00    +0.000 OA
ATOM     16  H   UNL     1      -0.155   9.956  21.316  0.00  0.00    +0.000 HD
ENDBRANCH   1  15
BRANCH   6  17
ATOM     17  C   UNL     1       1.859   6.355  19.734  0.00  0.00    +0.000 C 
BRANCH  17  18
ATOM     18  C   UNL     1       2.920   5.306  19.455  0.00  0.00    +0.000 A 
ATOM     19  C   UNL     1       4.271   5.710  19.458  0.00  0.00    +0.000 A 
ATOM     20  C   UNL     1       5.291   4.817  19.136  0.00  0.00    +0.000 A 
ATOM     21  C   UNL     1       4.981   3.500  18.815  0.00  0.00    +0.000 A 
ATOM     22  C   UNL     1       3.652   3.068  18.835  0.00  0.00    +0.000 A 
ATOM     23 CL   UNL     1       3.359   1.410  18.426  0.00  0.00    +0.000 Cl
ATOM     24  C   UNL     1       2.617   3.960  19.162  0.00  0.00    +0.000 A 
ATOM     25 CL   UNL     1       0.972   3.403  19.186  0.00  0.00    +0.000 Cl
ENDBRANCH  17  18
ENDBRANCH   6  17
TORSDOF 4
ENDMDL
MODEL 7
REMARK VINA RESULT:      -7.7      3.468      7.351
REMARK  Name = 
REMARK  4 active torsions:
REMARK  status: ('A' for Active; 'I' for Inactive)
REMARK    1  A    between atoms: O_1  and  C_2
REMARK    2  A    between atoms: C_2  and  C_3
REMARK    3  A    between atoms: N_13  and  C_14
REMARK    4  A    between atoms: C_14  and  C_15
REMARK                            x       y       z     vdW  Elec       q    Type
REMARK                         _______ _______ _______ _____ _____    ______ ____
ROOT
ATOM      1  C   UNL     1       3.815   5.497  19.030  0.00  0.00    +0.000 C 
ATOM      2  C   UNL     1       3.181   6.877  18.775  0.00  0.00    +0.000 C 
ATOM      3  C   UNL     1       3.323   7.158  17.271  0.00  0.00    +0.000 C 
ATOM      4  C   UNL     1       4.139   6.005  16.669  0.00  0.00    +0.000 C 
ATOM      5  C   UNL     1       5.304   6.430  15.779  0.00  0.00    +0.000 C 
ATOM      6  N   UNL     1       6.548   6.310  16.576  0.00  0.00    +0.000 NA
ATOM      7  C   UNL     1       6.112   6.106  17.969  0.00  0.00    +0.000 C 
ATOM      8  C   UNL     1       4.799   5.332  17.865  0.00  0.00    +0.000 C 
ENDROOT
BRANCH   1   9
ATOM      9  C   UNL     1       2.745   4.393  19.030  0.00  0.00    +0.000 A 
ATOM     10  C   UNL     1       1.673   4.427  19.924  0.00  0.00    +0.000 A 
ATOM     11  C   UNL     1       0.717   3.411  19.894  0.00  0.00    +0.000 A 
ATOM     12  C   UNL     1       0.848   2.380  18.977  0.00  0.00    +0.000 A 
ATOM     13  C   UNL     1       1.935   2.407  18.124  0.00  0.00    +0.000 A 
ATOM     14  N   UNL     1       2.870   3.384  18.126  0.00  0.00    +0.000 NA
ENDBRANCH   1   9
BRANCH   1  15
ATOM     15  O   UNL     1       4.522   5.497  20.276  0.00  0.00    +0.000 OA
ATOM     16  H   UNL     1       5.448   5.731  20.109  0.00  0.00    +0.000 HD
ENDBRANCH   1  15
BRANCH   6  17
ATOM     17  C   UNL     1       7.400   5.184  16.136  0.00  0.00    +0.000 C 
BRANCH  17  18
ATOM     18  C   UNL     1       7.284   4.887  14.651  0.00  0.00    +0.000 A 
ATOM     19  C   UNL     1       8.089   5.628  13.761  0.00  0.00    +0.000 A 
ATOM     20  C   UNL     1       7.979   5.461  12.382  0.00  0.00    +0.000 A 
ATOM     21  C   UNL     1       7.070   4.543  11.867  0.00  0.00    +0.000 A 
ATOM     22  C   UNL     1       6.284   3.775  12.730  0.00  0.00    +0.000 A 
ATOM     23 CL   UNL     1       5.183   2.654  12.001  0.00  0.00    +0.000 Cl
ATOM     24  C   UNL     1       6.390   3.934  14.122  0.00  0.00    +0.000 A 
ATOM     25 CL   UNL     1       5.407   2.966  15.179  0.00  0.00    +0.000 Cl
ENDBRANCH  17  18
ENDBRANCH   6  17
TORSDOF 4
ENDMDL
MODEL 8
REMARK VINA RESULT:      -7.7      4.689      8.124
REMARK  Name = 
REMARK  4 active torsions:
REMARK  status: ('A' for Active; 'I' for Inactive)
REMARK    1  A    between atoms: O_1  and  C_2
REMARK    2  A    between atoms: C_2  and  C_3
REMARK    3  A    between atoms: N_13  and  C_14
REMARK    4  A    between atoms: C_14  and  C_15
REMARK                            x       y       z     vdW  Elec       q    Type
REMARK                         _______ _______ _______ _____ _____    ______ ____
ROOT
ATOM      1  C   UNL     1       0.204   9.885  19.545  0.00  0.00    +0.000 C 
ATOM      2  C   UNL     1       1.332  10.931  19.590  0.00  0.00    +0.000 C 
ATOM      3  C   UNL     1       2.285  10.605  18.431  0.00  0.00    +0.000 C 
ATOM      4  C   UNL     1       1.784   9.307  17.782  0.00  0.00    +0.000 C 
ATOM      5  C   UNL     1       2.851   8.239  17.560  0.00  0.00    +0.000 C 
ATOM      6  N   UNL     1       2.714   7.233  18.640  0.00  0.00    +0.000 NA
ATOM      7  C   UNL     1       1.799   7.831  19.630  0.00  0.00    +0.000 C 
ATOM      8  C   UNL     1       0.843   8.698  18.812  0.00  0.00    +0.000 C 
ENDROOT
BRANCH   1   9
ATOM      9  C   UNL     1      -1.018  10.428  18.786  0.00  0.00    +0.000 A 
ATOM     10  C   UNL     1      -1.384   9.909  17.541  0.00  0.00    +0.000 A 
ATOM     11  C   UNL     1      -2.501  10.421  16.882  0.00  0.00    +0.000 A 
ATOM     12  C   UNL     1      -3.230  11.443  17.470  0.00  0.00    +0.000 A 
ATOM     13  C   UNL     1      -2.810  11.912  18.701  0.00  0.00    +0.000 A 
ATOM     14  N   UNL     1      -1.738  11.426  19.366  0.00  0.00    +0.000 NA
ENDBRANCH   1   9
BRANCH   1  15
ATOM     15  O   UNL     1      -0.173   9.500  20.872  0.00  0.00    +0.000 OA
ATOM     16  H   UNL     1       0.034   8.561  20.995  0.00  0.00    +0.000 HD
ENDBRANCH   1  15
BRANCH   6  17
ATOM     17  C   UNL     1       2.173   5.945  18.155  0.00  0.00    +0.000 C 
BRANCH  17  18
ATOM     18  C   UNL     1       2.307   4.818  19.164  0.00  0.00    +0.000 A 
ATOM     19  C   UNL     1       1.269   4.642  20.103  0.00  0.00    +0.000 A 
ATOM     20  C   UNL     1       1.361   3.677  21.104  0.00  0.00    +0.000 A 
ATOM     21  C   UNL     1       2.487   2.864  21.179  0.00  0.00    +0.000 A 
ATOM     22  C   UNL     1       3.514   2.999  20.241  0.00  0.00    +0.000 A 
ATOM     23 CL   UNL     1       4.875   1.941  20.408  0.00  0.00    +0.000 Cl
ATOM     24  C   UNL     1       3.429   3.966  19.225  0.00  0.00    +0.000 A 
ATOM     25 CL   UNL     1       4.713   4.116  18.065  0.00  0.00    +0.000 Cl
ENDBRANCH  17  18
ENDBRANCH   6  17
TORSDOF 4
ENDMDL
MODEL 9
REMARK VINA RESULT:      -7.6      2.133      2.981
REMARK  Name = 
REMARK  4 active torsions:
REMARK  status: ('A' for Active; 'I' for Inactive)
REMARK    1  A    between atoms: O_1  and  C_2
REMARK    2  A    between atoms: C_2  and  C_3
REMARK    3  A    between atoms: N_13  and  C_14
REMARK    4  A    between atoms: C_14  and  C_15
REMARK                            x       y       z     vdW  Elec       q    Type
REMARK                         _______ _______ _______ _____ _____    ______ ____
ROOT
ATOM      1  C   UNL     1       5.094   4.594  18.300  0.00  0.00    +0.000 C 
ATOM      2  C   UNL     1       4.329   3.282  18.554  0.00  0.00    +0.000 C 
ATOM      3  C   UNL     1       2.868   3.538  18.154  0.00  0.00    +0.000 C 
ATOM      4  C   UNL     1       2.752   5.022  17.779  0.00  0.00    +0.000 C 
ATOM      5  C   UNL     1       1.593   5.768  18.433  0.00  0.00    +0.000 C 
ATOM      6  N   UNL     1       2.140   6.550  19.566  0.00  0.00    +0.000 NA
ATOM      7  C   UNL     1       3.518   6.060  19.761  0.00  0.00    +0.000 C 
ATOM      8  C   UNL     1       4.000   5.668  18.366  0.00  0.00    +0.000 C 
ENDROOT
BRANCH   1   9
ATOM      9  C   UNL     1       5.782   4.570  16.925  0.00  0.00    +0.000 A 
ATOM     10  C   UNL     1       6.776   5.495  16.599  0.00  0.00    +0.000 A 
ATOM     11  C   UNL     1       7.383   5.443  15.345  0.00  0.00    +0.000 A 
ATOM     12  C   UNL     1       6.987   4.473  14.437  0.00  0.00    +0.000 A 
ATOM     13  C   UNL     1       5.995   3.592  14.823  0.00  0.00    +0.000 A 
ATOM     14  N   UNL     1       5.398   3.614  16.036  0.00  0.00    +0.000 NA
ENDBRANCH   1   9
BRANCH   1  15
ATOM     15  O   UNL     1       6.063   4.813  19.332  0.00  0.00    +0.000 OA
ATOM     16  H   UNL     1       6.925   4.977  18.919  0.00  0.00    +0.000 HD
ENDBRANCH   1  15
BRANCH   6  17
ATOM     17  C   UNL     1       2.147   8.006  19.303  0.00  0.00    +0.000 C 
BRANCH  17  18
ATOM     18  C   UNL     1       1.271   8.793  20.261  0.00  0.00    +0.000 A 
ATOM     19  C   UNL     1       1.338   8.477  21.634  0.00  0.00    +0.000 A 
ATOM     20  C   UNL     1       0.507   9.107  22.559  0.00  0.00    +0.000 A 
ATOM     21  C   UNL     1      -0.398  10.072  22.131  0.00  0.00    +0.000 A 
ATOM     22  C   UNL     1      -0.460  10.425  20.780  0.00  0.00    +0.000 A 
ATOM     23 CL   UNL     1      -1.612  11.640  20.338  0.00  0.00    +0.000 Cl
ATOM     24  C   UNL     1       0.376   9.798  19.840  0.00  0.00    +0.000 A 
ATOM     25 CL   UNL     1       0.287  10.254  18.166  0.00  0.00    +0.000 Cl
ENDBRANCH  17  18
ENDBRANCH   6  17
TORSDOF 4
ENDMDL
