MODEL 1
REMARK VINA RESULT:      -8.6      0.000      0.000
REMARK  Name = 
REMARK  9 active torsions:
REMARK  status: ('A' for Active; 'I' for Inactive)
REMARK    1  A    between atoms: C_1  and  C_2
REMARK    2  A    between atoms: C_5  and  N_6
REMARK    3  A    between atoms: N_6  and  C_7
REMARK    4  A    between atoms: C_7  and  C_8
REMARK    5  A    between atoms: C_19  and  C_20
REMARK    6  A    between atoms: C_24  and  S_25
REMARK    7  A    between atoms: S_25  and  N_28
REMARK    8  A    between atoms: N_28  and  C_29
REMARK    9  A    between atoms: N_28  and  C_30
REMARK                            x       y       z     vdW  Elec       q    Type
REMARK                         _______ _______ _______ _____ _____    ______ ____
ROOT
ATOM      1  C   UNL     1       1.939  10.368  17.930  0.00  0.00    +0.000 C 
ATOM      2  C   UNL     1       2.067   8.968  18.445  0.00  0.00    +0.000 A 
ATOM      3  N   UNL     1       2.754   8.006  17.775  0.00  0.00    +0.000 NA
ATOM      4  C   UNL     1       2.665   6.920  18.569  0.00  0.00    +0.000 A 
ATOM      5  C   UNL     1       3.233   5.657  18.338  0.00  0.00    +0.000 A 
ATOM      6  C   UNL     1       2.961   4.663  19.310  0.00  0.00    +0.000 A 
ATOM      7  C   UNL     1       2.190   4.976  20.442  0.00  0.00    +0.000 A 
ATOM      8 CL   UNL     1       1.814   3.741  21.627  0.00  0.00    +0.000 Cl
ATOM      9  N   UNL     1       1.729   6.241  20.616  0.00  0.00    +0.000 NA
ATOM     10  N   UNL     1       1.976   7.164  19.688  0.00  0.00    +0.000 N 
ATOM     11  C   UNL     1       1.606   8.455  19.663  0.00  0.00    +0.000 A 
ENDROOT
BRANCH  11  12
ATOM     12  C   UNL     1       0.914   9.173  20.777  0.00  0.00    +0.000 A 
ATOM     13  C   UNL     1       1.018   8.770  22.122  0.00  0.00    +0.000 A 
ATOM     14  C   UNL     1       0.309   9.438  23.124  0.00  0.00    +0.000 A 
ATOM     15  C   UNL     1      -0.536  10.499  22.799  0.00  0.00    +0.000 A 
ATOM     16  C   UNL     1      -0.665  10.901  21.469  0.00  0.00    +0.000 A 
ATOM     17  C   UNL     1       0.064  10.254  20.469  0.00  0.00    +0.000 A 
BRANCH  16  18
ATOM     18  S   UNL     1      -1.825  12.191  21.021  0.00  0.00    +0.000 S 
ATOM     19  O   UNL     1      -1.158  13.563  20.841  0.00  0.00    +0.000 OA
ATOM     20  O   UNL     1      -2.471  11.976  19.643  0.00  0.00    +0.000 OA
BRANCH  18  21
ATOM     21  N   UNL     1      -3.175  12.471  22.148  0.00  0.00    +0.000 NA
ATOM     22  C   UNL     1      -2.819  13.534  23.096  0.00  0.00    +0.000 C 
ATOM     23  C   UNL     1      -4.362  12.864  21.379  0.00  0.00    +0.000 C 
ENDBRANCH  18  21
ENDBRANCH  16  18
ENDBRANCH  11  12
BRANCH   5  24
ATOM     24  N   UNL     1       4.039   5.413  17.182  0.00  0.00    +0.000 N 
ATOM     25  H   UNL     1       3.971   6.063  16.382  0.00  0.00    +0.000 HD
BRANCH  24  26
ATOM     26  C   UNL     1       5.045   4.366  17.110  0.00  0.00    +0.000 C 
BRANCH  26  27
ATOM     27  C   UNL     1       5.866   4.508  15.851  0.00  0.00    +0.000 A 
ATOM     28  C   UNL     1       5.490   3.856  14.664  0.00  0.00    +0.000 A 
ATOM     29  C   UNL     1       6.256   4.013  13.506  0.00  0.00    +0.000 A 
ATOM     30  C   UNL     1       7.389   4.828  13.542  0.00  0.00    +0.000 A 
ATOM     31  N   UNL     1       7.741   5.454  14.695  0.00  0.00    +0.000 NA
ATOM     32  C   UNL     1       7.016   5.312  15.837  0.00  0.00    +0.000 A 
ENDBRANCH  26  27
ENDBRANCH  24  26
ENDBRANCH   5  24
TORSDOF 6
ENDMDL
MODEL 2
REMARK VINA RESULT:      -8.6      1.341      1.522
REMARK  Name = 
REMARK  9 active torsions:
REMARK  status: ('A' for Active; 'I' for Inactive)
REMARK    1  A    between atoms: C_1  and  C_2
REMARK    2  A    between atoms: C_5  and  N_6
REMARK    3  A    between atoms: N_6  and  C_7
REMARK    4  A    between atoms: C_7  and  C_8
REMARK    5  A    between atoms: C_19  and  C_20
REMARK    6  A    between atoms: C_24  and  S_25
REMARK    7  A    between atoms: S_25  and  N_28
REMARK    8  A    between atoms: N_28  and  C_29
REMARK    9  A    between atoms: N_28  and  C_30
REMARK                            x       y       z     vdW  Elec       q    Type
REMARK                         _______ _______ _______ _____ _____    ______ ____
ROOT
ATOM      1  C   UNL     1       1.897  10.391  17.954  0.00  0.00    +0.000 C 
ATOM      2  C   UNL     1       2.109   9.001  18.467  0.00  0.00    +0.000 A 
ATOM      3  N   UNL     1       2.889   8.097  17.818  0.00  0.00    +0.000 NA
ATOM      4  C   UNL     1       2.850   7.001  18.603  0.00  0.00    +0.000 A 
ATOM      5  C   UNL     1       3.516   5.785  18.388  0.00  0.00    +0.000 A 
ATOM      6  C   UNL     1       3.282   4.767  19.344  0.00  0.00    +0.000 A 
ATOM      7  C   UNL     1       2.449   5.013  20.448  0.00  0.00    +0.000 A 
ATOM      8 CL   UNL     1       2.120   3.745  21.612  0.00  0.00    +0.000 Cl
ATOM      9  N   UNL     1       1.891   6.240  20.610  0.00  0.00    +0.000 NA
ATOM     10  N   UNL     1       2.103   7.186  19.697  0.00  0.00    +0.000 N 
ATOM     11  C   UNL     1       1.641   8.447  19.665  0.00  0.00    +0.000 A 
ENDROOT
BRANCH  11  12
ATOM     12  C   UNL     1       0.857   9.103  20.755  0.00  0.00    +0.000 A 
ATOM     13  C   UNL     1       0.126   8.373  21.711  0.00  0.00    +0.000 A 
ATOM     14  C   UNL     1      -0.637   9.030  22.681  0.00  0.00    +0.000 A 
ATOM     15  C   UNL     1      -0.706  10.423  22.695  0.00  0.00    +0.000 A 
ATOM     16  C   UNL     1      -0.003  11.163  21.743  0.00  0.00    +0.000 A 
ATOM     17  C   UNL     1       0.783  10.510  20.791  0.00  0.00    +0.000 A 
BRANCH  16  18
ATOM     18  S   UNL     1      -0.166  12.946  21.681  0.00  0.00    +0.000 S 
ATOM     19  O   UNL     1      -0.809  13.535  22.945  0.00  0.00    +0.000 OA
ATOM     20  O   UNL     1       1.185  13.679  21.648  0.00  0.00    +0.000 OA
BRANCH  18  21
ATOM     21  N   UNL     1      -1.108  13.610  20.324  0.00  0.00    +0.000 NA
ATOM     22  C   UNL     1      -0.252  13.735  19.138  0.00  0.00    +0.000 C 
ATOM     23  C   UNL     1      -2.230  12.708  20.038  0.00  0.00    +0.000 C 
ENDBRANCH  18  21
ENDBRANCH  16  18
ENDBRANCH  11  12
BRANCH   5  24
ATOM     24  N   UNL     1       4.381   5.609  17.262  0.00  0.00    +0.000 N 
ATOM     25  H   UNL     1       5.005   6.386  16.987  0.00  0.00    +0.000 HD
BRANCH  24  26
ATOM     26  C   UNL     1       4.526   4.351  16.548  0.00  0.00    +0.000 C 
BRANCH  26  27
ATOM     27  C   UNL     1       5.561   4.478  15.457  0.00  0.00    +0.000 A 
ATOM     28  C   UNL     1       5.399   3.821  14.225  0.00  0.00    +0.000 A 
ATOM     29  C   UNL     1       6.363   3.965  13.223  0.00  0.00    +0.000 A 
ATOM     30  C   UNL     1       7.477   4.773  13.458  0.00  0.00    +0.000 A 
ATOM     31  N   UNL     1       7.621   5.404  14.652  0.00  0.00    +0.000 NA
ATOM     32  C   UNL     1       6.701   5.274  15.646  0.00  0.00    +0.000 A 
ENDBRANCH  26  27
ENDBRANCH  24  26
ENDBRANCH   5  24
TORSDOF 6
ENDMDL
MODEL 3
REMARK VINA RESULT:      -8.5      1.440      1.959
REMARK  Name = 
REMARK  9 active torsions:
REMARK  status: ('A' for Active; 'I' for Inactive)
REMARK    1  A    between atoms: C_1  and  C_2
REMARK    2  A    between atoms: C_5  and  N_6
REMARK    3  A    between atoms: N_6  and  C_7
REMARK    4  A    between atoms: C_7  and  C_8
REMARK    5  A    between atoms: C_19  and  C_20
REMARK    6  A    between atoms: C_24  and  S_25
REMARK    7  A    between atoms: S_25  and  N_28
REMARK    8  A    between atoms: N_28  and  C_29
REMARK    9  A    between atoms: N_28  and  C_30
REMARK                            x       y       z     vdW  Elec       q    Type
REMARK                         _______ _______ _______ _____ _____    ______ ____
ROOT
ATOM      1  C   UNL     1       2.102  10.018  17.754  0.00  0.00    +0.000 C 
ATOM      2  C   UNL     1       2.170   8.637  18.327  0.00  0.00    +0.000 A 
ATOM      3  N   UNL     1       2.811   7.618  17.696  0.00  0.00    +0.000 NA
ATOM      4  C   UNL     1       2.676   6.570  18.534  0.00  0.00    +0.000 A 
ATOM      5  C   UNL     1       3.186   5.275  18.356  0.00  0.00    +0.000 A 
ATOM      6  C   UNL     1       2.872   4.335  19.368  0.00  0.00    +0.000 A 
ATOM      7  C   UNL     1       2.119   4.728  20.487  0.00  0.00    +0.000 A 
ATOM      8 CL   UNL     1       1.691   3.561  21.722  0.00  0.00    +0.000 Cl
ATOM      9  N   UNL     1       1.716   6.018  20.609  0.00  0.00    +0.000 NA
ATOM     10  N   UNL     1       2.001   6.891  19.643  0.00  0.00    +0.000 N 
ATOM     11  C   UNL     1       1.689   8.195  19.566  0.00  0.00    +0.000 A 
ENDROOT
BRANCH  11  12
ATOM     12  C   UNL     1       1.032   8.988  20.649  0.00  0.00    +0.000 A 
ATOM     13  C   UNL     1       1.043   8.586  21.998  0.00  0.00    +0.000 A 
ATOM     14  C   UNL     1       0.369   9.331  22.970  0.00  0.00    +0.000 A 
ATOM     15  C   UNL     1      -0.350  10.471  22.609  0.00  0.00    +0.000 A 
ATOM     16  C   UNL     1      -0.386  10.874  21.273  0.00  0.00    +0.000 A 
ATOM     17  C   UNL     1       0.309  10.148  20.305  0.00  0.00    +0.000 A 
BRANCH  16  18
ATOM     18  S   UNL     1      -1.390  12.272  20.777  0.00  0.00    +0.000 S 
ATOM     19  O   UNL     1      -0.596  13.342  20.013  0.00  0.00    +0.000 OA
ATOM     20  O   UNL     1      -2.479  11.906  19.756  0.00  0.00    +0.000 OA
BRANCH  18  21
ATOM     21  N   UNL     1      -2.227  13.152  22.080  0.00  0.00    +0.000 NA
ATOM     22  C   UNL     1      -2.274  14.584  21.762  0.00  0.00    +0.000 C 
ATOM     23  C   UNL     1      -3.591  12.624  22.210  0.00  0.00    +0.000 C 
ENDBRANCH  18  21
ENDBRANCH  16  18
ENDBRANCH  11  12
BRANCH   5  24
ATOM     24  N   UNL     1       3.977   4.947  17.211  0.00  0.00    +0.000 N 
ATOM     25  H   UNL     1       3.600   5.152  16.270  0.00  0.00    +0.000 HD
BRANCH  24  26
ATOM     26  C   UNL     1       5.341   4.451  17.290  0.00  0.00    +0.000 C 
BRANCH  26  27
ATOM     27  C   UNL     1       6.296   5.575  17.609  0.00  0.00    +0.000 A 
ATOM     28  C   UNL     1       7.227   5.460  18.656  0.00  0.00    +0.000 A 
ATOM     29  C   UNL     1       8.111   6.508  18.925  0.00  0.00    +0.000 A 
ATOM     30  C   UNL     1       8.064   7.661  18.138  0.00  0.00    +0.000 A 
ATOM     31  N   UNL     1       7.161   7.759  17.127  0.00  0.00    +0.000 NA
ATOM     32  C   UNL     1       6.285   6.756  16.850  0.00  0.00    +0.000 A 
ENDBRANCH  26  27
ENDBRANCH  24  26
ENDBRANCH   5  24
TORSDOF 6
ENDMDL
MODEL 4
REMARK VINA RESULT:      -8.4      1.423      1.905
REMARK  Name = 
REMARK  9 active torsions:
REMARK  status: ('A' for Active; 'I' for Inactive)
REMARK    1  A    between atoms: C_1  and  C_2
REMARK    2  A    between atoms: C_5  and  N_6
REMARK    3  A    between atoms: N_6  and  C_7
REMARK    4  A    between atoms: C_7  and  C_8
REMARK    5  A    between atoms: C_19  and  C_20
REMARK    6  A    between atoms: C_24  and  S_25
REMARK    7  A    between atoms: S_25  and  N_28
REMARK    8  A    between atoms: N_28  and  C_29
REMARK    9  A    between atoms: N_28  and  C_30
REMARK                            x       y       z     vdW  Elec       q    Type
REMARK                         _______ _______ _______ _____ _____    ______ ____
ROOT
ATOM      1  C   UNL     1       1.984  10.173  17.814  0.00  0.00    +0.000 C 
ATOM      2  C   UNL     1       2.072   8.776  18.344  0.00  0.00    +0.000 A 
ATOM      3  N   UNL     1       2.698   7.779  17.666  0.00  0.00    +0.000 NA
ATOM      4  C   UNL     1       2.591   6.706  18.476  0.00  0.00    +0.000 A 
ATOM      5  C   UNL     1       3.099   5.419  18.245  0.00  0.00    +0.000 A 
ATOM      6  C   UNL     1       2.818   4.449  19.238  0.00  0.00    +0.000 A 
ATOM      7  C   UNL     1       2.096   4.806  20.389  0.00  0.00    +0.000 A 
ATOM      8 CL   UNL     1       1.708   3.602  21.602  0.00  0.00    +0.000 Cl
ATOM      9  N   UNL     1       1.692   6.090  20.560  0.00  0.00    +0.000 NA
ATOM     10  N   UNL     1       1.947   6.992  19.613  0.00  0.00    +0.000 N 
ATOM     11  C   UNL     1       1.629   8.297  19.583  0.00  0.00    +0.000 A 
ENDROOT
BRANCH  11  12
ATOM     12  C   UNL     1       1.001   9.055  20.707  0.00  0.00    +0.000 A 
ATOM     13  C   UNL     1       1.165   8.688  22.057  0.00  0.00    +0.000 A 
ATOM     14  C   UNL     1       0.515   9.395  23.072  0.00  0.00    +0.000 A 
ATOM     15  C   UNL     1      -0.330  10.459  22.758  0.00  0.00    +0.000 A 
ATOM     16  C   UNL     1      -0.518  10.825  21.425  0.00  0.00    +0.000 A 
ATOM     17  C   UNL     1       0.152  10.140  20.410  0.00  0.00    +0.000 A 
BRANCH  16  18
ATOM     18  S   UNL     1      -1.681  12.119  20.997  0.00  0.00    +0.000 S 
ATOM     19  O   UNL     1      -1.009  13.484  20.780  0.00  0.00    +0.000 OA
ATOM     20  O   UNL     1      -2.371  11.893  19.642  0.00  0.00    +0.000 OA
BRANCH  18  21
ATOM     21  N   UNL     1      -2.993  12.425  22.161  0.00  0.00    +0.000 NA
ATOM     22  C   UNL     1      -2.599  13.495  23.086  0.00  0.00    +0.000 C 
ATOM     23  C   UNL     1      -4.199  12.822  21.424  0.00  0.00    +0.000 C 
ENDBRANCH  18  21
ENDBRANCH  16  18
ENDBRANCH  11  12
BRANCH   5  24
ATOM     24  N   UNL     1       3.858   5.128  17.069  0.00  0.00    +0.000 N 
ATOM     25  H   UNL     1       3.541   5.514  16.164  0.00  0.00    +0.000 HD
BRANCH  24  26
ATOM     26  C   UNL     1       5.125   4.416  17.084  0.00  0.00    +0.000 C 
BRANCH  26  27
ATOM     27  C   UNL     1       6.212   5.282  17.672  0.00  0.00    +0.000 A 
ATOM     28  C   UNL     1       6.632   6.457  17.024  0.00  0.00    +0.000 A 
ATOM     29  C   UNL     1       7.630   7.252  17.594  0.00  0.00    +0.000 A 
ATOM     30  C   UNL     1       8.194   6.871  18.813  0.00  0.00    +0.000 A 
ATOM     31  N   UNL     1       7.778   5.734  19.430  0.00  0.00    +0.000 NA
ATOM     32  C   UNL     1       6.814   4.939  18.893  0.00  0.00    +0.000 A 
ENDBRANCH  26  27
ENDBRANCH  24  26
ENDBRANCH   5  24
TORSDOF 6
ENDMDL
MODEL 5
REMARK VINA RESULT:      -8.4      1.623      1.989
REMARK  Name = 
REMARK  9 active torsions:
REMARK  status: ('A' for Active; 'I' for Inactive)
REMARK    1  A    between atoms: C_1  and  C_2
REMARK    2  A    between atoms: C_5  and  N_6
REMARK    3  A    between atoms: N_6  and  C_7
REMARK    4  A    between atoms: C_7  and  C_8
REMARK    5  A    between atoms: C_19  and  C_20
REMARK    6  A    between atoms: C_24  and  S_25
REMARK    7  A    between atoms: S_25  and  N_28
REMARK    8  A    between atoms: N_28  and  C_29
REMARK    9  A    between atoms: N_28  and  C_30
REMARK                            x       y       z     vdW  Elec       q    Type
REMARK                         _______ _______ _______ _____ _____    ______ ____
ROOT
ATOM      1  C   UNL     1       3.043   9.143  17.471  0.00  0.00    +0.000 C 
ATOM      2  C   UNL     1       2.958   7.836  18.196  0.00  0.00    +0.000 A 
ATOM      3  N   UNL     1       3.709   6.759  17.843  0.00  0.00    +0.000 NA
ATOM      4  C   UNL     1       3.373   5.812  18.742  0.00  0.00    +0.000 A 
ATOM      5  C   UNL     1       3.889   4.510  18.829  0.00  0.00    +0.000 A 
ATOM      6  C   UNL     1       3.342   3.687  19.844  0.00  0.00    +0.000 A 
ATOM      7  C   UNL     1       2.364   4.197  20.715  0.00  0.00    +0.000 A 
ATOM      8 CL   UNL     1       1.653   3.173  21.946  0.00  0.00    +0.000 Cl
ATOM      9  N   UNL     1       1.964   5.489  20.597  0.00  0.00    +0.000 NA
ATOM     10  N   UNL     1       2.472   6.250  19.628  0.00  0.00    +0.000 N 
ATOM     11  C   UNL     1       2.206   7.533  19.337  0.00  0.00    +0.000 A 
ENDROOT
BRANCH  11  12
ATOM     12  C   UNL     1       1.336   8.437  20.149  0.00  0.00    +0.000 A 
ATOM     13  C   UNL     1       1.223   8.328  21.549  0.00  0.00    +0.000 A 
ATOM     14  C   UNL     1       0.356   9.160  22.262  0.00  0.00    +0.000 A 
ATOM     15  C   UNL     1      -0.433  10.093  21.590  0.00  0.00    +0.000 A 
ATOM     16  C   UNL     1      -0.348  10.204  20.201  0.00  0.00    +0.000 A 
ATOM     17  C   UNL     1       0.539   9.394  19.489  0.00  0.00    +0.000 A 
BRANCH  16  18
ATOM     18  S   UNL     1      -1.430  11.322  19.313  0.00  0.00    +0.000 S 
ATOM     19  O   UNL     1      -2.196  12.279  20.239  0.00  0.00    +0.000 OA
ATOM     20  O   UNL     1      -0.674  12.305  18.405  0.00  0.00    +0.000 OA
BRANCH  18  21
ATOM     21  N   UNL     1      -2.674  10.572  18.283  0.00  0.00    +0.000 NA
ATOM     22  C   UNL     1      -3.799  11.499  18.108  0.00  0.00    +0.000 C 
ATOM     23  C   UNL     1      -2.082  10.253  16.978  0.00  0.00    +0.000 C 
ENDBRANCH  18  21
ENDBRANCH  16  18
ENDBRANCH  11  12
BRANCH   5  24
ATOM     24  N   UNL     1       4.911   4.062  17.935  0.00  0.00    +0.000 N 
ATOM     25  H   UNL     1       5.887   4.026  18.272  0.00  0.00    +0.000 HD
BRANCH  24  26
ATOM     26  C   UNL     1       4.644   3.535  16.606  0.00  0.00    +0.000 C 
BRANCH  26  27
ATOM     27  C   UNL     1       5.655   4.059  15.616  0.00  0.00    +0.000 A 
ATOM     28  C   UNL     1       5.584   3.710  14.256  0.00  0.00    +0.000 A 
ATOM     29  C   UNL     1       6.522   4.219  13.353  0.00  0.00    +0.000 A 
ATOM     30  C   UNL     1       7.518   5.081  13.816  0.00  0.00    +0.000 A 
ATOM     31  N   UNL     1       7.574   5.412  15.133  0.00  0.00    +0.000 NA
ATOM     32  C   UNL     1       6.678   4.925  16.033  0.00  0.00    +0.000 A 
ENDBRANCH  26  27
ENDBRANCH  24  26
ENDBRANCH   5  24
TORSDOF 6
ENDMDL
MODEL 6
REMARK VINA RESULT:      -8.4      1.818      2.287
REMARK  Name = 
REMARK  9 active torsions:
REMARK  status: ('A' for Active; 'I' for Inactive)
REMARK    1  A    between atoms: C_1  and  C_2
REMARK    2  A    between atoms: C_5  and  N_6
REMARK    3  A    between atoms: N_6  and  C_7
REMARK    4  A    between atoms: C_7  and  C_8
REMARK    5  A    between atoms: C_19  and  C_20
REMARK    6  A    between atoms: C_24  and  S_25
REMARK    7  A    between atoms: S_25  and  N_28
REMARK    8  A    between atoms: N_28  and  C_29
REMARK    9  A    between atoms: N_28  and  C_30
REMARK                            x       y       z     vdW  Elec       q    Type
REMARK                         _______ _______ _______ _____ _____    ______ ____
ROOT
ATOM      1  C   UNL     1       1.913  10.211  17.846  0.00  0.00    +0.000 C 
ATOM      2  C   UNL     1       2.054   8.822  18.386  0.00  0.00    +0.000 A 
ATOM      3  N   UNL     1       2.722   7.846  17.716  0.00  0.00    +0.000 NA
ATOM      4  C   UNL     1       2.653   6.775  18.534  0.00  0.00    +0.000 A 
ATOM      5  C   UNL     1       3.213   5.507  18.314  0.00  0.00    +0.000 A 
ATOM      6  C   UNL     1       2.966   4.533  19.311  0.00  0.00    +0.000 A 
ATOM      7  C   UNL     1       2.226   4.869  20.458  0.00  0.00    +0.000 A 
ATOM      8 CL   UNL     1       1.881   3.659  21.677  0.00  0.00    +0.000 Cl
ATOM      9  N   UNL     1       1.771   6.138  20.618  0.00  0.00    +0.000 NA
ATOM     10  N   UNL     1       1.994   7.043  19.666  0.00  0.00    +0.000 N 
ATOM     11  C   UNL     1       1.625   8.334  19.626  0.00  0.00    +0.000 A 
ENDROOT
BRANCH  11  12
ATOM     12  C   UNL     1       0.963   9.074  20.743  0.00  0.00    +0.000 A 
ATOM     13  C   UNL     1       1.051   8.661  22.086  0.00  0.00    +0.000 A 
ATOM     14  C   UNL     1       0.371   9.353  23.091  0.00  0.00    +0.000 A 
ATOM     15  C   UNL     1      -0.430  10.450  22.772  0.00  0.00    +0.000 A 
ATOM     16  C   UNL     1      -0.542  10.863  21.443  0.00  0.00    +0.000 A 
ATOM     17  C   UNL     1       0.158  10.191  20.440  0.00  0.00    +0.000 A 
BRANCH  16  18
ATOM     18  S   UNL     1      -1.648  12.202  21.002  0.00  0.00    +0.000 S 
ATOM     19  O   UNL     1      -2.315  12.004  19.632  0.00  0.00    +0.000 OA
ATOM     20  O   UNL     1      -2.869  12.312  21.929  0.00  0.00    +0.000 OA
BRANCH  18  21
ATOM     21  N   UNL     1      -0.937  13.834  20.944  0.00  0.00    +0.000 NA
ATOM     22  C   UNL     1      -0.507  14.236  22.289  0.00  0.00    +0.000 C 
ATOM     23  C   UNL     1       0.215  13.818  20.035  0.00  0.00    +0.000 C 
ENDBRANCH  18  21
ENDBRANCH  16  18
ENDBRANCH  11  12
BRANCH   5  24
ATOM     24  N   UNL     1       3.987   5.239  17.142  0.00  0.00    +0.000 N 
ATOM     25  H   UNL     1       3.642   5.578  16.228  0.00  0.00    +0.000 HD
BRANCH  24  26
ATOM     26  C   UNL     1       5.302   4.618  17.170  0.00  0.00    +0.000 C 
BRANCH  26  27
ATOM     27  C   UNL     1       6.344   5.607  17.633  0.00  0.00    +0.000 A 
ATOM     28  C   UNL     1       6.498   6.850  16.994  0.00  0.00    +0.000 A 
ATOM     29  C   UNL     1       7.459   7.756  17.448  0.00  0.00    +0.000 A 
ATOM     30  C   UNL     1       8.255   7.417  18.544  0.00  0.00    +0.000 A 
ATOM     31  N   UNL     1       8.095   6.213  19.154  0.00  0.00    +0.000 NA
ATOM     32  C   UNL     1       7.171   5.310  18.727  0.00  0.00    +0.000 A 
ENDBRANCH  26  27
ENDBRANCH  24  26
ENDBRANCH   5  24
TORSDOF 6
ENDMDL
MODEL 7
REMARK VINA RESULT:      -8.4      3.565      4.552
REMARK  Name = 
REMARK  9 active torsions:
REMARK  status: ('A' for Active; 'I' for Inactive)
REMARK    1  A    between atoms: C_1  and  C_2
REMARK    2  A    between atoms: C_5  and  N_6
REMARK    3  A    between atoms: N_6  and  C_7
REMARK    4  A    between atoms: C_7  and  C_8
REMARK    5  A    between atoms: C_19  and  C_20
REMARK    6  A    between atoms: C_24  and  S_25
REMARK    7  A    between atoms: S_25  and  N_28
REMARK    8  A    between atoms: N_28  and  C_29
REMARK    9  A    between atoms: N_28  and  C_30
REMARK                            x       y       z     vdW  Elec       q    Type
REMARK                         _______ _______ _______ _____ _____    ______ ____
ROOT
ATOM      1  C   UNL     1      -0.532   9.534  22.466  0.00  0.00    +0.000 C 
ATOM      2  C   UNL     1       0.375   8.886  21.467  0.00  0.00    +0.000 A 
ATOM      3  N   UNL     1       0.992   7.699  21.707  0.00  0.00    +0.000 NA
ATOM      4  C   UNL     1       1.678   7.446  20.574  0.00  0.00    +0.000 A 
ATOM      5  C   UNL     1       2.469   6.320  20.300  0.00  0.00    +0.000 A 
ATOM      6  C   UNL     1       3.122   6.306  19.044  0.00  0.00    +0.000 A 
ATOM      7  C   UNL     1       2.934   7.364  18.139  0.00  0.00    +0.000 A 
ATOM      8 CL   UNL     1       3.772   7.375  16.600  0.00  0.00    +0.000 Cl
ATOM      9  N   UNL     1       2.103   8.388  18.462  0.00  0.00    +0.000 NA
ATOM     10  N   UNL     1       1.507   8.400  19.654  0.00  0.00    +0.000 N 
ATOM     11  C   UNL     1       0.666   9.314  20.167  0.00  0.00    +0.000 A 
ENDROOT
BRANCH  11  12
ATOM     12  C   UNL     1       0.118  10.490  19.425  0.00  0.00    +0.000 A 
ATOM     13  C   UNL     1       0.736  11.755  19.443  0.00  0.00    +0.000 A 
ATOM     14  C   UNL     1       0.158  12.841  18.778  0.00  0.00    +0.000 A 
ATOM     15  C   UNL     1      -1.057  12.690  18.111  0.00  0.00    +0.000 A 
ATOM     16  C   UNL     1      -1.693  11.448  18.098  0.00  0.00    +0.000 A 
ATOM     17  C   UNL     1      -1.104  10.355  18.736  0.00  0.00    +0.000 A 
BRANCH  16  18
ATOM     18  S   UNL     1      -3.304  11.263  17.337  0.00  0.00    +0.000 S 
ATOM     19  O   UNL     1      -3.288  11.524  15.823  0.00  0.00    +0.000 OA
ATOM     20  O   UNL     1      -3.844   9.825  17.398  0.00  0.00    +0.000 OA
BRANCH  18  21
ATOM     21  N   UNL     1      -4.607  12.295  17.975  0.00  0.00    +0.000 NA
ATOM     22  C   UNL     1      -5.907  11.803  17.503  0.00  0.00    +0.000 C 
ATOM     23  C   UNL     1      -4.564  12.262  19.442  0.00  0.00    +0.000 C 
ENDBRANCH  18  21
ENDBRANCH  16  18
ENDBRANCH  11  12
BRANCH   5  24
ATOM     24  N   UNL     1       2.590   5.257  21.250  0.00  0.00    +0.000 N 
ATOM     25  H   UNL     1       3.166   5.409  22.095  0.00  0.00    +0.000 HD
BRANCH  24  26
ATOM     26  C   UNL     1       1.851   4.009  21.160  0.00  0.00    +0.000 C 
BRANCH  26  27
ATOM     27  C   UNL     1       2.425   3.130  20.075  0.00  0.00    +0.000 A 
ATOM     28  C   UNL     1       1.733   2.922  18.870  0.00  0.00    +0.000 A 
ATOM     29  C   UNL     1       2.291   2.116  17.873  0.00  0.00    +0.000 A 
ATOM     30  C   UNL     1       3.541   1.532  18.086  0.00  0.00    +0.000 A 
ATOM     31  N   UNL     1       4.201   1.743  19.255  0.00  0.00    +0.000 NA
ATOM     32  C   UNL     1       3.677   2.516  20.244  0.00  0.00    +0.000 A 
ENDBRANCH  26  27
ENDBRANCH  24  26
ENDBRANCH   5  24
TORSDOF 6
ENDMDL
MODEL 8
REMARK VINA RESULT:      -8.3      1.650      2.046
REMARK  Name = 
REMARK  9 active torsions:
REMARK  status: ('A' for Active; 'I' for Inactive)
REMARK    1  A    between atoms: C_1  and  C_2
REMARK    2  A    between atoms: C_5  and  N_6
REMARK    3  A    between atoms: N_6  and  C_7
REMARK    4  A    between atoms: C_7  and  C_8
REMARK    5  A    between atoms: C_19  and  C_20
REMARK    6  A    between atoms: C_24  and  S_25
REMARK    7  A    between atoms: S_25  and  N_28
REMARK    8  A    between atoms: N_28  and  C_29
REMARK    9  A    between atoms: N_28  and  C_30
REMARK                            x       y       z     vdW  Elec       q    Type
REMARK                         _______ _______ _______ _____ _____    ______ ____
ROOT
ATOM      1  C   UNL     1       1.931   9.807  17.839  0.00  0.00    +0.000 C 
ATOM      2  C   UNL     1       2.066   8.445  18.444  0.00  0.00    +0.000 A 
ATOM      3  N   UNL     1       2.752   7.442  17.835  0.00  0.00    +0.000 NA
ATOM      4  C   UNL     1       2.669   6.410  18.699  0.00  0.00    +0.000 A 
ATOM      5  C   UNL     1       3.238   5.136  18.549  0.00  0.00    +0.000 A 
ATOM      6  C   UNL     1       2.974   4.207  19.585  0.00  0.00    +0.000 A 
ATOM      7  C   UNL     1       2.209   4.592  20.699  0.00  0.00    +0.000 A 
ATOM      8 CL   UNL     1       1.842   3.437  21.965  0.00  0.00    +0.000 Cl
ATOM      9  N   UNL     1       1.746   5.865  20.792  0.00  0.00    +0.000 NA
ATOM     10  N   UNL     1       1.985   6.726  19.803  0.00  0.00    +0.000 N 
ATOM     11  C   UNL     1       1.613   8.012  19.696  0.00  0.00    +0.000 A 
ENDROOT
BRANCH  11  12
ATOM     12  C   UNL     1       0.925   8.800  20.764  0.00  0.00    +0.000 A 
ATOM     13  C   UNL     1       0.194   8.194  21.804  0.00  0.00    +0.000 A 
ATOM     14  C   UNL     1      -0.479   8.972  22.750  0.00  0.00    +0.000 A 
ATOM     15  C   UNL     1      -0.457  10.364  22.659  0.00  0.00    +0.000 A 
ATOM     16  C   UNL     1       0.248  10.981  21.625  0.00  0.00    +0.000 A 
ATOM     17  C   UNL     1       0.944  10.207  20.695  0.00  0.00    +0.000 A 
BRANCH  16  18
ATOM     18  S   UNL     1       0.198  12.761  21.431  0.00  0.00    +0.000 S 
ATOM     19  O   UNL     1      -0.510  13.206  20.142  0.00  0.00    +0.000 OA
ATOM     20  O   UNL     1      -0.644  13.466  22.507  0.00  0.00    +0.000 OA
BRANCH  18  21
ATOM     21  N   UNL     1       1.767  13.603  21.418  0.00  0.00    +0.000 NA
ATOM     22  C   UNL     1       2.476  13.314  20.166  0.00  0.00    +0.000 C 
ATOM     23  C   UNL     1       1.532  15.048  21.538  0.00  0.00    +0.000 C 
ENDBRANCH  18  21
ENDBRANCH  16  18
ENDBRANCH  11  12
BRANCH   5  24
ATOM     24  N   UNL     1       4.038   4.817  17.407  0.00  0.00    +0.000 N 
ATOM     25  H   UNL     1       3.603   4.847  16.470  0.00  0.00    +0.000 HD
BRANCH  24  26
ATOM     26  C   UNL     1       5.470   4.570  17.471  0.00  0.00    +0.000 C 
BRANCH  26  27
ATOM     27  C   UNL     1       6.077   4.617  16.090  0.00  0.00    +0.000 A 
ATOM     28  C   UNL     1       5.456   3.977  15.003  0.00  0.00    +0.000 A 
ATOM     29  C   UNL     1       6.028   4.046  13.730  0.00  0.00    +0.000 A 
ATOM     30  C   UNL     1       7.213   4.763  13.551  0.00  0.00    +0.000 A 
ATOM     31  N   UNL     1       7.802   5.379  14.610  0.00  0.00    +0.000 NA
ATOM     32  C   UNL     1       7.270   5.321  15.860  0.00  0.00    +0.000 A 
ENDBRANCH  26  27
ENDBRANCH  24  26
ENDBRANCH   5  24
TORSDOF 6
ENDMDL
MODEL 9
REMARK VINA RESULT:      -8.2      1.741      2.306
REMARK  Name = 
REMARK  9 active torsions:
REMARK  status: ('A' for Active; 'I' for Inactive)
REMARK    1  A    between atoms: C_1  and  C_2
REMARK    2  A    between atoms: C_5  and  N_6
REMARK    3  A    between atoms: N_6  and  C_7
REMARK    4  A    between atoms: C_7  and  C_8
REMARK    5  A    between atoms: C_19  and  C_20
REMARK    6  A    between atoms: C_24  and  S_25
REMARK    7  A    between atoms: S_25  and  N_28
REMARK    8  A    between atoms: N_28  and  C_29
REMARK    9  A    between atoms: N_28  and  C_30
REMARK                            x       y       z     vdW  Elec       q    Type
REMARK                         _______ _______ _______ _____ _____    ______ ____
ROOT
ATOM      1  C   UNL     1       2.148   9.731  17.670  0.00  0.00    +0.000 C 
ATOM      2  C   UNL     1       2.266   8.380  18.304  0.00  0.00    +0.000 A 
ATOM      3  N   UNL     1       2.971   7.368  17.733  0.00  0.00    +0.000 NA
ATOM      4  C   UNL     1       2.864   6.351  18.612  0.00  0.00    +0.000 A 
ATOM      5  C   UNL     1       3.439   5.076  18.502  0.00  0.00    +0.000 A 
ATOM      6  C   UNL     1       3.144   4.165  19.546  0.00  0.00    +0.000 A 
ATOM      7  C   UNL     1       2.344   4.568  20.628  0.00  0.00    +0.000 A 
ATOM      8 CL   UNL     1       1.939   3.434  21.902  0.00  0.00    +0.000 Cl
ATOM      9  N   UNL     1       1.877   5.841  20.684  0.00  0.00    +0.000 NA
ATOM     10  N   UNL     1       2.145   6.685  19.689  0.00  0.00    +0.000 N 
ATOM     11  C   UNL     1       1.774   7.969  19.548  0.00  0.00    +0.000 A 
ENDROOT
BRANCH  11  12
ATOM     12  C   UNL     1       1.053   8.773  20.580  0.00  0.00    +0.000 A 
ATOM     13  C   UNL     1       0.342   8.185  21.644  0.00  0.00    +0.000 A 
ATOM     14  C   UNL     1      -0.364   8.975  22.555  0.00  0.00    +0.000 A 
ATOM     15  C   UNL     1      -0.396  10.362  22.405  0.00  0.00    +0.000 A 
ATOM     16  C   UNL     1       0.288  10.961  21.346  0.00  0.00    +0.000 A 
ATOM     17  C   UNL     1       1.017  10.176  20.451  0.00  0.00    +0.000 A 
BRANCH  16  18
ATOM     18  S   UNL     1       0.170  12.728  21.077  0.00  0.00    +0.000 S 
ATOM     19  O   UNL     1       1.273  13.521  21.795  0.00  0.00    +0.000 OA
ATOM     20  O   UNL     1       0.397  13.137  19.613  0.00  0.00    +0.000 OA
BRANCH  18  21
ATOM     21  N   UNL     1      -1.356  13.506  21.564  0.00  0.00    +0.000 NA
ATOM     22  C   UNL     1      -2.494  12.721  21.070  0.00  0.00    +0.000 C 
ATOM     23  C   UNL     1      -1.403  13.586  23.029  0.00  0.00    +0.000 C 
ENDBRANCH  18  21
ENDBRANCH  16  18
ENDBRANCH  11  12
BRANCH   5  24
ATOM     24  N   UNL     1       4.274   4.739  17.391  0.00  0.00    +0.000 N 
ATOM     25  H   UNL     1       3.892   4.831  16.435  0.00  0.00    +0.000 HD
BRANCH  24  26
ATOM     26  C   UNL     1       5.679   4.387  17.518  0.00  0.00    +0.000 C 
BRANCH  26  27
ATOM     27  C   UNL     1       6.522   5.627  17.692  0.00  0.00    +0.000 A 
ATOM     28  C   UNL     1       7.432   5.741  18.757  0.00  0.00    +0.000 A 
ATOM     29  C   UNL     1       8.213   6.892  18.891  0.00  0.00    +0.000 A 
ATOM     30  C   UNL     1       8.084   7.918  17.952  0.00  0.00    +0.000 A 
ATOM     31  N   UNL     1       7.202   7.794  16.926  0.00  0.00    +0.000 NA
ATOM     32  C   UNL     1       6.425   6.688  16.778  0.00  0.00    +0.000 A 
ENDBRANCH  26  27
ENDBRANCH  24  26
ENDBRANCH   5  24
TORSDOF 6
ENDMDL
