MODEL 1
REMARK VINA RESULT:      -7.7      0.000      0.000
REMARK  Name = 
REMARK  6 active torsions:
REMARK  status: ('A' for Active; 'I' for Inactive)
REMARK    1  A    between atoms: C_1  and  O_2
REMARK    2  A    between atoms: O_2  and  C_3
REMARK    3  A    between atoms: C_3  and  C_4
REMARK    4  A    between atoms: C_7  and  C_8
REMARK    5  A    between atoms: C_8  and  O_9
REMARK    6  A    between atoms: O_9  and  C_10
REMARK                            x       y       z     vdW  Elec       q    Type
REMARK                         _______ _______ _______ _____ _____    ______ ____
ROOT
ATOM      1  C   UNL     1       5.350   4.068  17.689  0.00  0.00    +0.000 A 
ATOM      2  N   UNL     1       6.022   4.556  18.794  0.00  0.00    +0.000 N 
ATOM      3  C   UNL     1       7.199   5.236  18.671  0.00  0.00    +0.000 A 
ATOM      4  N   UNL     1       7.778   5.571  19.848  0.00  0.00    +0.000 N 
ATOM      5  N   UNL     1       7.765   5.553  17.544  0.00  0.00    +0.000 NA
ATOM      6  C   UNL     1       7.110   5.118  16.432  0.00  0.00    +0.000 A 
ATOM      7  N   UNL     1       7.482   5.262  15.197  0.00  0.00    +0.000 NA
ATOM      8  C   UNL     1       6.485   4.594  14.499  0.00  0.00    +0.000 A 
ATOM      9  N   UNL     1       5.518   4.057  15.189  0.00  0.00    +0.000 NA
ATOM     10  C   UNL     1       5.861   4.356  16.481  0.00  0.00    +0.000 A 
ATOM     11  H   UNL     1       5.741   4.165  19.682  0.00  0.00    +0.000 HD
ATOM     12  H   UNL     1       7.149   5.922  20.559  0.00  0.00    +0.000 HD
ATOM     13  H   UNL     1       8.559   6.205  19.700  0.00  0.00    +0.000 HD
ENDROOT
BRANCH   1  14
ATOM     14  O   UNL     1       4.227   3.311  17.957  0.00  0.00    +0.000 OA
BRANCH  14  15
ATOM     15  C   UNL     1       2.990   3.878  17.513  0.00  0.00    +0.000 C 
BRANCH  15  19
ATOM     16  C   UNL     1       1.854   7.060  20.204  0.00  0.00    +0.000 A 
ATOM     17  C   UNL     1       1.694   5.719  20.581  0.00  0.00    +0.000 A 
ATOM     18  C   UNL     1       2.036   4.689  19.705  0.00  0.00    +0.000 A 
ATOM     19  C   UNL     1       2.555   4.983  18.439  0.00  0.00    +0.000 A 
ATOM     20  C   UNL     1       2.706   6.321  18.055  0.00  0.00    +0.000 A 
ATOM     21  C   UNL     1       2.363   7.350  18.931  0.00  0.00    +0.000 A 
BRANCH  16  22
ATOM     22  C   UNL     1       1.466   8.168  21.144  0.00  0.00    +0.000 C 
BRANCH  22  24
ATOM     23  C   UNL     1      -0.096   9.922  21.108  0.00  0.00    +0.000 C 
ATOM     24  O   UNL     1       0.938   9.259  20.395  0.00  0.00    +0.000 OA
ENDBRANCH  22  24
ENDBRANCH  16  22
ENDBRANCH  15  19
ENDBRANCH  14  15
ENDBRANCH   1  14
TORSDOF 5
ENDMDL
MODEL 2
REMARK VINA RESULT:      -7.7      0.075      1.057
REMARK  Name = 
REMARK  6 active torsions:
REMARK  status: ('A' for Active; 'I' for Inactive)
REMARK    1  A    between atoms: C_1  and  O_2
REMARK    2  A    between atoms: O_2  and  C_3
REMARK    3  A    between atoms: C_3  and  C_4
REMARK    4  A    between atoms: C_7  and  C_8
REMARK    5  A    between atoms: C_8  and  O_9
REMARK    6  A    between atoms: O_9  and  C_10
REMARK                            x       y       z     vdW  Elec       q    Type
REMARK                         _______ _______ _______ _____ _____    ______ ____
ROOT
ATOM      1  C   UNL     1       5.376   4.067  17.651  0.00  0.00    +0.000 A 
ATOM      2  N   UNL     1       6.047   4.550  18.759  0.00  0.00    +0.000 N 
ATOM      3  C   UNL     1       7.219   5.238  18.640  0.00  0.00    +0.000 A 
ATOM      4  N   UNL     1       7.797   5.568  19.820  0.00  0.00    +0.000 N 
ATOM      5  N   UNL     1       7.782   5.568  17.515  0.00  0.00    +0.000 NA
ATOM      6  C   UNL     1       7.129   5.138  16.400  0.00  0.00    +0.000 A 
ATOM      7  N   UNL     1       7.499   5.294  15.166  0.00  0.00    +0.000 NA
ATOM      8  C   UNL     1       6.506   4.625  14.464  0.00  0.00    +0.000 A 
ATOM      9  N   UNL     1       5.543   4.076  15.151  0.00  0.00    +0.000 NA
ATOM     10  C   UNL     1       5.885   4.367  16.444  0.00  0.00    +0.000 A 
ATOM     11  H   UNL     1       5.768   4.151  19.644  0.00  0.00    +0.000 HD
ATOM     12  H   UNL     1       7.167   5.910  20.533  0.00  0.00    +0.000 HD
ATOM     13  H   UNL     1       8.574   6.209  19.676  0.00  0.00    +0.000 HD
ENDROOT
BRANCH   1  14
ATOM     14  O   UNL     1       4.259   3.300  17.914  0.00  0.00    +0.000 OA
BRANCH  14  15
ATOM     15  C   UNL     1       3.012   3.888  17.527  0.00  0.00    +0.000 C 
BRANCH  15  19
ATOM     16  C   UNL     1       1.838   7.075  20.195  0.00  0.00    +0.000 A 
ATOM     17  C   UNL     1       2.361   7.367  18.928  0.00  0.00    +0.000 A 
ATOM     18  C   UNL     1       2.765   6.341  18.074  0.00  0.00    +0.000 A 
ATOM     19  C   UNL     1       2.642   5.004  18.469  0.00  0.00    +0.000 A 
ATOM     20  C   UNL     1       2.129   4.710  19.739  0.00  0.00    +0.000 A 
ATOM     21  C   UNL     1       1.726   5.737  20.593  0.00  0.00    +0.000 A 
BRANCH  16  22
ATOM     22  C   UNL     1       1.420   8.185  21.121  0.00  0.00    +0.000 C 
BRANCH  22  24
ATOM     23  C   UNL     1      -0.034  10.021  20.931  0.00  0.00    +0.000 C 
ATOM     24  O   UNL     1       1.065   9.332  20.353  0.00  0.00    +0.000 OA
ENDBRANCH  22  24
ENDBRANCH  16  22
ENDBRANCH  15  19
ENDBRANCH  14  15
ENDBRANCH   1  14
TORSDOF 5
ENDMDL
MODEL 3
REMARK VINA RESULT:      -7.5      0.751      2.383
REMARK  Name = 
REMARK  6 active torsions:
REMARK  status: ('A' for Active; 'I' for Inactive)
REMARK    1  A    between atoms: C_1  and  O_2
REMARK    2  A    between atoms: O_2  and  C_3
REMARK    3  A    between atoms: C_3  and  C_4
REMARK    4  A    between atoms: C_7  and  C_8
REMARK    5  A    between atoms: C_8  and  O_9
REMARK    6  A    between atoms: O_9  and  C_10
REMARK                            x       y       z     vdW  Elec       q    Type
REMARK                         _______ _______ _______ _____ _____    ______ ____
ROOT
ATOM      1  C   UNL     1       5.153   3.816  17.598  0.00  0.00    +0.000 A 
ATOM      2  N   UNL     1       5.342   3.526  16.261  0.00  0.00    +0.000 N 
ATOM      3  C   UNL     1       6.404   4.026  15.565  0.00  0.00    +0.000 A 
ATOM      4  N   UNL     1       6.402   3.723  14.245  0.00  0.00    +0.000 N 
ATOM      5  N   UNL     1       7.360   4.745  16.075  0.00  0.00    +0.000 NA
ATOM      6  C   UNL     1       7.224   5.021  17.402  0.00  0.00    +0.000 A 
ATOM      7  N   UNL     1       8.009   5.748  18.135  0.00  0.00    +0.000 NA
ATOM      8  C   UNL     1       7.374   5.732  19.369  0.00  0.00    +0.000 A 
ATOM      9  N   UNL     1       6.269   5.048  19.473  0.00  0.00    +0.000 NA
ATOM     10  C   UNL     1       6.098   4.549  18.209  0.00  0.00    +0.000 A 
ATOM     11  H   UNL     1       4.537   3.153  15.778  0.00  0.00    +0.000 HD
ATOM     12  H   UNL     1       6.146   2.772  14.017  0.00  0.00    +0.000 HD
ATOM     13  H   UNL     1       7.285   3.983  13.813  0.00  0.00    +0.000 HD
ENDROOT
BRANCH   1  14
ATOM     14  O   UNL     1       3.987   3.333  18.157  0.00  0.00    +0.000 OA
BRANCH  14  15
ATOM     15  C   UNL     1       2.784   3.945  17.681  0.00  0.00    +0.000 C 
BRANCH  15  19
ATOM     16  C   UNL     1       1.785   7.275  20.243  0.00  0.00    +0.000 A 
ATOM     17  C   UNL     1       1.616   5.958  20.692  0.00  0.00    +0.000 A 
ATOM     18  C   UNL     1       1.913   4.880  19.858  0.00  0.00    +0.000 A 
ATOM     19  C   UNL     1       2.396   5.102  18.564  0.00  0.00    +0.000 A 
ATOM     20  C   UNL     1       2.557   6.417  18.109  0.00  0.00    +0.000 A 
ATOM     21  C   UNL     1       2.259   7.494  18.943  0.00  0.00    +0.000 A 
BRANCH  16  22
ATOM     22  C   UNL     1       1.446   8.436  21.139  0.00  0.00    +0.000 C 
BRANCH  22  24
ATOM     23  C   UNL     1      -0.269   9.974  20.678  0.00  0.00    +0.000 C 
ATOM     24  O   UNL     1       1.042   9.546  20.341  0.00  0.00    +0.000 OA
ENDBRANCH  22  24
ENDBRANCH  16  22
ENDBRANCH  15  19
ENDBRANCH  14  15
ENDBRANCH   1  14
TORSDOF 5
ENDMDL
MODEL 4
REMARK VINA RESULT:      -7.4      0.884      2.613
REMARK  Name = 
REMARK  6 active torsions:
REMARK  status: ('A' for Active; 'I' for Inactive)
REMARK    1  A    between atoms: C_1  and  O_2
REMARK    2  A    between atoms: O_2  and  C_3
REMARK    3  A    between atoms: C_3  and  C_4
REMARK    4  A    between atoms: C_7  and  C_8
REMARK    5  A    between atoms: C_8  and  O_9
REMARK    6  A    between atoms: O_9  and  C_10
REMARK                            x       y       z     vdW  Elec       q    Type
REMARK                         _______ _______ _______ _____ _____    ______ ____
ROOT
ATOM      1  C   UNL     1       5.440   4.097  16.982  0.00  0.00    +0.000 A 
ATOM      2  N   UNL     1       5.582   3.518  15.735  0.00  0.00    +0.000 N 
ATOM      3  C   UNL     1       6.403   4.057  14.787  0.00  0.00    +0.000 A 
ATOM      4  N   UNL     1       6.367   3.424  13.590  0.00  0.00    +0.000 N 
ATOM      5  N   UNL     1       7.168   5.093  14.962  0.00  0.00    +0.000 NA
ATOM      6  C   UNL     1       7.079   5.669  16.193  0.00  0.00    +0.000 A 
ATOM      7  N   UNL     1       7.698   6.732  16.607  0.00  0.00    +0.000 NA
ATOM      8  C   UNL     1       7.202   6.890  17.894  0.00  0.00    +0.000 A 
ATOM      9  N   UNL     1       6.339   6.013  18.323  0.00  0.00    +0.000 NA
ATOM     10  C   UNL     1       6.199   5.171  17.252  0.00  0.00    +0.000 A 
ATOM     11  H   UNL     1       4.870   2.848  15.483  0.00  0.00    +0.000 HD
ATOM     12  H   UNL     1       6.361   2.413  13.631  0.00  0.00    +0.000 HD
ATOM     13  H   UNL     1       7.104   3.764  12.978  0.00  0.00    +0.000 HD
ENDROOT
BRANCH   1  14
ATOM     14  O   UNL     1       4.503   3.512  17.810  0.00  0.00    +0.000 OA
BRANCH  14  15
ATOM     15  C   UNL     1       3.146   3.892  17.559  0.00  0.00    +0.000 C 
BRANCH  15  19
ATOM     16  C   UNL     1       1.847   7.075  20.175  0.00  0.00    +0.000 A 
ATOM     17  C   UNL     1       2.344   7.364  18.896  0.00  0.00    +0.000 A 
ATOM     18  C   UNL     1       2.788   6.341  18.059  0.00  0.00    +0.000 A 
ATOM     19  C   UNL     1       2.732   5.009  18.482  0.00  0.00    +0.000 A 
ATOM     20  C   UNL     1       2.246   4.717  19.762  0.00  0.00    +0.000 A 
ATOM     21  C   UNL     1       1.803   5.741  20.600  0.00  0.00    +0.000 A 
BRANCH  16  22
ATOM     22  C   UNL     1       1.386   8.182  21.082  0.00  0.00    +0.000 C 
BRANCH  22  24
ATOM     23  C   UNL     1       0.742  10.441  21.122  0.00  0.00    +0.000 C 
ATOM     24  O   UNL     1       1.055   9.327  20.300  0.00  0.00    +0.000 OA
ENDBRANCH  22  24
ENDBRANCH  16  22
ENDBRANCH  15  19
ENDBRANCH  14  15
ENDBRANCH   1  14
TORSDOF 5
ENDMDL
MODEL 5
REMARK VINA RESULT:      -7.3      3.230      6.621
REMARK  Name = 
REMARK  6 active torsions:
REMARK  status: ('A' for Active; 'I' for Inactive)
REMARK    1  A    between atoms: C_1  and  O_2
REMARK    2  A    between atoms: O_2  and  C_3
REMARK    3  A    between atoms: C_3  and  C_4
REMARK    4  A    between atoms: C_7  and  C_8
REMARK    5  A    between atoms: C_8  and  O_9
REMARK    6  A    between atoms: O_9  and  C_10
REMARK                            x       y       z     vdW  Elec       q    Type
REMARK                         _______ _______ _______ _____ _____    ______ ____
ROOT
ATOM      1  C   UNL     1       4.555   3.896  19.575  0.00  0.00    +0.000 A 
ATOM      2  N   UNL     1       4.758   2.652  19.008  0.00  0.00    +0.000 N 
ATOM      3  C   UNL     1       3.731   1.769  18.837  0.00  0.00    +0.000 A 
ATOM      4  N   UNL     1       4.106   0.562  18.349  0.00  0.00    +0.000 N 
ATOM      5  N   UNL     1       2.483   2.011  19.112  0.00  0.00    +0.000 NA
ATOM      6  C   UNL     1       2.242   3.242  19.642  0.00  0.00    +0.000 A 
ATOM      7  N   UNL     1       1.101   3.713  20.040  0.00  0.00    +0.000 NA
ATOM      8  C   UNL     1       1.442   4.967  20.528  0.00  0.00    +0.000 A 
ATOM      9  N   UNL     1       2.695   5.324  20.457  0.00  0.00    +0.000 NA
ATOM     10  C   UNL     1       3.292   4.233  19.885  0.00  0.00    +0.000 A 
ATOM     11  H   UNL     1       5.718   2.343  18.970  0.00  0.00    +0.000 HD
ATOM     12  H   UNL     1       4.782   0.588  17.598  0.00  0.00    +0.000 HD
ATOM     13  H   UNL     1       3.293   0.007  18.096  0.00  0.00    +0.000 HD
ENDROOT
BRANCH   1  14
ATOM     14  O   UNL     1       5.691   4.651  19.785  0.00  0.00    +0.000 OA
BRANCH  14  15
ATOM     15  C   UNL     1       5.767   5.861  19.025  0.00  0.00    +0.000 C 
BRANCH  15  19
ATOM     16  C   UNL     1       6.479   4.893  14.876  0.00  0.00    +0.000 A 
ATOM     17  C   UNL     1       7.391   4.498  15.864  0.00  0.00    +0.000 A 
ATOM     18  C   UNL     1       7.178   4.831  17.202  0.00  0.00    +0.000 A 
ATOM     19  C   UNL     1       6.041   5.556  17.575  0.00  0.00    +0.000 A 
ATOM     20  C   UNL     1       5.132   5.961  16.589  0.00  0.00    +0.000 A 
ATOM     21  C   UNL     1       5.347   5.628  15.252  0.00  0.00    +0.000 A 
BRANCH  16  22
ATOM     22  C   UNL     1       6.722   4.548  13.432  0.00  0.00    +0.000 C 
BRANCH  22  24
ATOM     23  C   UNL     1       5.269   3.325  12.049  0.00  0.00    +0.000 C 
ATOM     24  O   UNL     1       6.161   3.267  13.152  0.00  0.00    +0.000 OA
ENDBRANCH  22  24
ENDBRANCH  16  22
ENDBRANCH  15  19
ENDBRANCH  14  15
ENDBRANCH   1  14
TORSDOF 5
ENDMDL
MODEL 6
REMARK VINA RESULT:      -7.3      1.622      2.281
REMARK  Name = 
REMARK  6 active torsions:
REMARK  status: ('A' for Active; 'I' for Inactive)
REMARK    1  A    between atoms: C_1  and  O_2
REMARK    2  A    between atoms: O_2  and  C_3
REMARK    3  A    between atoms: C_3  and  C_4
REMARK    4  A    between atoms: C_7  and  C_8
REMARK    5  A    between atoms: C_8  and  O_9
REMARK    6  A    between atoms: O_9  and  C_10
REMARK                            x       y       z     vdW  Elec       q    Type
REMARK                         _______ _______ _______ _____ _____    ______ ____
ROOT
ATOM      1  C   UNL     1       4.990   5.138  17.971  0.00  0.00    +0.000 A 
ATOM      2  N   UNL     1       5.835   5.395  19.034  0.00  0.00    +0.000 N 
ATOM      3  C   UNL     1       7.191   5.320  18.904  0.00  0.00    +0.000 A 
ATOM      4  N   UNL     1       7.876   5.513  20.056  0.00  0.00    +0.000 N 
ATOM      5  N   UNL     1       7.823   5.079  17.793  0.00  0.00    +0.000 NA
ATOM      6  C   UNL     1       7.021   4.857  16.715  0.00  0.00    +0.000 A 
ATOM      7  N   UNL     1       7.395   4.554  15.510  0.00  0.00    +0.000 NA
ATOM      8  C   UNL     1       6.187   4.392  14.847  0.00  0.00    +0.000 A 
ATOM      9  N   UNL     1       5.092   4.580  15.530  0.00  0.00    +0.000 NA
ATOM     10  C   UNL     1       5.559   4.886  16.780  0.00  0.00    +0.000 A 
ATOM     11  H   UNL     1       5.401   5.381  19.946  0.00  0.00    +0.000 HD
ATOM     12  H   UNL     1       7.540   6.265  20.642  0.00  0.00    +0.000 HD
ATOM     13  H   UNL     1       8.873   5.603  19.874  0.00  0.00    +0.000 HD
ENDROOT
BRANCH   1  14
ATOM     14  O   UNL     1       3.641   5.147  18.261  0.00  0.00    +0.000 OA
BRANCH  14  15
ATOM     15  C   UNL     1       3.293   5.725  19.523  0.00  0.00    +0.000 C 
BRANCH  15  19
ATOM     16  C   UNL     1       1.071   9.382  18.935  0.00  0.00    +0.000 A 
ATOM     17  C   UNL     1       1.761   8.791  17.868  0.00  0.00    +0.000 A 
ATOM     18  C   UNL     1       2.501   7.624  18.059  0.00  0.00    +0.000 A 
ATOM     19  C   UNL     1       2.553   7.022  19.321  0.00  0.00    +0.000 A 
ATOM     20  C   UNL     1       1.872   7.615  20.392  0.00  0.00    +0.000 A 
ATOM     21  C   UNL     1       1.134   8.783  20.199  0.00  0.00    +0.000 A 
BRANCH  16  22
ATOM     22  C   UNL     1       0.290  10.651  18.728  0.00  0.00    +0.000 C 
BRANCH  22  24
ATOM     23  C   UNL     1      -1.733  11.499  17.885  0.00  0.00    +0.000 C 
ATOM     24  O   UNL     1      -0.880  10.366  17.964  0.00  0.00    +0.000 OA
ENDBRANCH  22  24
ENDBRANCH  16  22
ENDBRANCH  15  19
ENDBRANCH  14  15
ENDBRANCH   1  14
TORSDOF 5
ENDMDL
MODEL 7
REMARK VINA RESULT:      -7.2      1.622      2.178
REMARK  Name = 
REMARK  6 active torsions:
REMARK  status: ('A' for Active; 'I' for Inactive)
REMARK    1  A    between atoms: C_1  and  O_2
REMARK    2  A    between atoms: O_2  and  C_3
REMARK    3  A    between atoms: C_3  and  C_4
REMARK    4  A    between atoms: C_7  and  C_8
REMARK    5  A    between atoms: C_8  and  O_9
REMARK    6  A    between atoms: O_9  and  C_10
REMARK                            x       y       z     vdW  Elec       q    Type
REMARK                         _______ _______ _______ _____ _____    ______ ____
ROOT
ATOM      1  C   UNL     1       4.999   5.511  17.665  0.00  0.00    +0.000 A 
ATOM      2  N   UNL     1       5.799   5.644  18.784  0.00  0.00    +0.000 N 
ATOM      3  C   UNL     1       7.142   5.407  18.735  0.00  0.00    +0.000 A 
ATOM      4  N   UNL     1       7.770   5.494  19.932  0.00  0.00    +0.000 N 
ATOM      5  N   UNL     1       7.810   5.112  17.659  0.00  0.00    +0.000 NA
ATOM      6  C   UNL     1       7.058   5.008  16.528  0.00  0.00    +0.000 A 
ATOM      7  N   UNL     1       7.469   4.685  15.341  0.00  0.00    +0.000 NA
ATOM      8  C   UNL     1       6.294   4.683  14.602  0.00  0.00    +0.000 A 
ATOM      9  N   UNL     1       5.188   4.989  15.221  0.00  0.00    +0.000 NA
ATOM     10  C   UNL     1       5.609   5.214  16.505  0.00  0.00    +0.000 A 
ATOM     11  H   UNL     1       5.310   5.666  19.668  0.00  0.00    +0.000 HD
ATOM     12  H   UNL     1       7.490   6.270  20.516  0.00  0.00    +0.000 HD
ATOM     13  H   UNL     1       8.780   5.466  19.813  0.00  0.00    +0.000 HD
ENDROOT
BRANCH   1  14
ATOM     14  O   UNL     1       3.645   5.678  17.872  0.00  0.00    +0.000 OA
BRANCH  14  15
ATOM     15  C   UNL     1       3.272   6.029  19.209  0.00  0.00    +0.000 C 
BRANCH  15  19
ATOM     16  C   UNL     1       0.920   9.652  19.217  0.00  0.00    +0.000 A 
ATOM     17  C   UNL     1       1.081   8.907  20.394  0.00  0.00    +0.000 A 
ATOM     18  C   UNL     1       1.819   7.723  20.389  0.00  0.00    +0.000 A 
ATOM     19  C   UNL     1       2.418   7.270  19.209  0.00  0.00    +0.000 A 
ATOM     20  C   UNL     1       2.251   8.007  18.029  0.00  0.00    +0.000 A 
ATOM     21  C   UNL     1       1.512   9.190  18.035  0.00  0.00    +0.000 A 
BRANCH  16  22
ATOM     22  C   UNL     1       0.109  10.919  19.222  0.00  0.00    +0.000 C 
BRANCH  22  24
ATOM     23  C   UNL     1      -1.738  11.510  17.896  0.00  0.00    +0.000 C 
ATOM     24  O   UNL     1      -1.241  10.615  18.881  0.00  0.00    +0.000 OA
ENDBRANCH  22  24
ENDBRANCH  16  22
ENDBRANCH  15  19
ENDBRANCH  14  15
ENDBRANCH   1  14
TORSDOF 5
ENDMDL
MODEL 8
REMARK VINA RESULT:      -7.2      2.094      3.171
REMARK  Name = 
REMARK  6 active torsions:
REMARK  status: ('A' for Active; 'I' for Inactive)
REMARK    1  A    between atoms: C_1  and  O_2
REMARK    2  A    between atoms: O_2  and  C_3
REMARK    3  A    between atoms: C_3  and  C_4
REMARK    4  A    between atoms: C_7  and  C_8
REMARK    5  A    between atoms: C_8  and  O_9
REMARK    6  A    between atoms: O_9  and  C_10
REMARK                            x       y       z     vdW  Elec       q    Type
REMARK                         _______ _______ _______ _____ _____    ______ ____
ROOT
ATOM      1  C   UNL     1       5.715   6.541  17.531  0.00  0.00    +0.000 A 
ATOM      2  N   UNL     1       6.508   6.295  18.636  0.00  0.00    +0.000 N 
ATOM      3  C   UNL     1       7.519   5.379  18.599  0.00  0.00    +0.000 A 
ATOM      4  N   UNL     1       8.146   5.189  19.784  0.00  0.00    +0.000 N 
ATOM      5  N   UNL     1       7.885   4.711  17.544  0.00  0.00    +0.000 NA
ATOM      6  C   UNL     1       7.146   4.957  16.426  0.00  0.00    +0.000 A 
ATOM      7  N   UNL     1       7.275   4.395  15.264  0.00  0.00    +0.000 NA
ATOM      8  C   UNL     1       6.249   4.974  14.531  0.00  0.00    +0.000 A 
ATOM      9  N   UNL     1       5.499   5.856  15.130  0.00  0.00    +0.000 NA
ATOM     10  C   UNL     1       6.027   5.898  16.393  0.00  0.00    +0.000 A 
ATOM     11  H   UNL     1       6.141   6.625  19.517  0.00  0.00    +0.000 HD
ATOM     12  H   UNL     1       8.343   6.028  20.312  0.00  0.00    +0.000 HD
ATOM     13  H   UNL     1       8.982   4.622  19.664  0.00  0.00    +0.000 HD
ENDROOT
BRANCH   1  14
ATOM     14  O   UNL     1       4.664   7.414  17.730  0.00  0.00    +0.000 OA
BRANCH  14  15
ATOM     15  C   UNL     1       3.401   6.972  17.221  0.00  0.00    +0.000 C 
BRANCH  15  19
ATOM     16  C   UNL     1       1.649   4.183  20.014  0.00  0.00    +0.000 A 
ATOM     17  C   UNL     1       1.834   3.822  18.672  0.00  0.00    +0.000 A 
ATOM     18  C   UNL     1       2.376   4.729  17.761  0.00  0.00    +0.000 A 
ATOM     19  C   UNL     1       2.753   6.010  18.181  0.00  0.00    +0.000 A 
ATOM     20  C   UNL     1       2.560   6.376  19.519  0.00  0.00    +0.000 A 
ATOM     21  C   UNL     1       2.017   5.469  20.429  0.00  0.00    +0.000 A 
BRANCH  16  22
ATOM     22  C   UNL     1       1.047   3.208  20.989  0.00  0.00    +0.000 C 
BRANCH  22  24
ATOM     23  C   UNL     1       3.135   2.254  21.493  0.00  0.00    +0.000 C 
ATOM     24  O   UNL     1       1.995   2.921  22.015  0.00  0.00    +0.000 OA
ENDBRANCH  22  24
ENDBRANCH  16  22
ENDBRANCH  15  19
ENDBRANCH  14  15
ENDBRANCH   1  14
TORSDOF 5
ENDMDL
MODEL 9
REMARK VINA RESULT:      -7.2      2.110      3.171
REMARK  Name = 
REMARK  6 active torsions:
REMARK  status: ('A' for Active; 'I' for Inactive)
REMARK    1  A    between atoms: C_1  and  O_2
REMARK    2  A    between atoms: O_2  and  C_3
REMARK    3  A    between atoms: C_3  and  C_4
REMARK    4  A    between atoms: C_7  and  C_8
REMARK    5  A    between atoms: C_8  and  O_9
REMARK    6  A    between atoms: O_9  and  C_10
REMARK                            x       y       z     vdW  Elec       q    Type
REMARK                         _______ _______ _______ _____ _____    ______ ____
ROOT
ATOM      1  C   UNL     1       5.714   6.572  17.514  0.00  0.00    +0.000 A 
ATOM      2  N   UNL     1       6.493   6.322  18.628  0.00  0.00    +0.000 N 
ATOM      3  C   UNL     1       7.499   5.400  18.604  0.00  0.00    +0.000 A 
ATOM      4  N   UNL     1       8.111   5.208  19.797  0.00  0.00    +0.000 N 
ATOM      5  N   UNL     1       7.873   4.728  17.555  0.00  0.00    +0.000 NA
ATOM      6  C   UNL     1       7.148   4.976  16.428  0.00  0.00    +0.000 A 
ATOM      7  N   UNL     1       7.287   4.412  15.268  0.00  0.00    +0.000 NA
ATOM      8  C   UNL     1       6.272   4.996  14.522  0.00  0.00    +0.000 A 
ATOM      9  N   UNL     1       5.521   5.884  15.112  0.00  0.00    +0.000 NA
ATOM     10  C   UNL     1       6.034   5.925  16.381  0.00  0.00    +0.000 A 
ATOM     11  H   UNL     1       6.118   6.656  19.504  0.00  0.00    +0.000 HD
ATOM     12  H   UNL     1       8.308   6.047  20.325  0.00  0.00    +0.000 HD
ATOM     13  H   UNL     1       8.945   4.636  19.687  0.00  0.00    +0.000 HD
ENDROOT
BRANCH   1  14
ATOM     14  O   UNL     1       4.666   7.450  17.700  0.00  0.00    +0.000 OA
BRANCH  14  15
ATOM     15  C   UNL     1       3.392   6.984  17.244  0.00  0.00    +0.000 C 
BRANCH  15  19
ATOM     16  C   UNL     1       1.625   4.174  20.008  0.00  0.00    +0.000 A 
ATOM     17  C   UNL     1       2.031   5.442  20.447  0.00  0.00    +0.000 A 
ATOM     18  C   UNL     1       2.625   6.343  19.563  0.00  0.00    +0.000 A 
ATOM     19  C   UNL     1       2.813   5.994  18.221  0.00  0.00    +0.000 A 
ATOM     20  C   UNL     1       2.419   4.724  17.782  0.00  0.00    +0.000 A 
ATOM     21  C   UNL     1       1.825   3.823  18.667  0.00  0.00    +0.000 A 
BRANCH  16  22
ATOM     22  C   UNL     1       1.002   3.199  20.969  0.00  0.00    +0.000 C 
BRANCH  22  24
ATOM     23  C   UNL     1       3.111   2.289  21.461  0.00  0.00    +0.000 C 
ATOM     24  O   UNL     1       1.939   2.884  21.996  0.00  0.00    +0.000 OA
ENDBRANCH  22  24
ENDBRANCH  16  22
ENDBRANCH  15  19
ENDBRANCH  14  15
ENDBRANCH   1  14
TORSDOF 5
ENDMDL
