MODEL 1
REMARK VINA RESULT:      -7.9      0.000      0.000
REMARK  Name = 
REMARK  7 active torsions:
REMARK  status: ('A' for Active; 'I' for Inactive)
REMARK    1  A    between atoms: C_1  and  C_2
REMARK    2  A    between atoms: C_2  and  C_3
REMARK    3  A    between atoms: N_7  and  C_8
REMARK    4  A    between atoms: C_8  and  C_9
REMARK    5  A    between atoms: C_18  and  N_19
REMARK    6  A    between atoms: N_19  and  O_20
REMARK    7  A    between atoms: N_23  and  C_24
REMARK                            x       y       z     vdW  Elec       q    Type
REMARK                         _______ _______ _______ _____ _____    ______ ____
ROOT
ATOM      1  C   UNL     1       0.828   3.903  17.574  0.00  0.00    +0.000 C 
ATOM      2  C   UNL     1       1.614   3.854  18.890  0.00  0.00    +0.000 C 
ATOM      3  C   UNL     1       0.656   3.913  20.087  0.00  0.00    +0.000 C 
ATOM      4  S   UNL     1       2.419   2.213  18.969  0.00  0.00    +0.000 S 
ATOM      5  C   UNL     1       3.857   2.814  19.755  0.00  0.00    +0.000 C 
ATOM      6  S   UNL     1       4.866   1.821  20.632  0.00  0.00    +0.000 S 
ATOM      7  N   UNL     1       3.982   4.181  19.546  0.00  0.00    +0.000 N 
ATOM      8  C   UNL     1       2.812   4.858  18.941  0.00  0.00    +0.000 C 
ENDROOT
BRANCH   8   9
ATOM      9  N   UNL     1       2.507   6.133  19.633  0.00  0.00    +0.000 N 
ATOM     10  C   UNL     1       2.507   7.353  18.980  0.00  0.00    +0.000 C 
ATOM     11  O   UNL     1       2.984   7.505  17.858  0.00  0.00    +0.000 OA
ATOM     12  N   UNL     1       1.901   8.367  19.678  0.00  0.00    +0.000 N 
ATOM     13  H   UNL     1       1.704   8.154  20.652  0.00  0.00    +0.000 HD
BRANCH  12  14
ATOM     14  C   UNL     1       1.689   9.701  19.135  0.00  0.00    +0.000 C 
ATOM     15  C   UNL     1       0.907   9.654  17.812  0.00  0.00    +0.000 C 
ATOM     16  C   UNL     1      -0.584   9.379  18.005  0.00  0.00    +0.000 C 
ATOM     17  C   UNL     1      -1.212  10.360  18.988  0.00  0.00    +0.000 C 
ATOM     18  C   UNL     1      -0.475  10.359  20.322  0.00  0.00    +0.000 C 
ATOM     19  C   UNL     1       1.016  10.645  20.142  0.00  0.00    +0.000 C 
ENDBRANCH  12  14
BRANCH   9  20
ATOM     20  O   UNL     1       1.705   6.044  20.803  0.00  0.00    +0.000 OA
ATOM     21  H   UNL     1       1.004   6.703  20.641  0.00  0.00    +0.000 HD
ENDBRANCH   9  20
ENDBRANCH   8   9
BRANCH   7  22
ATOM     22  C   UNL     1       5.280   4.865  19.590  0.00  0.00    +0.000 C 
BRANCH  22  23
ATOM     23  C   UNL     1       5.951   5.046  18.239  0.00  0.00    +0.000 A 
ATOM     24  C   UNL     1       6.821   6.146  18.026  0.00  0.00    +0.000 A 
ATOM     25  C   UNL     1       7.409   6.385  16.778  0.00  0.00    +0.000 A 
ATOM     26  C   UNL     1       7.114   5.513  15.756  0.00  0.00    +0.000 A 
ATOM     27  C   UNL     1       6.284   4.435  15.949  0.00  0.00    +0.000 A 
ATOM     28  C   UNL     1       5.690   4.173  17.170  0.00  0.00    +0.000 A 
ATOM     29  O   UNL     1       6.120   3.701  14.814  0.00  0.00    +0.000 OA
ATOM     30  C   UNL     1       6.939   4.447  13.887  0.00  0.00    +0.000 C 
ATOM     31  O   UNL     1       7.570   5.600  14.479  0.00  0.00    +0.000 OA
ENDBRANCH  22  23
ENDBRANCH   7  22
TORSDOF 5
ENDMDL
MODEL 2
REMARK VINA RESULT:      -6.8      0.836      1.490
REMARK  Name = 
REMARK  7 active torsions:
REMARK  status: ('A' for Active; 'I' for Inactive)
REMARK    1  A    between atoms: C_1  and  C_2
REMARK    2  A    between atoms: C_2  and  C_3
REMARK    3  A    between atoms: N_7  and  C_8
REMARK    4  A    between atoms: C_8  and  C_9
REMARK    5  A    between atoms: C_18  and  N_19
REMARK    6  A    between atoms: N_19  and  O_20
REMARK    7  A    between atoms: N_23  and  C_24
REMARK                            x       y       z     vdW  Elec       q    Type
REMARK                         _______ _______ _______ _____ _____    ______ ____
ROOT
ATOM      1  C   UNL     1       0.482   3.726  18.121  0.00  0.00    +0.000 C 
ATOM      2  C   UNL     1       1.559   3.896  19.198  0.00  0.00    +0.000 C 
ATOM      3  C   UNL     1       0.916   4.257  20.545  0.00  0.00    +0.000 C 
ATOM      4  S   UNL     1       2.341   2.260  19.436  0.00  0.00    +0.000 S 
ATOM      5  C   UNL     1       3.932   2.919  19.722  0.00  0.00    +0.000 C 
ATOM      6  S   UNL     1       5.110   2.064  20.532  0.00  0.00    +0.000 S 
ATOM      7  N   UNL     1       4.018   4.204  19.204  0.00  0.00    +0.000 N 
ATOM      8  C   UNL     1       2.746   4.814  18.757  0.00  0.00    +0.000 C 
ENDROOT
BRANCH   8   9
ATOM      9  N   UNL     1       2.630   6.219  19.214  0.00  0.00    +0.000 N 
ATOM     10  C   UNL     1       2.359   7.264  18.347  0.00  0.00    +0.000 C 
ATOM     11  O   UNL     1       2.429   7.149  17.126  0.00  0.00    +0.000 OA
ATOM     12  N   UNL     1       1.973   8.426  18.967  0.00  0.00    +0.000 N 
ATOM     13  H   UNL     1       2.119   8.440  19.972  0.00  0.00    +0.000 HD
BRANCH  12  14
ATOM     14  C   UNL     1       1.532   9.613  18.247  0.00  0.00    +0.000 C 
ATOM     15  C   UNL     1       0.017   9.584  17.986  0.00  0.00    +0.000 C 
ATOM     16  C   UNL     1      -0.813   9.900  19.230  0.00  0.00    +0.000 C 
ATOM     17  C   UNL     1      -0.383  11.215  19.871  0.00  0.00    +0.000 C 
ATOM     18  C   UNL     1       1.108  11.217  20.189  0.00  0.00    +0.000 C 
ATOM     19  C   UNL     1       1.948  10.914  18.948  0.00  0.00    +0.000 C 
ENDBRANCH  12  14
BRANCH   9  20
ATOM     20  O   UNL     1       2.266   6.417  20.573  0.00  0.00    +0.000 OA
ATOM     21  H   UNL     1       1.325   6.670  20.515  0.00  0.00    +0.000 HD
ENDBRANCH   9  20
ENDBRANCH   8   9
BRANCH   7  22
ATOM     22  C   UNL     1       5.298   4.801  18.800  0.00  0.00    +0.000 C 
BRANCH  22  23
ATOM     23  C   UNL     1       5.612   4.691  17.319  0.00  0.00    +0.000 A 
ATOM     24  C   UNL     1       4.813   3.864  16.488  0.00  0.00    +0.000 A 
ATOM     25  C   UNL     1       5.105   3.685  15.130  0.00  0.00    +0.000 A 
ATOM     26  C   UNL     1       6.203   4.340  14.623  0.00  0.00    +0.000 A 
ATOM     27  C   UNL     1       6.980   5.155  15.410  0.00  0.00    +0.000 A 
ATOM     28  C   UNL     1       6.715   5.352  16.753  0.00  0.00    +0.000 A 
ATOM     29  O   UNL     1       8.016   5.705  14.718  0.00  0.00    +0.000 OA
ATOM     30  C   UNL     1       7.801   5.136  13.408  0.00  0.00    +0.000 C 
ATOM     31  O   UNL     1       6.653   4.266  13.343  0.00  0.00    +0.000 OA
ENDBRANCH  22  23
ENDBRANCH   7  22
TORSDOF 5
ENDMDL
MODEL 3
REMARK VINA RESULT:      -6.5      5.171      8.179
REMARK  Name = 
REMARK  7 active torsions:
REMARK  status: ('A' for Active; 'I' for Inactive)
REMARK    1  A    between atoms: C_1  and  C_2
REMARK    2  A    between atoms: C_2  and  C_3
REMARK    3  A    between atoms: N_7  and  C_8
REMARK    4  A    between atoms: C_8  and  C_9
REMARK    5  A    between atoms: C_18  and  N_19
REMARK    6  A    between atoms: N_19  and  O_20
REMARK    7  A    between atoms: N_23  and  C_24
REMARK                            x       y       z     vdW  Elec       q    Type
REMARK                         _______ _______ _______ _____ _____    ______ ____
ROOT
ATOM      1  C   UNL     1      -0.190  13.324  22.564  0.00  0.00    +0.000 C 
ATOM      2  C   UNL     1      -0.000  13.459  21.049  0.00  0.00    +0.000 C 
ATOM      3  C   UNL     1      -0.466  14.842  20.572  0.00  0.00    +0.000 C 
ATOM      4  S   UNL     1       1.799  13.395  20.728  0.00  0.00    +0.000 S 
ATOM      5  C   UNL     1       1.630  12.530  19.221  0.00  0.00    +0.000 C 
ATOM      6  S   UNL     1       2.819  12.545  18.055  0.00  0.00    +0.000 S 
ATOM      7  N   UNL     1       0.400  11.890  19.172  0.00  0.00    +0.000 N 
ATOM      8  C   UNL     1      -0.565  12.247  20.237  0.00  0.00    +0.000 C 
ENDROOT
BRANCH   8   9
ATOM      9  N   UNL     1      -1.923  12.465  19.686  0.00  0.00    +0.000 N 
ATOM     10  C   UNL     1      -3.040  12.608  20.491  0.00  0.00    +0.000 C 
ATOM     11  O   UNL     1      -3.035  12.332  21.689  0.00  0.00    +0.000 OA
ATOM     12  N   UNL     1      -4.140  13.114  19.846  0.00  0.00    +0.000 N 
ATOM     13  H   UNL     1      -4.065  13.139  18.834  0.00  0.00    +0.000 HD
BRANCH  12  14
ATOM     14  C   UNL     1      -5.384  13.452  20.524  0.00  0.00    +0.000 C 
ATOM     15  C   UNL     1      -6.120  14.600  19.813  0.00  0.00    +0.000 C 
ATOM     16  C   UNL     1      -6.816  14.161  18.525  0.00  0.00    +0.000 C 
ATOM     17  C   UNL     1      -7.739  12.971  18.764  0.00  0.00    +0.000 C 
ATOM     18  C   UNL     1      -6.992  11.810  19.410  0.00  0.00    +0.000 C 
ATOM     19  C   UNL     1      -6.302  12.235  20.706  0.00  0.00    +0.000 C 
ENDBRANCH  12  14
BRANCH   9  20
ATOM     20  O   UNL     1      -1.997  13.055  18.395  0.00  0.00    +0.000 OA
ATOM     21  H   UNL     1      -2.534  13.855  18.549  0.00  0.00    +0.000 HD
ENDBRANCH   9  20
ENDBRANCH   8   9
BRANCH   7  22
ATOM     22  C   UNL     1       0.170  10.696  18.348  0.00  0.00    +0.000 C 
BRANCH  22  23
ATOM     23  C   UNL     1       0.913   9.453  18.806  0.00  0.00    +0.000 A 
ATOM     24  C   UNL     1       0.802   9.022  20.153  0.00  0.00    +0.000 A 
ATOM     25  C   UNL     1       1.520   7.919  20.632  0.00  0.00    +0.000 A 
ATOM     26  C   UNL     1       2.344   7.262  19.750  0.00  0.00    +0.000 A 
ATOM     27  C   UNL     1       2.453   7.658  18.438  0.00  0.00    +0.000 A 
ATOM     28  C   UNL     1       1.756   8.742  17.937  0.00  0.00    +0.000 A 
ATOM     29  O   UNL     1       3.321   6.879  17.735  0.00  0.00    +0.000 OA
ATOM     30  C   UNL     1       3.746   5.953  18.758  0.00  0.00    +0.000 C 
ATOM     31  O   UNL     1       3.132   6.193  20.040  0.00  0.00    +0.000 OA
ENDBRANCH  22  23
ENDBRANCH   7  22
TORSDOF 5
ENDMDL
MODEL 4
REMARK VINA RESULT:      -6.5      8.541     12.533
REMARK  Name = 
REMARK  7 active torsions:
REMARK  status: ('A' for Active; 'I' for Inactive)
REMARK    1  A    between atoms: C_1  and  C_2
REMARK    2  A    between atoms: C_2  and  C_3
REMARK    3  A    between atoms: N_7  and  C_8
REMARK    4  A    between atoms: C_8  and  C_9
REMARK    5  A    between atoms: C_18  and  N_19
REMARK    6  A    between atoms: N_19  and  O_20
REMARK    7  A    between atoms: N_23  and  C_24
REMARK                            x       y       z     vdW  Elec       q    Type
REMARK                         _______ _______ _______ _____ _____    ______ ____
ROOT
ATOM      1  C   UNL     1      -2.701  16.742  23.041  0.00  0.00    +0.000 C 
ATOM      2  C   UNL     1      -3.762  15.637  23.012  0.00  0.00    +0.000 C 
ATOM      3  C   UNL     1      -3.507  14.621  24.133  0.00  0.00    +0.000 C 
ATOM      4  S   UNL     1      -5.366  16.425  23.400  0.00  0.00    +0.000 S 
ATOM      5  C   UNL     1      -6.277  15.399  22.321  0.00  0.00    +0.000 C 
ATOM      6  S   UNL     1      -7.916  15.163  22.500  0.00  0.00    +0.000 S 
ATOM      7  N   UNL     1      -5.438  14.841  21.367  0.00  0.00    +0.000 N 
ATOM      8  C   UNL     1      -3.985  15.022  21.591  0.00  0.00    +0.000 C 
ENDROOT
BRANCH   8   9
ATOM      9  N   UNL     1      -3.240  13.764  21.349  0.00  0.00    +0.000 N 
ATOM     10  C   UNL     1      -1.948  13.748  20.853  0.00  0.00    +0.000 C 
ATOM     11  O   UNL     1      -1.413  14.737  20.358  0.00  0.00    +0.000 OA
ATOM     12  N   UNL     1      -1.305  12.544  20.993  0.00  0.00    +0.000 N 
ATOM     13  H   UNL     1      -1.906  11.769  21.258  0.00  0.00    +0.000 HD
BRANCH  12  14
ATOM     14  C   UNL     1       0.094  12.334  20.645  0.00  0.00    +0.000 C 
ATOM     15  C   UNL     1       0.621  11.002  21.203  0.00  0.00    +0.000 C 
ATOM     16  C   UNL     1       0.132   9.786  20.416  0.00  0.00    +0.000 C 
ATOM     17  C   UNL     1       0.433   9.923  18.928  0.00  0.00    +0.000 C 
ATOM     18  C   UNL     1      -0.146  11.215  18.362  0.00  0.00    +0.000 C 
ATOM     19  C   UNL     1       0.346  12.439  19.134  0.00  0.00    +0.000 C 
ENDBRANCH  12  14
BRANCH   9  20
ATOM     20  O   UNL     1      -3.635  12.634  22.115  0.00  0.00    +0.000 OA
ATOM     21  H   UNL     1      -4.411  12.297  21.628  0.00  0.00    +0.000 HD
ENDBRANCH   9  20
ENDBRANCH   8   9
BRANCH   7  22
ATOM     22  C   UNL     1      -5.926  14.401  20.054  0.00  0.00    +0.000 C 
BRANCH  22  23
ATOM     23  C   UNL     1      -6.209  12.913  19.945  0.00  0.00    +0.000 A 
ATOM     24  C   UNL     1      -5.783  12.197  18.797  0.00  0.00    +0.000 A 
ATOM     25  C   UNL     1      -6.078  10.838  18.629  0.00  0.00    +0.000 A 
ATOM     26  C   UNL     1      -6.802  10.216  19.617  0.00  0.00    +0.000 A 
ATOM     27  C   UNL     1      -7.212  10.891  20.742  0.00  0.00    +0.000 A 
ATOM     28  C   UNL     1      -6.934  12.231  20.937  0.00  0.00    +0.000 A 
ATOM     29  O   UNL     1      -7.916  10.095  21.593  0.00  0.00    +0.000 OA
ATOM     30  C   UNL     1      -7.904   8.845  20.871  0.00  0.00    +0.000 C 
ATOM     31  O   UNL     1      -7.202   8.916  19.614  0.00  0.00    +0.000 OA
ENDBRANCH  22  23
ENDBRANCH   7  22
TORSDOF 5
ENDMDL
MODEL 5
REMARK VINA RESULT:      -6.4      4.546      8.817
REMARK  Name = 
REMARK  7 active torsions:
REMARK  status: ('A' for Active; 'I' for Inactive)
REMARK    1  A    between atoms: C_1  and  C_2
REMARK    2  A    between atoms: C_2  and  C_3
REMARK    3  A    between atoms: N_7  and  C_8
REMARK    4  A    between atoms: C_8  and  C_9
REMARK    5  A    between atoms: C_18  and  N_19
REMARK    6  A    between atoms: N_19  and  O_20
REMARK    7  A    between atoms: N_23  and  C_24
REMARK                            x       y       z     vdW  Elec       q    Type
REMARK                         _______ _______ _______ _____ _____    ______ ____
ROOT
ATOM      1  C   UNL     1       2.211  12.527  18.262  0.00  0.00    +0.000 C 
ATOM      2  C   UNL     1       1.285  12.111  19.411  0.00  0.00    +0.000 C 
ATOM      3  C   UNL     1       2.090  11.912  20.702  0.00  0.00    +0.000 C 
ATOM      4  S   UNL     1       0.162  13.519  19.728  0.00  0.00    +0.000 S 
ATOM      5  C   UNL     1      -1.206  12.508  20.116  0.00  0.00    +0.000 C 
ATOM      6  S   UNL     1      -2.490  13.065  21.020  0.00  0.00    +0.000 S 
ATOM      7  N   UNL     1      -1.028  11.237  19.586  0.00  0.00    +0.000 N 
ATOM      8  C   UNL     1       0.316  10.940  19.040  0.00  0.00    +0.000 C 
ENDROOT
BRANCH   8   9
ATOM      9  N   UNL     1       0.789   9.602  19.466  0.00  0.00    +0.000 N 
ATOM     10  C   UNL     1       1.587   8.805  18.665  0.00  0.00    +0.000 C 
ATOM     11  O   UNL     1       1.765   9.031  17.470  0.00  0.00    +0.000 OA
ATOM     12  N   UNL     1       2.187   7.762  19.325  0.00  0.00    +0.000 N 
ATOM     13  H   UNL     1       1.828   7.587  20.259  0.00  0.00    +0.000 HD
BRANCH  12  14
ATOM     14  C   UNL     1       3.155   6.868  18.704  0.00  0.00    +0.000 C 
ATOM     15  C   UNL     1       3.812   5.940  19.740  0.00  0.00    +0.000 C 
ATOM     16  C   UNL     1       2.895   4.805  20.197  0.00  0.00    +0.000 C 
ATOM     17  C   UNL     1       2.346   4.017  19.012  0.00  0.00    +0.000 C 
ATOM     18  C   UNL     1       1.639   4.930  18.017  0.00  0.00    +0.000 C 
ATOM     19  C   UNL     1       2.550   6.062  17.545  0.00  0.00    +0.000 C 
ENDBRANCH  12  14
BRANCH   9  20
ATOM     20  O   UNL     1       0.875   9.375  20.867  0.00  0.00    +0.000 OA
ATOM     21  H   UNL     1       0.025   8.944  21.074  0.00  0.00    +0.000 HD
ENDBRANCH   9  20
ENDBRANCH   8   9
BRANCH   7  22
ATOM     22  C   UNL     1      -2.159  10.357  19.265  0.00  0.00    +0.000 C 
BRANCH  22  23
ATOM     23  C   UNL     1      -2.715  10.521  17.861  0.00  0.00    +0.000 A 
ATOM     24  C   UNL     1      -3.873  11.314  17.650  0.00  0.00    +0.000 A 
ATOM     25  C   UNL     1      -4.454  11.441  16.382  0.00  0.00    +0.000 A 
ATOM     26  C   UNL     1      -3.865  10.766  15.340  0.00  0.00    +0.000 A 
ATOM     27  C   UNL     1      -2.736  10.004  15.524  0.00  0.00    +0.000 A 
ATOM     28  C   UNL     1      -2.139   9.862  16.763  0.00  0.00    +0.000 A 
ATOM     29  O   UNL     1      -2.315   9.419  14.369  0.00  0.00    +0.000 OA
ATOM     30  C   UNL     1      -3.313   9.897  13.441  0.00  0.00    +0.000 C 
ATOM     31  O   UNL     1      -4.302  10.750  14.053  0.00  0.00    +0.000 OA
ENDBRANCH  22  23
ENDBRANCH   7  22
TORSDOF 5
ENDMDL
MODEL 6
REMARK VINA RESULT:      -6.4      8.342     12.725
REMARK  Name = 
REMARK  7 active torsions:
REMARK  status: ('A' for Active; 'I' for Inactive)
REMARK    1  A    between atoms: C_1  and  C_2
REMARK    2  A    between atoms: C_2  and  C_3
REMARK    3  A    between atoms: N_7  and  C_8
REMARK    4  A    between atoms: C_8  and  C_9
REMARK    5  A    between atoms: C_18  and  N_19
REMARK    6  A    between atoms: N_19  and  O_20
REMARK    7  A    between atoms: N_23  and  C_24
REMARK                            x       y       z     vdW  Elec       q    Type
REMARK                         _______ _______ _______ _____ _____    ______ ____
ROOT
ATOM      1  C   UNL     1      -2.954  16.013  22.356  0.00  0.00    +0.000 C 
ATOM      2  C   UNL     1      -3.843  15.067  23.171  0.00  0.00    +0.000 C 
ATOM      3  C   UNL     1      -3.200  14.768  24.533  0.00  0.00    +0.000 C 
ATOM      4  S   UNL     1      -5.393  15.969  23.532  0.00  0.00    +0.000 S 
ATOM      5  C   UNL     1      -6.400  14.549  23.403  0.00  0.00    +0.000 C 
ATOM      6  S   UNL     1      -7.905  14.465  24.112  0.00  0.00    +0.000 S 
ATOM      7  N   UNL     1      -5.751  13.566  22.669  0.00  0.00    +0.000 N 
ATOM      8  C   UNL     1      -4.322  13.812  22.369  0.00  0.00    +0.000 C 
ENDROOT
BRANCH   8   9
ATOM      9  N   UNL     1      -3.505  12.597  22.595  0.00  0.00    +0.000 N 
ATOM     10  C   UNL     1      -2.245  12.434  22.046  0.00  0.00    +0.000 C 
ATOM     11  O   UNL     1      -1.812  13.157  21.151  0.00  0.00    +0.000 OA
ATOM     12  N   UNL     1      -1.512  11.419  22.606  0.00  0.00    +0.000 N 
ATOM     13  H   UNL     1      -2.040  10.795  23.209  0.00  0.00    +0.000 HD
BRANCH  12  14
ATOM     14  C   UNL     1      -0.124  11.144  22.260  0.00  0.00    +0.000 C 
ATOM     15  C   UNL     1       0.347   9.801  22.843  0.00  0.00    +0.000 C 
ATOM     16  C   UNL     1      -0.195   8.592  22.080  0.00  0.00    +0.000 C 
ATOM     17  C   UNL     1       0.108   8.689  20.589  0.00  0.00    +0.000 C 
ATOM     18  C   UNL     1      -0.417   9.993  19.999  0.00  0.00    +0.000 C 
ATOM     19  C   UNL     1       0.128  11.209  20.747  0.00  0.00    +0.000 C 
ENDBRANCH  12  14
BRANCH   9  20
ATOM     20  O   UNL     1      -3.774  11.863  23.782  0.00  0.00    +0.000 OA
ATOM     21  H   UNL     1      -4.662  12.176  24.039  0.00  0.00    +0.000 HD
ENDBRANCH   9  20
ENDBRANCH   8   9
BRANCH   7  22
ATOM     22  C   UNL     1      -6.482  12.522  21.940  0.00  0.00    +0.000 C 
BRANCH  22  23
ATOM     23  C   UNL     1      -6.711  12.815  20.467  0.00  0.00    +0.000 A 
ATOM     24  C   UNL     1      -6.910  11.744  19.558  0.00  0.00    +0.000 A 
ATOM     25  C   UNL     1      -7.062  11.966  18.184  0.00  0.00    +0.000 A 
ATOM     26  C   UNL     1      -7.009  13.265  17.739  0.00  0.00    +0.000 A 
ATOM     27  C   UNL     1      -6.830  14.316  18.607  0.00  0.00    +0.000 A 
ATOM     28  C   UNL     1      -6.679  14.127  19.968  0.00  0.00    +0.000 A 
ATOM     29  O   UNL     1      -6.804  15.516  17.965  0.00  0.00    +0.000 OA
ATOM     30  C   UNL     1      -6.983  15.097  16.595  0.00  0.00    +0.000 C 
ATOM     31  O   UNL     1      -7.110  13.669  16.444  0.00  0.00    +0.000 OA
ENDBRANCH  22  23
ENDBRANCH   7  22
TORSDOF 5
ENDMDL
MODEL 7
REMARK VINA RESULT:      -6.3      7.970     10.402
REMARK  Name = 
REMARK  7 active torsions:
REMARK  status: ('A' for Active; 'I' for Inactive)
REMARK    1  A    between atoms: C_1  and  C_2
REMARK    2  A    between atoms: C_2  and  C_3
REMARK    3  A    between atoms: N_7  and  C_8
REMARK    4  A    between atoms: C_8  and  C_9
REMARK    5  A    between atoms: C_18  and  N_19
REMARK    6  A    between atoms: N_19  and  O_20
REMARK    7  A    between atoms: N_23  and  C_24
REMARK                            x       y       z     vdW  Elec       q    Type
REMARK                         _______ _______ _______ _____ _____    ______ ____
ROOT
ATOM      1  C   UNL     1      -2.055  16.513  20.072  0.00  0.00    +0.000 C 
ATOM      2  C   UNL     1      -1.516  15.558  21.143  0.00  0.00    +0.000 C 
ATOM      3  C   UNL     1      -0.731  16.336  22.207  0.00  0.00    +0.000 C 
ATOM      4  S   UNL     1      -2.966  14.848  22.003  0.00  0.00    +0.000 S 
ATOM      5  C   UNL     1      -2.228  13.282  22.227  0.00  0.00    +0.000 C 
ATOM      6  S   UNL     1      -2.743  12.222  23.404  0.00  0.00    +0.000 S 
ATOM      7  N   UNL     1      -1.192  13.107  21.320  0.00  0.00    +0.000 N 
ATOM      8  C   UNL     1      -0.785  14.307  20.554  0.00  0.00    +0.000 C 
ENDROOT
BRANCH   8   9
ATOM      9  N   UNL     1       0.690  14.436  20.495  0.00  0.00    +0.000 N 
ATOM     10  C   UNL     1       1.331  15.217  19.549  0.00  0.00    +0.000 C 
ATOM     11  O   UNL     1       0.759  15.662  18.556  0.00  0.00    +0.000 OA
ATOM     12  N   UNL     1       2.648  15.477  19.831  0.00  0.00    +0.000 N 
ATOM     13  H   UNL     1       3.041  14.917  20.582  0.00  0.00    +0.000 HD
BRANCH  12  14
ATOM     14  C   UNL     1       3.481  16.368  19.033  0.00  0.00    +0.000 C 
ATOM     15  C   UNL     1       4.655  16.927  19.854  0.00  0.00    +0.000 C 
ATOM     16  C   UNL     1       5.772  15.907  20.075  0.00  0.00    +0.000 C 
ATOM     17  C   UNL     1       6.249  15.304  18.758  0.00  0.00    +0.000 C 
ATOM     18  C   UNL     1       5.092  14.693  17.976  0.00  0.00    +0.000 C 
ATOM     19  C   UNL     1       3.974  15.708  17.739  0.00  0.00    +0.000 C 
ENDBRANCH  12  14
BRANCH   9  20
ATOM     20  O   UNL     1       1.396  14.206  21.706  0.00  0.00    +0.000 OA
ATOM     21  H   UNL     1       0.878  13.499  22.134  0.00  0.00    +0.000 HD
ENDBRANCH   9  20
ENDBRANCH   8   9
BRANCH   7  22
ATOM     22  C   UNL     1      -0.749  11.776  20.885  0.00  0.00    +0.000 C 
BRANCH  22  23
ATOM     23  C   UNL     1      -1.343  11.307  19.568  0.00  0.00    +0.000 A 
ATOM     24  C   UNL     1      -0.635  10.372  18.769  0.00  0.00    +0.000 A 
ATOM     25  C   UNL     1      -1.116   9.961  17.520  0.00  0.00    +0.000 A 
ATOM     26  C   UNL     1      -2.305  10.498  17.087  0.00  0.00    +0.000 A 
ATOM     27  C   UNL     1      -3.010  11.395  17.853  0.00  0.00    +0.000 A 
ATOM     28  C   UNL     1      -2.561  11.817  19.090  0.00  0.00    +0.000 A 
ATOM     29  O   UNL     1      -4.155  11.806  17.242  0.00  0.00    +0.000 OA
ATOM     30  C   UNL     1      -4.084  11.068  16.003  0.00  0.00    +0.000 C 
ATOM     31  O   UNL     1      -2.909  10.238  15.897  0.00  0.00    +0.000 OA
ENDBRANCH  22  23
ENDBRANCH   7  22
TORSDOF 5
ENDMDL
MODEL 8
REMARK VINA RESULT:      -6.3      7.995     10.229
REMARK  Name = 
REMARK  7 active torsions:
REMARK  status: ('A' for Active; 'I' for Inactive)
REMARK    1  A    between atoms: C_1  and  C_2
REMARK    2  A    between atoms: C_2  and  C_3
REMARK    3  A    between atoms: N_7  and  C_8
REMARK    4  A    between atoms: C_8  and  C_9
REMARK    5  A    between atoms: C_18  and  N_19
REMARK    6  A    between atoms: N_19  and  O_20
REMARK    7  A    between atoms: N_23  and  C_24
REMARK                            x       y       z     vdW  Elec       q    Type
REMARK                         _______ _______ _______ _____ _____    ______ ____
ROOT
ATOM      1  C   UNL     1      -0.576  16.414  20.836  0.00  0.00    +0.000 C 
ATOM      2  C   UNL     1      -0.098  15.109  21.483  0.00  0.00    +0.000 C 
ATOM      3  C   UNL     1       1.063  15.384  22.448  0.00  0.00    +0.000 C 
ATOM      4  S   UNL     1      -1.476  14.489  22.514  0.00  0.00    +0.000 S 
ATOM      5  C   UNL     1      -1.142  12.809  22.178  0.00  0.00    +0.000 C 
ATOM      6  S   UNL     1      -1.665  11.585  23.179  0.00  0.00    +0.000 S 
ATOM      7  N   UNL     1      -0.395  12.693  21.013  0.00  0.00    +0.000 N 
ATOM      8  C   UNL     1       0.145  13.954  20.456  0.00  0.00    +0.000 C 
ENDROOT
BRANCH   8   9
ATOM      9  N   UNL     1       1.559  13.799  20.040  0.00  0.00    +0.000 N 
ATOM     10  C   UNL     1       2.143  14.602  19.075  0.00  0.00    +0.000 C 
ATOM     11  O   UNL     1       1.489  15.329  18.331  0.00  0.00    +0.000 OA
ATOM     12  N   UNL     1       3.513  14.540  19.044  0.00  0.00    +0.000 N 
ATOM     13  H   UNL     1       3.917  13.782  19.587  0.00  0.00    +0.000 HD
BRANCH  12  14
ATOM     14  C   UNL     1       4.337  15.383  18.187  0.00  0.00    +0.000 C 
ATOM     15  C   UNL     1       4.520  16.787  18.787  0.00  0.00    +0.000 C 
ATOM     16  C   UNL     1       5.511  16.818  19.950  0.00  0.00    +0.000 C 
ATOM     17  C   UNL     1       6.849  16.198  19.564  0.00  0.00    +0.000 C 
ATOM     18  C   UNL     1       6.671  14.781  19.030  0.00  0.00    +0.000 C 
ATOM     19  C   UNL     1       5.691  14.740  17.858  0.00  0.00    +0.000 C 
ENDBRANCH  12  14
BRANCH   9  20
ATOM     20  O   UNL     1       2.439  13.210  20.988  0.00  0.00    +0.000 OA
ATOM     21  H   UNL     1       2.023  13.431  21.842  0.00  0.00    +0.000 HD
ENDBRANCH   9  20
ENDBRANCH   8   9
BRANCH   7  22
ATOM     22  C   UNL     1      -0.413  11.478  20.189  0.00  0.00    +0.000 C 
BRANCH  22  23
ATOM     23  C   UNL     1      -1.504  11.440  19.133  0.00  0.00    +0.000 A 
ATOM     24  C   UNL     1      -2.788  11.968  19.427  0.00  0.00    +0.000 A 
ATOM     25  C   UNL     1      -3.839  11.897  18.505  0.00  0.00    +0.000 A 
ATOM     26  C   UNL     1      -3.588  11.293  17.296  0.00  0.00    +0.000 A 
ATOM     27  C   UNL     1      -2.347  10.788  16.990  0.00  0.00    +0.000 A 
ATOM     28  C   UNL     1      -1.289  10.846  17.879  0.00  0.00    +0.000 A 
ATOM     29  O   UNL     1      -2.309  10.231  15.748  0.00  0.00    +0.000 OA
ATOM     30  C   UNL     1      -3.671  10.440  15.314  0.00  0.00    +0.000 C 
ATOM     31  O   UNL     1      -4.488  11.111  16.294  0.00  0.00    +0.000 OA
ENDBRANCH  22  23
ENDBRANCH   7  22
TORSDOF 5
ENDMDL
MODEL 9
REMARK VINA RESULT:      -6.2      7.168     12.207
REMARK  Name = 
REMARK  7 active torsions:
REMARK  status: ('A' for Active; 'I' for Inactive)
REMARK    1  A    between atoms: C_1  and  C_2
REMARK    2  A    between atoms: C_2  and  C_3
REMARK    3  A    between atoms: N_7  and  C_8
REMARK    4  A    between atoms: C_8  and  C_9
REMARK    5  A    between atoms: C_18  and  N_19
REMARK    6  A    between atoms: N_19  and  O_20
REMARK    7  A    between atoms: N_23  and  C_24
REMARK                            x       y       z     vdW  Elec       q    Type
REMARK                         _______ _______ _______ _____ _____    ______ ____
ROOT
ATOM      1  C   UNL     1      -0.554  15.859  18.971  0.00  0.00    +0.000 C 
ATOM      2  C   UNL     1       0.298  15.783  20.243  0.00  0.00    +0.000 C 
ATOM      3  C   UNL     1       1.739  15.383  19.898  0.00  0.00    +0.000 C 
ATOM      4  S   UNL     1       0.394  17.478  20.923  0.00  0.00    +0.000 S 
ATOM      5  C   UNL     1       0.368  16.951  22.587  0.00  0.00    +0.000 C 
ATOM      6  S   UNL     1       0.944  17.903  23.826  0.00  0.00    +0.000 S 
ATOM      7  N   UNL     1      -0.166  15.672  22.675  0.00  0.00    +0.000 N 
ATOM      8  C   UNL     1      -0.368  14.959  21.393  0.00  0.00    +0.000 C 
ENDROOT
BRANCH   8   9
ATOM      9  N   UNL     1       0.093  13.553  21.479  0.00  0.00    +0.000 N 
ATOM     10  C   UNL     1      -0.620  12.501  20.930  0.00  0.00    +0.000 C 
ATOM     11  O   UNL     1      -1.783  12.614  20.549  0.00  0.00    +0.000 OA
ATOM     12  N   UNL     1       0.092  11.334  20.819  0.00  0.00    +0.000 N 
ATOM     13  H   UNL     1       0.975  11.325  21.322  0.00  0.00    +0.000 HD
BRANCH  12  14
ATOM     14  C   UNL     1      -0.424  10.136  20.169  0.00  0.00    +0.000 C 
ATOM     15  C   UNL     1      -0.036  10.091  18.682  0.00  0.00    +0.000 C 
ATOM     16  C   UNL     1       1.428   9.714  18.454  0.00  0.00    +0.000 C 
ATOM     17  C   UNL     1       1.788   8.413  19.164  0.00  0.00    +0.000 C 
ATOM     18  C   UNL     1       1.462   8.483  20.651  0.00  0.00    +0.000 C 
ATOM     19  C   UNL     1      -0.002   8.848  20.890  0.00  0.00    +0.000 C 
ENDBRANCH  12  14
BRANCH   9  20
ATOM     20  O   UNL     1       1.491  13.351  21.639  0.00  0.00    +0.000 OA
ATOM     21  H   UNL     1       1.586  12.384  21.554  0.00  0.00    +0.000 HD
ENDBRANCH   9  20
ENDBRANCH   8   9
BRANCH   7  22
ATOM     22  C   UNL     1      -0.811  15.175  23.898  0.00  0.00    +0.000 C 
BRANCH  22  23
ATOM     23  C   UNL     1      -2.309  14.955  23.784  0.00  0.00    +0.000 A 
ATOM     24  C   UNL     1      -3.178  16.069  23.655  0.00  0.00    +0.000 A 
ATOM     25  C   UNL     1      -4.569  15.914  23.610  0.00  0.00    +0.000 A 
ATOM     26  C   UNL     1      -5.071  14.638  23.698  0.00  0.00    +0.000 A 
ATOM     27  C   UNL     1      -4.243  13.546  23.809  0.00  0.00    +0.000 A 
ATOM     28  C   UNL     1      -2.867  13.668  23.854  0.00  0.00    +0.000 A 
ATOM     29  O   UNL     1      -4.939  12.377  23.884  0.00  0.00    +0.000 OA
ATOM     30  C   UNL     1      -6.297  12.863  23.812  0.00  0.00    +0.000 C 
ATOM     31  O   UNL     1      -6.387  14.298  23.697  0.00  0.00    +0.000 OA
ENDBRANCH  22  23
ENDBRANCH   7  22
TORSDOF 5
ENDMDL
