MODEL 1
REMARK VINA RESULT:      -6.3      0.000      0.000
REMARK  Name = 
REMARK  5 active torsions:
REMARK  status: ('A' for Active; 'I' for Inactive)
REMARK    1  A    between atoms: C_1  and  N_2
REMARK    2  A    between atoms: N_11  and  C_12
REMARK    3  A    between atoms: C_12  and  C_13
REMARK    4  A    between atoms: C_13  and  C_14
REMARK    5  A    between atoms: C_14  and  C_15
REMARK                            x       y       z     vdW  Elec       q    Type
REMARK                         _______ _______ _______ _____ _____    ______ ____
ROOT
ATOM      1  C   UNL     1       8.068   6.436  18.685  0.00  0.00    +0.000 C 
ATOM      2  N   UNL     1       6.945   5.697  18.139  0.00  0.00    +0.000 N 
ATOM      3  C   UNL     1       6.116   5.020  19.034  0.00  0.00    +0.000 A 
ATOM      4  O   UNL     1       6.247   5.003  20.252  0.00  0.00    +0.000 OA
ATOM      5  C   UNL     1       5.071   4.324  18.379  0.00  0.00    +0.000 A 
ATOM      6  N   UNL     1       4.067   3.551  18.890  0.00  0.00    +0.000 N 
ATOM      7  C   UNL     1       3.347   3.123  17.816  0.00  0.00    +0.000 A 
ATOM      8 CL   UNL     1       1.992   2.141  18.076  0.00  0.00    +0.000 Cl
ATOM      9  N   UNL     1       3.814   3.559  16.671  0.00  0.00    +0.000 NA
ATOM     10  C   UNL     1       4.885   4.320  17.030  0.00  0.00    +0.000 A 
ATOM     11  N   UNL     1       5.706   5.033  16.186  0.00  0.00    +0.000 N 
ATOM     12  C   UNL     1       6.791   5.734  16.735  0.00  0.00    +0.000 A 
ATOM     13  O   UNL     1       7.578   6.367  16.026  0.00  0.00    +0.000 OA
ATOM     14  H   UNL     1       3.887   3.344  19.863  0.00  0.00    +0.000 HD
ENDROOT
BRANCH  11  15
ATOM     15  C   UNL     1       5.525   4.984  14.734  0.00  0.00    +0.000 C 
BRANCH  15  16
ATOM     16  C   UNL     1       6.230   3.820  14.028  0.00  0.00    +0.000 C 
BRANCH  16  17
ATOM     17  C   UNL     1       6.792   4.180  12.655  0.00  0.00    +0.000 C 
BRANCH  17  18
ATOM     18  C   UNL     1       7.868   5.178  12.789  0.00  0.00    +0.000 C 
ATOM     19  N   UNL     1       8.719   5.958  12.900  0.00  0.00    +0.000 NA
ENDBRANCH  17  18
ENDBRANCH  16  17
ENDBRANCH  15  16
ENDBRANCH  11  15
TORSDOF 4
ENDMDL
MODEL 2
REMARK VINA RESULT:      -6.3      3.965      5.921
REMARK  Name = 
REMARK  5 active torsions:
REMARK  status: ('A' for Active; 'I' for Inactive)
REMARK    1  A    between atoms: C_1  and  N_2
REMARK    2  A    between atoms: N_11  and  C_12
REMARK    3  A    between atoms: C_12  and  C_13
REMARK    4  A    between atoms: C_13  and  C_14
REMARK    5  A    between atoms: C_14  and  C_15
REMARK                            x       y       z     vdW  Elec       q    Type
REMARK                         _______ _______ _______ _____ _____    ______ ____
ROOT
ATOM      1  C   UNL     1       2.345   2.647  21.520  0.00  0.00    +0.000 C 
ATOM      2  N   UNL     1       2.950   3.370  20.417  0.00  0.00    +0.000 N 
ATOM      3  C   UNL     1       4.228   2.984  20.010  0.00  0.00    +0.000 A 
ATOM      4  O   UNL     1       4.885   2.072  20.500  0.00  0.00    +0.000 OA
ATOM      5  C   UNL     1       4.716   3.773  18.942  0.00  0.00    +0.000 A 
ATOM      6  N   UNL     1       5.905   3.718  18.272  0.00  0.00    +0.000 N 
ATOM      7  C   UNL     1       5.851   4.711  17.341  0.00  0.00    +0.000 A 
ATOM      8 CL   UNL     1       7.168   4.929  16.298  0.00  0.00    +0.000 Cl
ATOM      9  N   UNL     1       4.729   5.390  17.370  0.00  0.00    +0.000 NA
ATOM     10  C   UNL     1       4.017   4.791  18.365  0.00  0.00    +0.000 A 
ATOM     11  N   UNL     1       2.743   5.114  18.773  0.00  0.00    +0.000 N 
ATOM     12  C   UNL     1       2.181   4.408  19.848  0.00  0.00    +0.000 A 
ATOM     13  O   UNL     1       1.055   4.673  20.277  0.00  0.00    +0.000 OA
ATOM     14  H   UNL     1       6.665   3.071  18.425  0.00  0.00    +0.000 HD
ENDROOT
BRANCH  11  15
ATOM     15  C   UNL     1       2.021   6.239  18.177  0.00  0.00    +0.000 C 
BRANCH  15  16
ATOM     16  C   UNL     1       2.390   7.620  18.733  0.00  0.00    +0.000 C 
BRANCH  16  17
ATOM     17  C   UNL     1       2.164   8.763  17.747  0.00  0.00    +0.000 C 
BRANCH  17  18
ATOM     18  C   UNL     1       1.494   9.891  18.417  0.00  0.00    +0.000 C 
ATOM     19  N   UNL     1       0.975  10.783  18.947  0.00  0.00    +0.000 NA
ENDBRANCH  17  18
ENDBRANCH  16  17
ENDBRANCH  15  16
ENDBRANCH  11  15
TORSDOF 4
ENDMDL
MODEL 3
REMARK VINA RESULT:      -6.2      2.726      4.754
REMARK  Name = 
REMARK  5 active torsions:
REMARK  status: ('A' for Active; 'I' for Inactive)
REMARK    1  A    between atoms: C_1  and  N_2
REMARK    2  A    between atoms: N_11  and  C_12
REMARK    3  A    between atoms: C_12  and  C_13
REMARK    4  A    between atoms: C_13  and  C_14
REMARK    5  A    between atoms: C_14  and  C_15
REMARK                            x       y       z     vdW  Elec       q    Type
REMARK                         _______ _______ _______ _____ _____    ______ ____
ROOT
ATOM      1  C   UNL     1       3.332   3.848  19.308  0.00  0.00    +0.000 C 
ATOM      2  N   UNL     1       4.364   4.094  18.319  0.00  0.00    +0.000 N 
ATOM      3  C   UNL     1       4.049   3.862  16.980  0.00  0.00    +0.000 A 
ATOM      4  O   UNL     1       2.964   3.476  16.561  0.00  0.00    +0.000 OA
ATOM      5  C   UNL     1       5.141   4.119  16.117  0.00  0.00    +0.000 A 
ATOM      6  N   UNL     1       5.239   4.012  14.759  0.00  0.00    +0.000 N 
ATOM      7  C   UNL     1       6.515   4.380  14.450  0.00  0.00    +0.000 A 
ATOM      8 CL   UNL     1       6.996   4.386  12.827  0.00  0.00    +0.000 Cl
ATOM      9  N   UNL     1       7.229   4.706  15.500  0.00  0.00    +0.000 NA
ATOM     10  C   UNL     1       6.361   4.554  16.539  0.00  0.00    +0.000 A 
ATOM     11  N   UNL     1       6.617   4.806  17.868  0.00  0.00    +0.000 N 
ATOM     12  C   UNL     1       5.607   4.553  18.808  0.00  0.00    +0.000 A 
ATOM     13  O   UNL     1       5.788   4.732  20.016  0.00  0.00    +0.000 OA
ATOM     14  H   UNL     1       4.517   3.729  14.112  0.00  0.00    +0.000 HD
ENDROOT
BRANCH  11  15
ATOM     15  C   UNL     1       7.946   5.228  18.316  0.00  0.00    +0.000 C 
BRANCH  15  16
ATOM     16  C   UNL     1       8.054   6.697  18.744  0.00  0.00    +0.000 C 
BRANCH  16  17
ATOM     17  C   UNL     1       7.704   7.689  17.639  0.00  0.00    +0.000 C 
BRANCH  17  18
ATOM     18  C   UNL     1       8.233   9.025  17.966  0.00  0.00    +0.000 C 
ATOM     19  N   UNL     1       8.658  10.073  18.223  0.00  0.00    +0.000 NA
ENDBRANCH  17  18
ENDBRANCH  16  17
ENDBRANCH  15  16
ENDBRANCH  11  15
TORSDOF 4
ENDMDL
MODEL 4
REMARK VINA RESULT:      -6.2      3.310      5.683
REMARK  Name = 
REMARK  5 active torsions:
REMARK  status: ('A' for Active; 'I' for Inactive)
REMARK    1  A    between atoms: C_1  and  N_2
REMARK    2  A    between atoms: N_11  and  C_12
REMARK    3  A    between atoms: C_12  and  C_13
REMARK    4  A    between atoms: C_13  and  C_14
REMARK    5  A    between atoms: C_14  and  C_15
REMARK                            x       y       z     vdW  Elec       q    Type
REMARK                         _______ _______ _______ _____ _____    ______ ____
ROOT
ATOM      1  C   UNL     1       6.563   4.480  17.335  0.00  0.00    +0.000 C 
ATOM      2  N   UNL     1       5.385   5.187  17.803  0.00  0.00    +0.000 N 
ATOM      3  C   UNL     1       5.031   6.366  17.145  0.00  0.00    +0.000 A 
ATOM      4  O   UNL     1       5.626   6.854  16.192  0.00  0.00    +0.000 OA
ATOM      5  C   UNL     1       3.881   6.971  17.705  0.00  0.00    +0.000 A 
ATOM      6  N   UNL     1       3.226   8.117  17.357  0.00  0.00    +0.000 N 
ATOM      7  C   UNL     1       2.186   8.229  18.230  0.00  0.00    +0.000 A 
ATOM      8 CL   UNL     1       1.130   9.545  18.083  0.00  0.00    +0.000 Cl
ATOM      9  N   UNL     1       2.132   7.251  19.101  0.00  0.00    +0.000 NA
ATOM     10  C   UNL     1       3.187   6.459  18.760  0.00  0.00    +0.000 A 
ATOM     11  N   UNL     1       3.550   5.273  19.356  0.00  0.00    +0.000 N 
ATOM     12  C   UNL     1       4.697   4.610  18.892  0.00  0.00    +0.000 A 
ATOM     13  O   UNL     1       5.088   3.558  19.406  0.00  0.00    +0.000 OA
ATOM     14  H   UNL     1       3.456   8.750  16.603  0.00  0.00    +0.000 HD
ENDROOT
BRANCH  11  15
ATOM     15  C   UNL     1       2.826   4.757  20.519  0.00  0.00    +0.000 C 
BRANCH  15  16
ATOM     16  C   UNL     1       1.422   4.212  20.224  0.00  0.00    +0.000 C 
BRANCH  16  17
ATOM     17  C   UNL     1       1.383   2.706  19.980  0.00  0.00    +0.000 C 
BRANCH  17  18
ATOM     18  C   UNL     1       1.823   2.398  18.608  0.00  0.00    +0.000 C 
ATOM     19  N   UNL     1       2.164   2.164  17.525  0.00  0.00    +0.000 NA
ENDBRANCH  17  18
ENDBRANCH  16  17
ENDBRANCH  15  16
ENDBRANCH  11  15
TORSDOF 4
ENDMDL
MODEL 5
REMARK VINA RESULT:      -6.2      1.417      1.549
REMARK  Name = 
REMARK  5 active torsions:
REMARK  status: ('A' for Active; 'I' for Inactive)
REMARK    1  A    between atoms: C_1  and  N_2
REMARK    2  A    between atoms: N_11  and  C_12
REMARK    3  A    between atoms: C_12  and  C_13
REMARK    4  A    between atoms: C_13  and  C_14
REMARK    5  A    between atoms: C_14  and  C_15
REMARK                            x       y       z     vdW  Elec       q    Type
REMARK                         _______ _______ _______ _____ _____    ______ ____
ROOT
ATOM      1  C   UNL     1       8.212   6.840  18.548  0.00  0.00    +0.000 C 
ATOM      2  N   UNL     1       7.156   5.950  18.104  0.00  0.00    +0.000 N 
ATOM      3  C   UNL     1       6.492   5.195  19.072  0.00  0.00    +0.000 A 
ATOM      4  O   UNL     1       6.718   5.228  20.276  0.00  0.00    +0.000 OA
ATOM      5  C   UNL     1       5.500   4.355  18.514  0.00  0.00    +0.000 A 
ATOM      6  N   UNL     1       4.647   3.474  19.115  0.00  0.00    +0.000 N 
ATOM      7  C   UNL     1       3.908   2.929  18.108  0.00  0.00    +0.000 A 
ATOM      8 CL   UNL     1       2.716   1.789  18.491  0.00  0.00    +0.000 Cl
ATOM      9  N   UNL     1       4.226   3.391  16.923  0.00  0.00    +0.000 NA
ATOM     10  C   UNL     1       5.213   4.292  17.184  0.00  0.00    +0.000 A 
ATOM     11  N   UNL     1       5.868   5.082  16.266  0.00  0.00    +0.000 N 
ATOM     12  C   UNL     1       6.892   5.930  16.717  0.00  0.00    +0.000 A 
ATOM     13  O   UNL     1       7.534   6.640  15.937  0.00  0.00    +0.000 OA
ATOM     14  H   UNL     1       4.570   3.271  20.102  0.00  0.00    +0.000 HD
ENDROOT
BRANCH  11  15
ATOM     15  C   UNL     1       5.585   4.973  14.834  0.00  0.00    +0.000 C 
BRANCH  15  16
ATOM     16  C   UNL     1       6.246   3.783  14.127  0.00  0.00    +0.000 C 
BRANCH  16  17
ATOM     17  C   UNL     1       6.365   3.952  12.615  0.00  0.00    +0.000 C 
BRANCH  17  18
ATOM     18  C   UNL     1       5.990   2.703  11.930  0.00  0.00    +0.000 C 
ATOM     19  N   UNL     1       5.700   1.723  11.382  0.00  0.00    +0.000 NA
ENDBRANCH  17  18
ENDBRANCH  16  17
ENDBRANCH  15  16
ENDBRANCH  11  15
TORSDOF 4
ENDMDL
MODEL 6
REMARK VINA RESULT:      -6.2      3.287      5.924
REMARK  Name = 
REMARK  5 active torsions:
REMARK  status: ('A' for Active; 'I' for Inactive)
REMARK    1  A    between atoms: C_1  and  N_2
REMARK    2  A    between atoms: N_11  and  C_12
REMARK    3  A    between atoms: C_12  and  C_13
REMARK    4  A    between atoms: C_13  and  C_14
REMARK    5  A    between atoms: C_14  and  C_15
REMARK                            x       y       z     vdW  Elec       q    Type
REMARK                         _______ _______ _______ _____ _____    ______ ____
ROOT
ATOM      1  C   UNL     1       7.507   4.758  17.766  0.00  0.00    +0.000 C 
ATOM      2  N   UNL     1       6.172   5.290  17.968  0.00  0.00    +0.000 N 
ATOM      3  C   UNL     1       5.873   6.528  17.399  0.00  0.00    +0.000 A 
ATOM      4  O   UNL     1       6.641   7.206  16.728  0.00  0.00    +0.000 OA
ATOM      5  C   UNL     1       4.551   6.946  17.683  0.00  0.00    +0.000 A 
ATOM      6  N   UNL     1       3.884   8.081  17.317  0.00  0.00    +0.000 N 
ATOM      7  C   UNL     1       2.641   7.972  17.865  0.00  0.00    +0.000 A 
ATOM      8 CL   UNL     1       1.518   9.210  17.599  0.00  0.00    +0.000 Cl
ATOM      9  N   UNL     1       2.470   6.866  18.547  0.00  0.00    +0.000 NA
ATOM     10  C   UNL     1       3.663   6.221  18.419  0.00  0.00    +0.000 A 
ATOM     11  N   UNL     1       3.989   4.986  18.932  0.00  0.00    +0.000 N 
ATOM     12  C   UNL     1       5.288   4.495  18.730  0.00  0.00    +0.000 A 
ATOM     13  O   UNL     1       5.647   3.407  19.190  0.00  0.00    +0.000 OA
ATOM     14  H   UNL     1       4.234   8.841  16.751  0.00  0.00    +0.000 HD
ENDROOT
BRANCH  11  15
ATOM     15  C   UNL     1       3.043   4.237  19.760  0.00  0.00    +0.000 C 
BRANCH  15  16
ATOM     16  C   UNL     1       1.946   3.493  18.989  0.00  0.00    +0.000 C 
BRANCH  16  17
ATOM     17  C   UNL     1       0.795   3.008  19.866  0.00  0.00    +0.000 C 
BRANCH  17  18
ATOM     18  C   UNL     1       1.278   2.713  21.226  0.00  0.00    +0.000 C 
ATOM     19  N   UNL     1       1.655   2.489  22.300  0.00  0.00    +0.000 NA
ENDBRANCH  17  18
ENDBRANCH  16  17
ENDBRANCH  15  16
ENDBRANCH  11  15
TORSDOF 4
ENDMDL
MODEL 7
REMARK VINA RESULT:      -6.1      3.512      4.685
REMARK  Name = 
REMARK  5 active torsions:
REMARK  status: ('A' for Active; 'I' for Inactive)
REMARK    1  A    between atoms: C_1  and  N_2
REMARK    2  A    between atoms: N_11  and  C_12
REMARK    3  A    between atoms: C_12  and  C_13
REMARK    4  A    between atoms: C_13  and  C_14
REMARK    5  A    between atoms: C_14  and  C_15
REMARK                            x       y       z     vdW  Elec       q    Type
REMARK                         _______ _______ _______ _____ _____    ______ ____
ROOT
ATOM      1  C   UNL     1       3.927   2.170  19.734  0.00  0.00    +0.000 C 
ATOM      2  N   UNL     1       3.628   3.573  19.517  0.00  0.00    +0.000 N 
ATOM      3  C   UNL     1       2.772   4.203  20.422  0.00  0.00    +0.000 A 
ATOM      4  O   UNL     1       2.256   3.673  21.399  0.00  0.00    +0.000 OA
ATOM      5  C   UNL     1       2.544   5.560  20.093  0.00  0.00    +0.000 A 
ATOM      6  N   UNL     1       1.779   6.505  20.715  0.00  0.00    +0.000 N 
ATOM      7  C   UNL     1       1.916   7.640  19.974  0.00  0.00    +0.000 A 
ATOM      8 CL   UNL     1       1.108   9.044  20.467  0.00  0.00    +0.000 Cl
ATOM      9  N   UNL     1       2.701   7.489  18.934  0.00  0.00    +0.000 NA
ATOM     10  C   UNL     1       3.102   6.189  19.021  0.00  0.00    +0.000 A 
ATOM     11  N   UNL     1       3.971   5.539  18.174  0.00  0.00    +0.000 N 
ATOM     12  C   UNL     1       4.239   4.180  18.398  0.00  0.00    +0.000 A 
ATOM     13  O   UNL     1       4.986   3.537  17.655  0.00  0.00    +0.000 OA
ATOM     14  H   UNL     1       1.230   6.392  21.556  0.00  0.00    +0.000 HD
ENDROOT
BRANCH  11  15
ATOM     15  C   UNL     1       4.527   6.212  16.999  0.00  0.00    +0.000 C 
BRANCH  15  16
ATOM     16  C   UNL     1       5.782   7.053  17.262  0.00  0.00    +0.000 C 
BRANCH  16  17
ATOM     17  C   UNL     1       7.087   6.273  17.133  0.00  0.00    +0.000 C 
BRANCH  17  18
ATOM     18  C   UNL     1       7.541   5.812  18.457  0.00  0.00    +0.000 C 
ATOM     19  N   UNL     1       7.900   5.459  19.501  0.00  0.00    +0.000 NA
ENDBRANCH  17  18
ENDBRANCH  16  17
ENDBRANCH  15  16
ENDBRANCH  11  15
TORSDOF 4
ENDMDL
MODEL 8
REMARK VINA RESULT:      -6.0      3.995      6.041
REMARK  Name = 
REMARK  5 active torsions:
REMARK  status: ('A' for Active; 'I' for Inactive)
REMARK    1  A    between atoms: C_1  and  N_2
REMARK    2  A    between atoms: N_11  and  C_12
REMARK    3  A    between atoms: C_12  and  C_13
REMARK    4  A    between atoms: C_13  and  C_14
REMARK    5  A    between atoms: C_14  and  C_15
REMARK                            x       y       z     vdW  Elec       q    Type
REMARK                         _______ _______ _______ _____ _____    ______ ____
ROOT
ATOM      1  C   UNL     1       1.600   2.661  20.565  0.00  0.00    +0.000 C 
ATOM      2  N   UNL     1       2.417   3.410  19.628  0.00  0.00    +0.000 N 
ATOM      3  C   UNL     1       3.229   2.688  18.753  0.00  0.00    +0.000 A 
ATOM      4  O   UNL     1       3.306   1.466  18.698  0.00  0.00    +0.000 OA
ATOM      5  C   UNL     1       3.989   3.529  17.904  0.00  0.00    +0.000 A 
ATOM      6  N   UNL     1       4.890   3.218  16.927  0.00  0.00    +0.000 N 
ATOM      7  C   UNL     1       5.325   4.411  16.431  0.00  0.00    +0.000 A 
ATOM      8 CL   UNL     1       6.455   4.411  15.171  0.00  0.00    +0.000 Cl
ATOM      9  N   UNL     1       4.774   5.447  17.016  0.00  0.00    +0.000 NA
ATOM     10  C   UNL     1       3.930   4.890  17.928  0.00  0.00    +0.000 A 
ATOM     11  N   UNL     1       3.086   5.561  18.784  0.00  0.00    +0.000 N 
ATOM     12  C   UNL     1       2.311   4.817  19.687  0.00  0.00    +0.000 A 
ATOM     13  O   UNL     1       1.559   5.364  20.498  0.00  0.00    +0.000 OA
ATOM     14  H   UNL     1       5.173   2.296  16.625  0.00  0.00    +0.000 HD
ENDROOT
BRANCH  11  15
ATOM     15  C   UNL     1       3.065   7.024  18.833  0.00  0.00    +0.000 C 
BRANCH  15  16
ATOM     16  C   UNL     1       2.109   7.697  17.841  0.00  0.00    +0.000 C 
BRANCH  16  17
ATOM     17  C   UNL     1       2.114   9.221  17.915  0.00  0.00    +0.000 C 
BRANCH  17  18
ATOM     18  C   UNL     1       0.747   9.727  18.133  0.00  0.00    +0.000 C 
ATOM     19  N   UNL     1      -0.328  10.130  18.295  0.00  0.00    +0.000 NA
ENDBRANCH  17  18
ENDBRANCH  16  17
ENDBRANCH  15  16
ENDBRANCH  11  15
TORSDOF 4
ENDMDL
MODEL 9
REMARK VINA RESULT:      -6.0      3.192      4.217
REMARK  Name = 
REMARK  5 active torsions:
REMARK  status: ('A' for Active; 'I' for Inactive)
REMARK    1  A    between atoms: C_1  and  N_2
REMARK    2  A    between atoms: N_11  and  C_12
REMARK    3  A    between atoms: C_12  and  C_13
REMARK    4  A    between atoms: C_13  and  C_14
REMARK    5  A    between atoms: C_14  and  C_15
REMARK                            x       y       z     vdW  Elec       q    Type
REMARK                         _______ _______ _______ _____ _____    ______ ____
ROOT
ATOM      1  C   UNL     1       2.954   2.583  20.989  0.00  0.00    +0.000 C 
ATOM      2  N   UNL     1       3.198   3.748  20.158  0.00  0.00    +0.000 N 
ATOM      3  C   UNL     1       2.270   4.789  20.210  0.00  0.00    +0.000 A 
ATOM      4  O   UNL     1       1.265   4.811  20.911  0.00  0.00    +0.000 OA
ATOM      5  C   UNL     1       2.608   5.855  19.344  0.00  0.00    +0.000 A 
ATOM      6  N   UNL     1       1.967   7.038  19.105  0.00  0.00    +0.000 N 
ATOM      7  C   UNL     1       2.726   7.689  18.178  0.00  0.00    +0.000 A 
ATOM      8 CL   UNL     1       2.237   9.221  17.650  0.00  0.00    +0.000 Cl
ATOM      9  N   UNL     1       3.788   7.014  17.811  0.00  0.00    +0.000 NA
ATOM     10  C   UNL     1       3.717   5.874  18.553  0.00  0.00    +0.000 A 
ATOM     11  N   UNL     1       4.626   4.840  18.560  0.00  0.00    +0.000 N 
ATOM     12  C   UNL     1       4.366   3.720  19.365  0.00  0.00    +0.000 A 
ATOM     13  O   UNL     1       5.129   2.751  19.391  0.00  0.00    +0.000 OA
ATOM     14  H   UNL     1       1.113   7.369  19.531  0.00  0.00    +0.000 HD
ENDROOT
BRANCH  11  15
ATOM     15  C   UNL     1       5.790   4.849  17.672  0.00  0.00    +0.000 C 
BRANCH  15  16
ATOM     16  C   UNL     1       5.546   4.276  16.271  0.00  0.00    +0.000 C 
BRANCH  16  17
ATOM     17  C   UNL     1       6.681   4.545  15.287  0.00  0.00    +0.000 C 
BRANCH  17  18
ATOM     18  C   UNL     1       6.349   3.997  13.960  0.00  0.00    +0.000 C 
ATOM     19  N   UNL     1       6.080   3.561  12.920  0.00  0.00    +0.000 NA
ENDBRANCH  17  18
ENDBRANCH  16  17
ENDBRANCH  15  16
ENDBRANCH  11  15
TORSDOF 4
ENDMDL
