MODEL 1
REMARK VINA RESULT:      -8.3      0.000      0.000
REMARK  Name = 
REMARK  4 active torsions:
REMARK  status: ('A' for Active; 'I' for Inactive)
REMARK    1  A    between atoms: C_1  and  C_2
REMARK    2  A    between atoms: C_4  and  C_5
REMARK    3  A    between atoms: C_13  and  C_14
REMARK    4  A    between atoms: C_14  and  N_16
REMARK                            x       y       z     vdW  Elec       q    Type
REMARK                         _______ _______ _______ _____ _____    ______ ____
ROOT
ATOM      1  C   UNL     1       5.202   4.390  14.575  0.00  0.00    +0.000 C 
ATOM      2  C   UNL     1       5.117   4.272  16.042  0.00  0.00    +0.000 A 
ATOM      3  O   UNL     1       3.915   3.877  16.559  0.00  0.00    +0.000 OA
ATOM      4  C   UNL     1       4.127   3.819  17.909  0.00  0.00    +0.000 A 
ATOM      5  N   UNL     1       5.356   4.117  18.277  0.00  0.00    +0.000 NA
ATOM      6  C   UNL     1       5.999   4.453  17.093  0.00  0.00    +0.000 A 
ENDROOT
BRANCH   4   7
ATOM      7  C   UNL     1       2.982   3.458  18.736  0.00  0.00    +0.000 A 
ATOM      8  C   UNL     1       1.794   2.960  18.176  0.00  0.00    +0.000 A 
ATOM      9  C   UNL     1       0.688   2.669  18.982  0.00  0.00    +0.000 A 
ATOM     10  C   UNL     1       0.766   2.866  20.359  0.00  0.00    +0.000 A 
ATOM     11  C   UNL     1       1.944   3.351  20.916  0.00  0.00    +0.000 A 
ATOM     12  F   UNL     1       2.016   3.538  22.239  0.00  0.00    +0.000 F 
ATOM     13  C   UNL     1       3.046   3.652  20.122  0.00  0.00    +0.000 A 
ENDBRANCH   4   7
BRANCH   6  14
ATOM     14  C   UNL     1       7.373   4.946  16.991  0.00  0.00    +0.000 C 
ATOM     15  O   UNL     1       8.345   4.214  17.172  0.00  0.00    +0.000 OA
BRANCH  14  16
ATOM     16  N   UNL     1       7.432   6.285  16.708  0.00  0.00    +0.000 NA
ATOM     17  C   UNL     1       7.748   7.106  17.649  0.00  0.00    +0.000 C 
ATOM     18  N   UNL     1       8.122   6.859  18.925  0.00  0.00    +0.000 N 
ATOM     19  N   UNL     1       7.740   8.440  17.421  0.00  0.00    +0.000 N 
ATOM     20  H   UNL     1       7.887   5.916  19.235  0.00  0.00    +0.000 HD
ATOM     21  H   UNL     1       7.776   7.545  19.586  0.00  0.00    +0.000 HD
ATOM     22  H   UNL     1       7.710   8.649  16.427  0.00  0.00    +0.000 HD
ATOM     23  H   UNL     1       8.479   8.950  17.890  0.00  0.00    +0.000 HD
ENDBRANCH  14  16
ENDBRANCH   6  14
TORSDOF 3
ENDMDL
MODEL 2
REMARK VINA RESULT:      -8.1      3.567      6.470
REMARK  Name = 
REMARK  4 active torsions:
REMARK  status: ('A' for Active; 'I' for Inactive)
REMARK    1  A    between atoms: C_1  and  C_2
REMARK    2  A    between atoms: C_4  and  C_5
REMARK    3  A    between atoms: C_13  and  C_14
REMARK    4  A    between atoms: C_14  and  N_16
REMARK                            x       y       z     vdW  Elec       q    Type
REMARK                         _______ _______ _______ _____ _____    ______ ____
ROOT
ATOM      1  C   UNL     1       7.793   7.701  17.901  0.00  0.00    +0.000 C 
ATOM      2  C   UNL     1       7.273   6.471  17.276  0.00  0.00    +0.000 A 
ATOM      3  O   UNL     1       7.463   6.337  15.929  0.00  0.00    +0.000 OA
ATOM      4  C   UNL     1       6.926   5.115  15.628  0.00  0.00    +0.000 A 
ATOM      5  N   UNL     1       6.442   4.466  16.667  0.00  0.00    +0.000 NA
ATOM      6  C   UNL     1       6.617   5.340  17.733  0.00  0.00    +0.000 A 
ENDROOT
BRANCH   4   7
ATOM      7  C   UNL     1       6.949   4.718  14.227  0.00  0.00    +0.000 A 
ATOM      8  C   UNL     1       7.773   5.362  13.289  0.00  0.00    +0.000 A 
ATOM      9  C   UNL     1       7.742   5.001  11.938  0.00  0.00    +0.000 A 
ATOM     10  C   UNL     1       6.891   3.982  11.515  0.00  0.00    +0.000 A 
ATOM     11  C   UNL     1       6.081   3.337  12.443  0.00  0.00    +0.000 A 
ATOM     12  F   UNL     1       5.264   2.358  12.034  0.00  0.00    +0.000 F 
ATOM     13  C   UNL     1       6.097   3.696  13.787  0.00  0.00    +0.000 A 
ENDBRANCH   4   7
BRANCH   6  14
ATOM     14  C   UNL     1       6.153   5.105  19.101  0.00  0.00    +0.000 C 
ATOM     15  O   UNL     1       6.928   5.054  20.055  0.00  0.00    +0.000 OA
BRANCH  14  16
ATOM     16  N   UNL     1       4.796   4.926  19.172  0.00  0.00    +0.000 NA
ATOM     17  C   UNL     1       4.337   3.747  19.415  0.00  0.00    +0.000 C 
ATOM     18  N   UNL     1       4.998   2.600  19.697  0.00  0.00    +0.000 N 
ATOM     19  N   UNL     1       3.003   3.522  19.416  0.00  0.00    +0.000 N 
ATOM     20  H   UNL     1       5.986   2.636  19.446  0.00  0.00    +0.000 HD
ATOM     21  H   UNL     1       4.562   1.776  19.301  0.00  0.00    +0.000 HD
ATOM     22  H   UNL     1       2.477   4.391  19.456  0.00  0.00    +0.000 HD
ATOM     23  H   UNL     1       2.690   2.860  20.115  0.00  0.00    +0.000 HD
ENDBRANCH  14  16
ENDBRANCH   6  14
TORSDOF 3
ENDMDL
MODEL 3
REMARK VINA RESULT:      -8.0      1.073      1.515
REMARK  Name = 
REMARK  4 active torsions:
REMARK  status: ('A' for Active; 'I' for Inactive)
REMARK    1  A    between atoms: C_1  and  C_2
REMARK    2  A    between atoms: C_4  and  C_5
REMARK    3  A    between atoms: C_13  and  C_14
REMARK    4  A    between atoms: C_14  and  N_16
REMARK                            x       y       z     vdW  Elec       q    Type
REMARK                         _______ _______ _______ _____ _____    ______ ____
ROOT
ATOM      1  C   UNL     1       5.226   4.527  14.651  0.00  0.00    +0.000 C 
ATOM      2  C   UNL     1       5.131   4.454  16.120  0.00  0.00    +0.000 A 
ATOM      3  O   UNL     1       3.907   4.144  16.643  0.00  0.00    +0.000 OA
ATOM      4  C   UNL     1       4.112   4.110  17.995  0.00  0.00    +0.000 A 
ATOM      5  N   UNL     1       5.355   4.346  18.360  0.00  0.00    +0.000 NA
ATOM      6  C   UNL     1       6.020   4.612  17.169  0.00  0.00    +0.000 A 
ENDROOT
BRANCH   4   7
ATOM      7  C   UNL     1       2.946   3.839  18.827  0.00  0.00    +0.000 A 
ATOM      8  C   UNL     1       2.806   4.400  20.107  0.00  0.00    +0.000 A 
ATOM      9  C   UNL     1       1.704   4.086  20.911  0.00  0.00    +0.000 A 
ATOM     10  C   UNL     1       0.728   3.214  20.435  0.00  0.00    +0.000 A 
ATOM     11  C   UNL     1       0.861   2.665  19.164  0.00  0.00    +0.000 A 
ATOM     12  F   UNL     1      -0.079   1.828  18.708  0.00  0.00    +0.000 F 
ATOM     13  C   UNL     1       1.957   2.963  18.362  0.00  0.00    +0.000 A 
ENDBRANCH   4   7
BRANCH   6  14
ATOM     14  C   UNL     1       7.420   5.021  17.060  0.00  0.00    +0.000 C 
ATOM     15  O   UNL     1       8.348   4.234  17.243  0.00  0.00    +0.000 OA
BRANCH  14  16
ATOM     16  N   UNL     1       7.558   6.353  16.767  0.00  0.00    +0.000 NA
ATOM     17  C   UNL     1       7.880   7.167  17.712  0.00  0.00    +0.000 C 
ATOM     18  N   UNL     1       8.193   6.915  19.004  0.00  0.00    +0.000 N 
ATOM     19  N   UNL     1       7.949   8.497  17.472  0.00  0.00    +0.000 N 
ATOM     20  H   UNL     1       7.898   5.989  19.313  0.00  0.00    +0.000 HD
ATOM     21  H   UNL     1       7.858   7.624  19.645  0.00  0.00    +0.000 HD
ATOM     22  H   UNL     1       7.966   8.697  16.476  0.00  0.00    +0.000 HD
ATOM     23  H   UNL     1       8.694   8.974  17.965  0.00  0.00    +0.000 HD
ENDBRANCH  14  16
ENDBRANCH   6  14
TORSDOF 3
ENDMDL
MODEL 4
REMARK VINA RESULT:      -7.9      2.639      3.719
REMARK  Name = 
REMARK  4 active torsions:
REMARK  status: ('A' for Active; 'I' for Inactive)
REMARK    1  A    between atoms: C_1  and  C_2
REMARK    2  A    between atoms: C_4  and  C_5
REMARK    3  A    between atoms: C_13  and  C_14
REMARK    4  A    between atoms: C_14  and  N_16
REMARK                            x       y       z     vdW  Elec       q    Type
REMARK                         _______ _______ _______ _____ _____    ______ ____
ROOT
ATOM      1  C   UNL     1       7.395   6.764  17.548  0.00  0.00    +0.000 C 
ATOM      2  C   UNL     1       6.254   5.876  17.256  0.00  0.00    +0.000 A 
ATOM      3  O   UNL     1       5.275   5.800  18.206  0.00  0.00    +0.000 OA
ATOM      4  C   UNL     1       4.344   4.952  17.670  0.00  0.00    +0.000 A 
ATOM      5  N   UNL     1       4.643   4.515  16.464  0.00  0.00    +0.000 NA
ATOM      6  C   UNL     1       5.890   5.064  16.196  0.00  0.00    +0.000 A 
ENDROOT
BRANCH   4   7
ATOM      7  C   UNL     1       3.184   4.646  18.497  0.00  0.00    +0.000 A 
ATOM      8  C   UNL     1       2.945   5.314  19.710  0.00  0.00    +0.000 A 
ATOM      9  C   UNL     1       1.854   4.969  20.515  0.00  0.00    +0.000 A 
ATOM     10  C   UNL     1       0.988   3.957  20.109  0.00  0.00    +0.000 A 
ATOM     11  C   UNL     1       1.219   3.301  18.905  0.00  0.00    +0.000 A 
ATOM     12  F   UNL     1       0.383   2.329  18.515  0.00  0.00    +0.000 F 
ATOM     13  C   UNL     1       2.305   3.630  18.101  0.00  0.00    +0.000 A 
ENDBRANCH   4   7
BRANCH   6  14
ATOM     14  C   UNL     1       6.689   4.797  15.000  0.00  0.00    +0.000 C 
ATOM     15  O   UNL     1       7.672   5.474  14.704  0.00  0.00    +0.000 OA
BRANCH  14  16
ATOM     16  N   UNL     1       6.199   3.750  14.263  0.00  0.00    +0.000 NA
ATOM     17  C   UNL     1       6.449   3.708  13.000  0.00  0.00    +0.000 C 
ATOM     18  N   UNL     1       7.215   4.524  12.240  0.00  0.00    +0.000 N 
ATOM     19  N   UNL     1       5.915   2.730  12.232  0.00  0.00    +0.000 N 
ATOM     20  H   UNL     1       7.416   5.417  12.691  0.00  0.00    +0.000 HD
ATOM     21  H   UNL     1       6.843   4.675  11.310  0.00  0.00    +0.000 HD
ATOM     22  H   UNL     1       5.548   1.969  12.797  0.00  0.00    +0.000 HD
ATOM     23  H   UNL     1       6.527   2.393  11.499  0.00  0.00    +0.000 HD
ENDBRANCH  14  16
ENDBRANCH   6  14
TORSDOF 3
ENDMDL
MODEL 5
REMARK VINA RESULT:      -7.9      2.362      3.385
REMARK  Name = 
REMARK  4 active torsions:
REMARK  status: ('A' for Active; 'I' for Inactive)
REMARK    1  A    between atoms: C_1  and  C_2
REMARK    2  A    between atoms: C_4  and  C_5
REMARK    3  A    between atoms: C_13  and  C_14
REMARK    4  A    between atoms: C_14  and  N_16
REMARK                            x       y       z     vdW  Elec       q    Type
REMARK                         _______ _______ _______ _____ _____    ______ ____
ROOT
ATOM      1  C   UNL     1       7.619   5.837  19.062  0.00  0.00    +0.000 C 
ATOM      2  C   UNL     1       6.387   5.284  18.473  0.00  0.00    +0.000 A 
ATOM      3  O   UNL     1       5.368   4.993  19.336  0.00  0.00    +0.000 OA
ATOM      4  C   UNL     1       4.358   4.539  18.532  0.00  0.00    +0.000 A 
ATOM      5  N   UNL     1       4.646   4.544  17.247  0.00  0.00    +0.000 NA
ATOM      6  C   UNL     1       5.964   4.981  17.190  0.00  0.00    +0.000 A 
ENDROOT
BRANCH   4   7
ATOM      7  C   UNL     1       3.136   4.107  19.198  0.00  0.00    +0.000 A 
ATOM      8  C   UNL     1       2.870   4.433  20.538  0.00  0.00    +0.000 A 
ATOM      9  C   UNL     1       1.715   3.964  21.175  0.00  0.00    +0.000 A 
ATOM     10  C   UNL     1       0.812   3.171  20.471  0.00  0.00    +0.000 A 
ATOM     11  C   UNL     1       1.069   2.855  19.141  0.00  0.00    +0.000 A 
ATOM     12  F   UNL     1       0.199   2.094  18.467  0.00  0.00    +0.000 F 
ATOM     13  C   UNL     1       2.219   3.309  18.503  0.00  0.00    +0.000 A 
ENDBRANCH   4   7
BRANCH   6  14
ATOM     14  C   UNL     1       6.770   5.071  15.972  0.00  0.00    +0.000 C 
ATOM     15  O   UNL     1       7.595   5.966  15.798  0.00  0.00    +0.000 OA
BRANCH  14  16
ATOM     16  N   UNL     1       6.473   4.082  15.071  0.00  0.00    +0.000 NA
ATOM     17  C   UNL     1       6.759   4.266  13.828  0.00  0.00    +0.000 C 
ATOM     18  N   UNL     1       7.403   5.295  13.231  0.00  0.00    +0.000 N 
ATOM     19  N   UNL     1       6.410   3.342  12.904  0.00  0.00    +0.000 N 
ATOM     20  H   UNL     1       7.446   6.132  13.813  0.00  0.00    +0.000 HD
ATOM     21  H   UNL     1       7.036   5.522  12.314  0.00  0.00    +0.000 HD
ATOM     22  H   UNL     1       6.155   2.458  13.336  0.00  0.00    +0.000 HD
ATOM     23  H   UNL     1       7.086   3.216  12.161  0.00  0.00    +0.000 HD
ENDBRANCH  14  16
ENDBRANCH   6  14
TORSDOF 3
ENDMDL
MODEL 6
REMARK VINA RESULT:      -7.7      2.364      3.369
REMARK  Name = 
REMARK  4 active torsions:
REMARK  status: ('A' for Active; 'I' for Inactive)
REMARK    1  A    between atoms: C_1  and  C_2
REMARK    2  A    between atoms: C_4  and  C_5
REMARK    3  A    between atoms: C_13  and  C_14
REMARK    4  A    between atoms: C_14  and  N_16
REMARK                            x       y       z     vdW  Elec       q    Type
REMARK                         _______ _______ _______ _____ _____    ______ ____
ROOT
ATOM      1  C   UNL     1       7.357   6.399  17.701  0.00  0.00    +0.000 C 
ATOM      2  C   UNL     1       6.247   5.503  17.332  0.00  0.00    +0.000 A 
ATOM      3  O   UNL     1       5.285   5.291  18.279  0.00  0.00    +0.000 OA
ATOM      4  C   UNL     1       4.378   4.468  17.668  0.00  0.00    +0.000 A 
ATOM      5  N   UNL     1       4.675   4.170  16.420  0.00  0.00    +0.000 NA
ATOM      6  C   UNL     1       5.896   4.792  16.196  0.00  0.00    +0.000 A 
ENDROOT
BRANCH   4   7
ATOM      7  C   UNL     1       3.244   4.033  18.472  0.00  0.00    +0.000 A 
ATOM      8  C   UNL     1       2.094   3.477  17.888  0.00  0.00    +0.000 A 
ATOM      9  C   UNL     1       0.994   3.113  18.673  0.00  0.00    +0.000 A 
ATOM     10  C   UNL     1       1.041   3.296  20.053  0.00  0.00    +0.000 A 
ATOM     11  C   UNL     1       2.182   3.838  20.634  0.00  0.00    +0.000 A 
ATOM     12  F   UNL     1       2.225   4.010  21.961  0.00  0.00    +0.000 F 
ATOM     13  C   UNL     1       3.276   4.211  19.861  0.00  0.00    +0.000 A 
ENDBRANCH   4   7
BRANCH   6  14
ATOM     14  C   UNL     1       6.687   4.681  14.970  0.00  0.00    +0.000 C 
ATOM     15  O   UNL     1       7.610   5.452  14.714  0.00  0.00    +0.000 OA
BRANCH  14  16
ATOM     16  N   UNL     1       6.259   3.662  14.159  0.00  0.00    +0.000 NA
ATOM     17  C   UNL     1       6.543   3.706  12.903  0.00  0.00    +0.000 C 
ATOM     18  N   UNL     1       7.292   4.597  12.214  0.00  0.00    +0.000 N 
ATOM     19  N   UNL     1       6.069   2.755  12.064  0.00  0.00    +0.000 N 
ATOM     20  H   UNL     1       7.444   5.468  12.723  0.00  0.00    +0.000 HD
ATOM     21  H   UNL     1       6.938   4.788  11.285  0.00  0.00    +0.000 HD
ATOM     22  H   UNL     1       5.720   1.948  12.573  0.00  0.00    +0.000 HD
ATOM     23  H   UNL     1       6.713   2.488  11.329  0.00  0.00    +0.000 HD
ENDBRANCH  14  16
ENDBRANCH   6  14
TORSDOF 3
ENDMDL
MODEL 7
REMARK VINA RESULT:      -7.6      3.634      6.467
REMARK  Name = 
REMARK  4 active torsions:
REMARK  status: ('A' for Active; 'I' for Inactive)
REMARK    1  A    between atoms: C_1  and  C_2
REMARK    2  A    between atoms: C_4  and  C_5
REMARK    3  A    between atoms: C_13  and  C_14
REMARK    4  A    between atoms: C_14  and  N_16
REMARK                            x       y       z     vdW  Elec       q    Type
REMARK                         _______ _______ _______ _____ _____    ______ ____
ROOT
ATOM      1  C   UNL     1       7.860   5.913  18.993  0.00  0.00    +0.000 C 
ATOM      2  C   UNL     1       7.039   5.227  17.979  0.00  0.00    +0.000 A 
ATOM      3  O   UNL     1       7.485   5.279  16.688  0.00  0.00    +0.000 OA
ATOM      4  C   UNL     1       6.571   4.546  15.981  0.00  0.00    +0.000 A 
ATOM      5  N   UNL     1       5.612   4.023  16.716  0.00  0.00    +0.000 NA
ATOM      6  C   UNL     1       5.871   4.485  18.001  0.00  0.00    +0.000 A 
ENDROOT
BRANCH   4   7
ATOM      7  C   UNL     1       6.773   4.463  14.540  0.00  0.00    +0.000 A 
ATOM      8  C   UNL     1       7.677   5.305  13.871  0.00  0.00    +0.000 A 
ATOM      9  C   UNL     1       7.818   5.245  12.480  0.00  0.00    +0.000 A 
ATOM     10  C   UNL     1       7.062   4.333  11.748  0.00  0.00    +0.000 A 
ATOM     11  C   UNL     1       6.173   3.492  12.410  0.00  0.00    +0.000 A 
ATOM     12  F   UNL     1       5.448   2.616  11.704  0.00  0.00    +0.000 F 
ATOM     13  C   UNL     1       6.019   3.551  13.791  0.00  0.00    +0.000 A 
ENDBRANCH   4   7
BRANCH   6  14
ATOM     14  C   UNL     1       5.024   4.244  19.169  0.00  0.00    +0.000 C 
ATOM     15  O   UNL     1       4.900   3.126  19.668  0.00  0.00    +0.000 OA
BRANCH  14  16
ATOM     16  N   UNL     1       4.387   5.378  19.600  0.00  0.00    +0.000 NA
ATOM     17  C   UNL     1       3.118   5.335  19.816  0.00  0.00    +0.000 C 
ATOM     18  N   UNL     1       2.264   4.287  19.757  0.00  0.00    +0.000 N 
ATOM     19  N   UNL     1       2.447   6.457  20.167  0.00  0.00    +0.000 N 
ATOM     20  H   UNL     1       2.642   3.492  19.242  0.00  0.00    +0.000 HD
ATOM     21  H   UNL     1       1.347   4.533  19.402  0.00  0.00    +0.000 HD
ATOM     22  H   UNL     1       3.081   7.194  20.461  0.00  0.00    +0.000 HD
ATOM     23  H   UNL     1       1.705   6.307  20.840  0.00  0.00    +0.000 HD
ENDBRANCH  14  16
ENDBRANCH   6  14
TORSDOF 3
ENDMDL
MODEL 8
REMARK VINA RESULT:      -7.6      2.287      3.109
REMARK  Name = 
REMARK  4 active torsions:
REMARK  status: ('A' for Active; 'I' for Inactive)
REMARK    1  A    between atoms: C_1  and  C_2
REMARK    2  A    between atoms: C_4  and  C_5
REMARK    3  A    between atoms: C_13  and  C_14
REMARK    4  A    between atoms: C_14  and  N_16
REMARK                            x       y       z     vdW  Elec       q    Type
REMARK                         _______ _______ _______ _____ _____    ______ ____
ROOT
ATOM      1  C   UNL     1       6.188   7.276  17.289  0.00  0.00    +0.000 C 
ATOM      2  C   UNL     1       5.527   5.961  17.384  0.00  0.00    +0.000 A 
ATOM      3  O   UNL     1       4.391   5.896  18.141  0.00  0.00    +0.000 OA
ATOM      4  C   UNL     1       3.977   4.597  18.025  0.00  0.00    +0.000 A 
ATOM      5  N   UNL     1       4.737   3.855  17.246  0.00  0.00    +0.000 NA
ATOM      6  C   UNL     1       5.765   4.704  16.856  0.00  0.00    +0.000 A 
ENDROOT
BRANCH   4   7
ATOM      7  C   UNL     1       2.788   4.220  18.778  0.00  0.00    +0.000 A 
ATOM      8  C   UNL     1       2.448   4.850  19.986  0.00  0.00    +0.000 A 
ATOM      9  C   UNL     1       1.330   4.437  20.721  0.00  0.00    +0.000 A 
ATOM     10  C   UNL     1       0.538   3.395  20.245  0.00  0.00    +0.000 A 
ATOM     11  C   UNL     1       0.868   2.776  19.044  0.00  0.00    +0.000 A 
ATOM     12  F   UNL     1       0.103   1.776  18.589  0.00  0.00    +0.000 F 
ATOM     13  C   UNL     1       1.982   3.173  18.312  0.00  0.00    +0.000 A 
ENDBRANCH   4   7
BRANCH   6  14
ATOM     14  C   UNL     1       6.919   4.312  16.046  0.00  0.00    +0.000 C 
ATOM     15  O   UNL     1       8.074   4.420  16.457  0.00  0.00    +0.000 OA
BRANCH  14  16
ATOM     16  N   UNL     1       6.561   3.856  14.804  0.00  0.00    +0.000 NA
ATOM     17  C   UNL     1       6.991   4.481  13.764  0.00  0.00    +0.000 C 
ATOM     18  N   UNL     1       7.842   5.529  13.672  0.00  0.00    +0.000 N 
ATOM     19  N   UNL     1       6.593   4.102  12.527  0.00  0.00    +0.000 N 
ATOM     20  H   UNL     1       7.958   6.027  14.555  0.00  0.00    +0.000 HD
ATOM     21  H   UNL     1       7.605   6.177  12.930  0.00  0.00    +0.000 HD
ATOM     22  H   UNL     1       6.163   3.181  12.539  0.00  0.00    +0.000 HD
ATOM     23  H   UNL     1       7.310   4.173  11.816  0.00  0.00    +0.000 HD
ENDBRANCH  14  16
ENDBRANCH   6  14
TORSDOF 3
ENDMDL
MODEL 9
REMARK VINA RESULT:      -7.6      3.948      6.635
REMARK  Name = 
REMARK  4 active torsions:
REMARK  status: ('A' for Active; 'I' for Inactive)
REMARK    1  A    between atoms: C_1  and  C_2
REMARK    2  A    between atoms: C_4  and  C_5
REMARK    3  A    between atoms: C_13  and  C_14
REMARK    4  A    between atoms: C_14  and  N_16
REMARK                            x       y       z     vdW  Elec       q    Type
REMARK                         _______ _______ _______ _____ _____    ______ ____
ROOT
ATOM      1  C   UNL     1       3.693   6.961  17.935  0.00  0.00    +0.000 C 
ATOM      2  C   UNL     1       4.149   5.738  17.249  0.00  0.00    +0.000 A 
ATOM      3  O   UNL     1       4.845   5.908  16.085  0.00  0.00    +0.000 OA
ATOM      4  C   UNL     1       5.169   4.638  15.692  0.00  0.00    +0.000 A 
ATOM      5  N   UNL     1       4.761   3.697  16.517  0.00  0.00    +0.000 NA
ATOM      6  C   UNL     1       4.065   4.381  17.506  0.00  0.00    +0.000 A 
ENDROOT
BRANCH   4   7
ATOM      7  C   UNL     1       5.891   4.508  14.433  0.00  0.00    +0.000 A 
ATOM      8  C   UNL     1       5.453   3.642  13.416  0.00  0.00    +0.000 A 
ATOM      9  C   UNL     1       6.189   3.492  12.236  0.00  0.00    +0.000 A 
ATOM     10  C   UNL     1       7.366   4.215  12.059  0.00  0.00    +0.000 A 
ATOM     11  C   UNL     1       7.796   5.079  13.060  0.00  0.00    +0.000 A 
ATOM     12  F   UNL     1       8.928   5.774  12.887  0.00  0.00    +0.000 F 
ATOM     13  C   UNL     1       7.077   5.228  14.241  0.00  0.00    +0.000 A 
ENDBRANCH   4   7
BRANCH   6  14
ATOM     14  C   UNL     1       3.341   3.755  18.613  0.00  0.00    +0.000 C 
ATOM     15  O   UNL     1       2.112   3.730  18.659  0.00  0.00    +0.000 OA
BRANCH  14  16
ATOM     16  N   UNL     1       4.180   3.247  19.570  0.00  0.00    +0.000 NA
ATOM     17  C   UNL     1       4.477   1.994  19.535  0.00  0.00    +0.000 C 
ATOM     18  N   UNL     1       4.143   1.049  18.626  0.00  0.00    +0.000 N 
ATOM     19  N   UNL     1       5.241   1.447  20.509  0.00  0.00    +0.000 N 
ATOM     20  H   UNL     1       3.361   1.325  18.032  0.00  0.00    +0.000 HD
ATOM     21  H   UNL     1       3.972   0.139  19.036  0.00  0.00    +0.000 HD
ATOM     22  H   UNL     1       5.710   2.160  21.061  0.00  0.00    +0.000 HD
ATOM     23  H   UNL     1       5.885   0.736  20.186  0.00  0.00    +0.000 HD
ENDBRANCH  14  16
ENDBRANCH   6  14
TORSDOF 3
ENDMDL
