MODEL 1
REMARK VINA RESULT:      -8.8      0.000      0.000
REMARK  Name = 
REMARK  9 active torsions:
REMARK  status: ('A' for Active; 'I' for Inactive)
REMARK    1  A    between atoms: C_1  and  C_2
REMARK    2  A    between atoms: C_3  and  N_4
REMARK    3  A    between atoms: C_5  and  C_7
REMARK    4  A    between atoms: C_7  and  C_8
REMARK    5  A    between atoms: C_8  and  C_9
REMARK    6  A    between atoms: C_12  and  S_13
REMARK    7  A    between atoms: S_13  and  N_16
REMARK    8  A    between atoms: N_26  and  C_27
REMARK    9  A    between atoms: N_33  and  C_34
REMARK                            x       y       z     vdW  Elec       q    Type
REMARK                         _______ _______ _______ _____ _____    ______ ____
ROOT
ATOM      1  N   UNL     1       6.239   6.677  17.354  0.00  0.00    +0.000 N 
ATOM      2  C   UNL     1       7.399   7.029  18.005  0.00  0.00    +0.000 C 
ATOM      3  O   UNL     1       8.030   6.322  18.782  0.00  0.00    +0.000 OA
ATOM      4  H   UNL     1       5.972   7.231  16.543  0.00  0.00    +0.000 HD
ENDROOT
BRANCH   1   7
ATOM      5  C   UNL     1       6.054   3.893  15.607  0.00  0.00    +0.000 C 
ATOM      6  C   UNL     1       5.365   4.369  16.845  0.00  0.00    +0.000 A 
ATOM      7  C   UNL     1       5.487   5.539  17.500  0.00  0.00    +0.000 A 
ATOM      8  C   UNL     1       4.477   5.478  18.615  0.00  0.00    +0.000 A 
ATOM      9  O   UNL     1       4.349   6.374  19.439  0.00  0.00    +0.000 OA
ATOM     10  N   UNL     1       3.814   4.260  18.484  0.00  0.00    +0.000 N 
ATOM     11  N   UNL     1       4.462   3.501  17.488  0.00  0.00    +0.000 N 
ATOM     12  C   UNL     1       3.682   2.515  16.738  0.00  0.00    +0.000 C 
BRANCH  10  13
ATOM     13  C   UNL     1       2.946   3.703  19.443  0.00  0.00    +0.000 A 
ATOM     14  C   UNL     1       3.460   2.898  20.459  0.00  0.00    +0.000 A 
ATOM     15  C   UNL     1       2.634   2.463  21.499  0.00  0.00    +0.000 A 
ATOM     16  C   UNL     1       1.278   2.793  21.500  0.00  0.00    +0.000 A 
ATOM     17  C   UNL     1       0.745   3.549  20.459  0.00  0.00    +0.000 A 
ATOM     18  C   UNL     1       1.577   4.009  19.436  0.00  0.00    +0.000 A 
ENDBRANCH  10  13
ENDBRANCH   1   7
BRANCH   2  19
ATOM     19  C   UNL     1       7.953   8.375  17.573  0.00  0.00    +0.000 C 
BRANCH  19  20
ATOM     20  C   UNL     1       8.733   8.976  18.737  0.00  0.00    +0.000 C 
BRANCH  20  21
ATOM     21  C   UNL     1       9.116  10.438  18.673  0.00  0.00    +0.000 A 
ATOM     22  C   UNL     1       8.620  11.349  17.732  0.00  0.00    +0.000 A 
ATOM     23  C   UNL     1       9.056  12.685  17.731  0.00  0.00    +0.000 A 
ATOM     24  C   UNL     1       9.975  13.129  18.691  0.00  0.00    +0.000 A 
ATOM     25  C   UNL     1      10.511  12.218  19.605  0.00  0.00    +0.000 A 
ATOM     26  C   UNL     1      10.069  10.895  19.603  0.00  0.00    +0.000 A 
BRANCH  24  27
ATOM     27  S   UNL     1      10.638  14.788  18.616  0.00  0.00    +0.000 S 
ATOM     28  O   UNL     1      11.791  14.812  19.490  0.00  0.00    +0.000 OA
ATOM     29  O   UNL     1      10.761  15.123  17.214  0.00  0.00    +0.000 OA
BRANCH  27  30
ATOM     30  N   UNL     1       9.473  15.807  19.284  0.00  0.00    +0.000 NA
ATOM     31  C   UNL     1       8.868  15.494  20.599  0.00  0.00    +0.000 C 
ATOM     32  C   UNL     1       7.550  14.736  20.417  0.00  0.00    +0.000 C 
ATOM     33  O   UNL     1       6.640  15.440  19.559  0.00  0.00    +0.000 OA
ATOM     34  C   UNL     1       7.215  15.738  18.277  0.00  0.00    +0.000 C 
ATOM     35  C   UNL     1       8.517  16.527  18.412  0.00  0.00    +0.000 C 
ENDBRANCH  27  30
ENDBRANCH  24  27
ENDBRANCH  20  21
ENDBRANCH  19  20
ENDBRANCH   2  19
TORSDOF 7
ENDMDL
MODEL 2
REMARK VINA RESULT:      -8.6      1.193      1.579
REMARK  Name = 
REMARK  9 active torsions:
REMARK  status: ('A' for Active; 'I' for Inactive)
REMARK    1  A    between atoms: C_1  and  C_2
REMARK    2  A    between atoms: C_3  and  N_4
REMARK    3  A    between atoms: C_5  and  C_7
REMARK    4  A    between atoms: C_7  and  C_8
REMARK    5  A    between atoms: C_8  and  C_9
REMARK    6  A    between atoms: C_12  and  S_13
REMARK    7  A    between atoms: S_13  and  N_16
REMARK    8  A    between atoms: N_26  and  C_27
REMARK    9  A    between atoms: N_33  and  C_34
REMARK                            x       y       z     vdW  Elec       q    Type
REMARK                         _______ _______ _______ _____ _____    ______ ____
ROOT
ATOM      1  N   UNL     1       6.764   7.500  17.001  0.00  0.00    +0.000 N 
ATOM      2  C   UNL     1       7.732   7.871  17.905  0.00  0.00    +0.000 C 
ATOM      3  O   UNL     1       8.335   7.117  18.660  0.00  0.00    +0.000 OA
ATOM      4  H   UNL     1       6.545   8.158  16.255  0.00  0.00    +0.000 HD
ENDROOT
BRANCH   1   7
ATOM      5  C   UNL     1       7.494   4.980  15.012  0.00  0.00    +0.000 C 
ATOM      6  C   UNL     1       6.434   5.193  16.044  0.00  0.00    +0.000 A 
ATOM      7  C   UNL     1       6.190   6.268  16.817  0.00  0.00    +0.000 A 
ATOM      8  C   UNL     1       4.942   5.930  17.588  0.00  0.00    +0.000 A 
ATOM      9  O   UNL     1       4.459   6.682  18.424  0.00  0.00    +0.000 OA
ATOM     10  N   UNL     1       4.540   4.667  17.157  0.00  0.00    +0.000 N 
ATOM     11  N   UNL     1       5.541   4.138  16.318  0.00  0.00    +0.000 N 
ATOM     12  C   UNL     1       5.156   3.174  15.286  0.00  0.00    +0.000 C 
BRANCH  10  13
ATOM     13  C   UNL     1       3.547   3.880  17.772  0.00  0.00    +0.000 A 
ATOM     14  C   UNL     1       3.915   2.867  18.658  0.00  0.00    +0.000 A 
ATOM     15  C   UNL     1       2.939   2.180  19.386  0.00  0.00    +0.000 A 
ATOM     16  C   UNL     1       1.588   2.472  19.195  0.00  0.00    +0.000 A 
ATOM     17  C   UNL     1       1.210   3.443  18.270  0.00  0.00    +0.000 A 
ATOM     18  C   UNL     1       2.185   4.150  17.566  0.00  0.00    +0.000 A 
ENDBRANCH  10  13
ENDBRANCH   1   7
BRANCH   2  19
ATOM     19  C   UNL     1       8.126   9.334  17.808  0.00  0.00    +0.000 C 
BRANCH  19  20
ATOM     20  C   UNL     1       9.052   9.665  18.973  0.00  0.00    +0.000 C 
BRANCH  20  21
ATOM     21  C   UNL     1       9.696  11.034  19.018  0.00  0.00    +0.000 A 
ATOM     22  C   UNL     1      10.395  11.548  20.117  0.00  0.00    +0.000 A 
ATOM     23  C   UNL     1      10.935  12.845  20.077  0.00  0.00    +0.000 A 
ATOM     24  C   UNL     1      10.803  13.631  18.925  0.00  0.00    +0.000 A 
ATOM     25  C   UNL     1      10.069  13.146  17.841  0.00  0.00    +0.000 A 
ATOM     26  C   UNL     1       9.539  11.856  17.885  0.00  0.00    +0.000 A 
BRANCH  24  27
ATOM     27  S   UNL     1      11.368  15.328  18.913  0.00  0.00    +0.000 S 
ATOM     28  O   UNL     1      12.330  15.450  19.987  0.00  0.00    +0.000 OA
ATOM     29  O   UNL     1      11.736  15.634  17.548  0.00  0.00    +0.000 OA
BRANCH  27  30
ATOM     30  N   UNL     1      10.039  16.285  19.311  0.00  0.00    +0.000 NA
ATOM     31  C   UNL     1       9.252  16.006  20.534  0.00  0.00    +0.000 C 
ATOM     32  C   UNL     1       8.040  15.129  20.205  0.00  0.00    +0.000 C 
ATOM     33  O   UNL     1       7.232  15.699  19.164  0.00  0.00    +0.000 OA
ATOM     34  C   UNL     1       7.985  15.963  17.970  0.00  0.00    +0.000 C 
ATOM     35  C   UNL     1       9.187  16.865  18.247  0.00  0.00    +0.000 C 
ENDBRANCH  27  30
ENDBRANCH  24  27
ENDBRANCH  20  21
ENDBRANCH  19  20
ENDBRANCH   2  19
TORSDOF 7
ENDMDL
MODEL 3
REMARK VINA RESULT:      -8.4      8.893     12.284
REMARK  Name = 
REMARK  9 active torsions:
REMARK  status: ('A' for Active; 'I' for Inactive)
REMARK    1  A    between atoms: C_1  and  C_2
REMARK    2  A    between atoms: C_3  and  N_4
REMARK    3  A    between atoms: C_5  and  C_7
REMARK    4  A    between atoms: C_7  and  C_8
REMARK    5  A    between atoms: C_8  and  C_9
REMARK    6  A    between atoms: C_12  and  S_13
REMARK    7  A    between atoms: S_13  and  N_16
REMARK    8  A    between atoms: N_26  and  C_27
REMARK    9  A    between atoms: N_33  and  C_34
REMARK                            x       y       z     vdW  Elec       q    Type
REMARK                         _______ _______ _______ _____ _____    ______ ____
ROOT
ATOM      1  N   UNL     1      -2.711  12.055  18.817  0.00  0.00    +0.000 N 
ATOM      2  C   UNL     1      -2.184  10.882  18.329  0.00  0.00    +0.000 C 
ATOM      3  O   UNL     1      -2.813   9.858  18.089  0.00  0.00    +0.000 OA
ATOM      4  H   UNL     1      -2.151  12.898  18.711  0.00  0.00    +0.000 HD
ENDROOT
BRANCH   1   7
ATOM      5  C   UNL     1      -5.619  11.956  17.275  0.00  0.00    +0.000 C 
ATOM      6  C   UNL     1      -5.217  12.279  18.679  0.00  0.00    +0.000 A 
ATOM      7  C   UNL     1      -3.992  12.310  19.237  0.00  0.00    +0.000 A 
ATOM      8  C   UNL     1      -4.209  12.790  20.647  0.00  0.00    +0.000 A 
ATOM      9  O   UNL     1      -3.296  12.895  21.456  0.00  0.00    +0.000 OA
ATOM     10  N   UNL     1      -5.574  13.038  20.777  0.00  0.00    +0.000 N 
ATOM     11  N   UNL     1      -6.227  12.577  19.615  0.00  0.00    +0.000 N 
ATOM     12  C   UNL     1      -7.479  13.219  19.212  0.00  0.00    +0.000 C 
BRANCH  10  13
ATOM     13  C   UNL     1      -6.239  13.292  21.992  0.00  0.00    +0.000 A 
ATOM     14  C   UNL     1      -6.179  14.563  22.562  0.00  0.00    +0.000 A 
ATOM     15  C   UNL     1      -6.954  14.868  23.685  0.00  0.00    +0.000 A 
ATOM     16  C   UNL     1      -7.756  13.887  24.269  0.00  0.00    +0.000 A 
ATOM     17  C   UNL     1      -7.778  12.600  23.738  0.00  0.00    +0.000 A 
ATOM     18  C   UNL     1      -7.028  12.303  22.600  0.00  0.00    +0.000 A 
ENDBRANCH  10  13
ENDBRANCH   1   7
BRANCH   2  19
ATOM     19  C   UNL     1      -0.716  10.984  17.958  0.00  0.00    +0.000 C 
BRANCH  19  20
ATOM     20  C   UNL     1       0.120  10.659  19.192  0.00  0.00    +0.000 C 
BRANCH  20  21
ATOM     21  C   UNL     1       0.993   9.424  19.168  0.00  0.00    +0.000 A 
ATOM     22  C   UNL     1       1.671   8.950  18.038  0.00  0.00    +0.000 A 
ATOM     23  C   UNL     1       2.437   7.775  18.105  0.00  0.00    +0.000 A 
ATOM     24  C   UNL     1       2.554   7.074  19.313  0.00  0.00    +0.000 A 
ATOM     25  C   UNL     1       1.846   7.512  20.434  0.00  0.00    +0.000 A 
ATOM     26  C   UNL     1       1.091   8.683  20.362  0.00  0.00    +0.000 A 
BRANCH  24  27
ATOM     27  S   UNL     1       3.414   5.508  19.375  0.00  0.00    +0.000 S 
ATOM     28  O   UNL     1       4.821   5.801  19.200  0.00  0.00    +0.000 OA
ATOM     29  O   UNL     1       2.942   4.820  20.557  0.00  0.00    +0.000 OA
BRANCH  27  30
ATOM     30  N   UNL     1       2.909   4.623  18.033  0.00  0.00    +0.000 NA
ATOM     31  C   UNL     1       1.497   4.196  17.902  0.00  0.00    +0.000 C 
ATOM     32  C   UNL     1       1.315   2.771  18.433  0.00  0.00    +0.000 C 
ATOM     33  O   UNL     1       2.217   1.846  17.806  0.00  0.00    +0.000 OA
ATOM     34  C   UNL     1       3.590   2.247  17.937  0.00  0.00    +0.000 C 
ATOM     35  C   UNL     1       3.824   3.653  17.386  0.00  0.00    +0.000 C 
ENDBRANCH  27  30
ENDBRANCH  24  27
ENDBRANCH  20  21
ENDBRANCH  19  20
ENDBRANCH   2  19
TORSDOF 7
ENDMDL
MODEL 4
REMARK VINA RESULT:      -8.3      3.269     11.439
REMARK  Name = 
REMARK  9 active torsions:
REMARK  status: ('A' for Active; 'I' for Inactive)
REMARK    1  A    between atoms: C_1  and  C_2
REMARK    2  A    between atoms: C_3  and  N_4
REMARK    3  A    between atoms: C_5  and  C_7
REMARK    4  A    between atoms: C_7  and  C_8
REMARK    5  A    between atoms: C_8  and  C_9
REMARK    6  A    between atoms: C_12  and  S_13
REMARK    7  A    between atoms: S_13  and  N_16
REMARK    8  A    between atoms: N_26  and  C_27
REMARK    9  A    between atoms: N_33  and  C_34
REMARK                            x       y       z     vdW  Elec       q    Type
REMARK                         _______ _______ _______ _____ _____    ______ ____
ROOT
ATOM      1  N   UNL     1       9.612  10.932  19.285  0.00  0.00    +0.000 N 
ATOM      2  C   UNL     1       8.741  10.306  18.423  0.00  0.00    +0.000 C 
ATOM      3  O   UNL     1       8.123  10.842  17.511  0.00  0.00    +0.000 OA
ATOM      4  H   UNL     1      10.259  10.343  19.805  0.00  0.00    +0.000 HD
ENDROOT
BRANCH   1   7
ATOM      5  C   UNL     1      11.106  13.058  17.262  0.00  0.00    +0.000 C 
ATOM      6  C   UNL     1      10.484  13.199  18.615  0.00  0.00    +0.000 A 
ATOM      7  C   UNL     1       9.897  12.270  19.392  0.00  0.00    +0.000 A 
ATOM      8  C   UNL     1       9.549  12.982  20.672  0.00  0.00    +0.000 A 
ATOM      9  O   UNL     1       8.959  12.434  21.593  0.00  0.00    +0.000 OA
ATOM     10  N   UNL     1      10.010  14.290  20.535  0.00  0.00    +0.000 N 
ATOM     11  N   UNL     1      10.450  14.476  19.209  0.00  0.00    +0.000 N 
ATOM     12  C   UNL     1      11.492  15.470  18.947  0.00  0.00    +0.000 C 
BRANCH  10  13
ATOM     13  C   UNL     1       9.702  15.353  21.407  0.00  0.00    +0.000 A 
ATOM     14  C   UNL     1      10.538  15.626  22.489  0.00  0.00    +0.000 A 
ATOM     15  C   UNL     1      10.326  16.765  23.272  0.00  0.00    +0.000 A 
ATOM     16  C   UNL     1       9.248  17.609  23.002  0.00  0.00    +0.000 A 
ATOM     17  C   UNL     1       8.376  17.312  21.957  0.00  0.00    +0.000 A 
ATOM     18  C   UNL     1       8.605  16.191  21.157  0.00  0.00    +0.000 A 
ENDBRANCH  10  13
ENDBRANCH   1   7
BRANCH   2  19
ATOM     19  C   UNL     1       8.695   8.798  18.596  0.00  0.00    +0.000 C 
BRANCH  19  20
ATOM     20  C   UNL     1       7.977   8.193  17.394  0.00  0.00    +0.000 C 
BRANCH  20  21
ATOM     21  C   UNL     1       7.027   7.038  17.626  0.00  0.00    +0.000 A 
ATOM     22  C   UNL     1       5.697   7.004  17.192  0.00  0.00    +0.000 A 
ATOM     23  C   UNL     1       4.879   5.897  17.480  0.00  0.00    +0.000 A 
ATOM     24  C   UNL     1       5.396   4.801  18.184  0.00  0.00    +0.000 A 
ATOM     25  C   UNL     1       6.707   4.845  18.661  0.00  0.00    +0.000 A 
ATOM     26  C   UNL     1       7.514   5.944  18.368  0.00  0.00    +0.000 A 
BRANCH  24  27
ATOM     27  S   UNL     1       4.330   3.451  18.672  0.00  0.00    +0.000 S 
ATOM     28  O   UNL     1       4.104   2.654  17.485  0.00  0.00    +0.000 OA
ATOM     29  O   UNL     1       4.915   2.866  19.859  0.00  0.00    +0.000 OA
BRANCH  27  30
ATOM     30  N   UNL     1       2.853   4.133  19.114  0.00  0.00    +0.000 NA
ATOM     31  C   UNL     1       2.516   4.333  20.542  0.00  0.00    +0.000 C 
ATOM     32  C   UNL     1       1.695   3.154  21.071  0.00  0.00    +0.000 C 
ATOM     33  O   UNL     1       0.528   2.911  20.271  0.00  0.00    +0.000 OA
ATOM     34  C   UNL     1       0.847   2.705  18.886  0.00  0.00    +0.000 C 
ATOM     35  C   UNL     1       1.637   3.878  18.307  0.00  0.00    +0.000 C 
ENDBRANCH  27  30
ENDBRANCH  24  27
ENDBRANCH  20  21
ENDBRANCH  19  20
ENDBRANCH   2  19
TORSDOF 7
ENDMDL
MODEL 5
REMARK VINA RESULT:      -8.2      7.965     11.513
REMARK  Name = 
REMARK  9 active torsions:
REMARK  status: ('A' for Active; 'I' for Inactive)
REMARK    1  A    between atoms: C_1  and  C_2
REMARK    2  A    between atoms: C_3  and  N_4
REMARK    3  A    between atoms: C_5  and  C_7
REMARK    4  A    between atoms: C_7  and  C_8
REMARK    5  A    between atoms: C_8  and  C_9
REMARK    6  A    between atoms: C_12  and  S_13
REMARK    7  A    between atoms: S_13  and  N_16
REMARK    8  A    between atoms: N_26  and  C_27
REMARK    9  A    between atoms: N_33  and  C_34
REMARK                            x       y       z     vdW  Elec       q    Type
REMARK                         _______ _______ _______ _____ _____    ______ ____
ROOT
ATOM      1  N   UNL     1      -1.252  11.266  18.526  0.00  0.00    +0.000 N 
ATOM      2  C   UNL     1      -0.576  10.156  18.073  0.00  0.00    +0.000 C 
ATOM      3  O   UNL     1      -1.053   9.252  17.398  0.00  0.00    +0.000 OA
ATOM      4  H   UNL     1      -0.692  12.061  18.830  0.00  0.00    +0.000 HD
ENDROOT
BRANCH   1   7
ATOM      5  C   UNL     1      -3.383  11.093  16.023  0.00  0.00    +0.000 C 
ATOM      6  C   UNL     1      -3.520  11.499  17.455  0.00  0.00    +0.000 A 
ATOM      7  C   UNL     1      -2.589  11.555  18.426  0.00  0.00    +0.000 A 
ATOM      8  C   UNL     1      -3.297  12.124  19.626  0.00  0.00    +0.000 A 
ATOM      9  O   UNL     1      -2.746  12.273  20.708  0.00  0.00    +0.000 OA
ATOM     10  N   UNL     1      -4.605  12.389  19.226  0.00  0.00    +0.000 N 
ATOM     11  N   UNL     1      -4.795  11.863  17.932  0.00  0.00    +0.000 N 
ATOM     12  C   UNL     1      -5.790  12.487  17.058  0.00  0.00    +0.000 C 
BRANCH  10  13
ATOM     13  C   UNL     1      -5.665  12.723  20.091  0.00  0.00    +0.000 A 
ATOM     14  C   UNL     1      -6.524  11.726  20.552  0.00  0.00    +0.000 A 
ATOM     15  C   UNL     1      -7.484  12.019  21.525  0.00  0.00    +0.000 A 
ATOM     16  C   UNL     1      -7.620  13.322  22.005  0.00  0.00    +0.000 A 
ATOM     17  C   UNL     1      -6.804  14.335  21.507  0.00  0.00    +0.000 A 
ATOM     18  C   UNL     1      -5.824  14.037  20.559  0.00  0.00    +0.000 A 
ENDBRANCH  10  13
ENDBRANCH   1   7
BRANCH   2  19
ATOM     19  C   UNL     1       0.913  10.191  18.365  0.00  0.00    +0.000 C 
BRANCH  19  20
ATOM     20  C   UNL     1       1.225   9.136  19.421  0.00  0.00    +0.000 C 
BRANCH  20  21
ATOM     21  C   UNL     1       2.180   8.017  19.066  0.00  0.00    +0.000 A 
ATOM     22  C   UNL     1       2.886   7.928  17.860  0.00  0.00    +0.000 A 
ATOM     23  C   UNL     1       3.731   6.834  17.605  0.00  0.00    +0.000 A 
ATOM     24  C   UNL     1       3.896   5.829  18.568  0.00  0.00    +0.000 A 
ATOM     25  C   UNL     1       3.161   5.885  19.754  0.00  0.00    +0.000 A 
ATOM     26  C   UNL     1       2.329   6.976  20.002  0.00  0.00    +0.000 A 
BRANCH  24  27
ATOM     27  S   UNL     1       4.860   4.368  18.200  0.00  0.00    +0.000 S 
ATOM     28  O   UNL     1       5.499   4.606  16.924  0.00  0.00    +0.000 OA
ATOM     29  O   UNL     1       5.644   4.079  19.381  0.00  0.00    +0.000 OA
BRANCH  27  30
ATOM     30  N   UNL     1       3.765   3.104  17.992  0.00  0.00    +0.000 NA
ATOM     31  C   UNL     1       2.556   3.288  17.156  0.00  0.00    +0.000 C 
ATOM     32  C   UNL     1       1.356   3.677  18.025  0.00  0.00    +0.000 C 
ATOM     33  O   UNL     1       1.138   2.738  19.089  0.00  0.00    +0.000 OA
ATOM     34  C   UNL     1       2.302   2.562  19.911  0.00  0.00    +0.000 C 
ATOM     35  C   UNL     1       3.517   2.138  19.087  0.00  0.00    +0.000 C 
ENDBRANCH  27  30
ENDBRANCH  24  27
ENDBRANCH  20  21
ENDBRANCH  19  20
ENDBRANCH   2  19
TORSDOF 7
ENDMDL
MODEL 6
REMARK VINA RESULT:      -8.2      5.732     11.632
REMARK  Name = 
REMARK  9 active torsions:
REMARK  status: ('A' for Active; 'I' for Inactive)
REMARK    1  A    between atoms: C_1  and  C_2
REMARK    2  A    between atoms: C_3  and  N_4
REMARK    3  A    between atoms: C_5  and  C_7
REMARK    4  A    between atoms: C_7  and  C_8
REMARK    5  A    between atoms: C_8  and  C_9
REMARK    6  A    between atoms: C_12  and  S_13
REMARK    7  A    between atoms: S_13  and  N_16
REMARK    8  A    between atoms: N_26  and  C_27
REMARK    9  A    between atoms: N_33  and  C_34
REMARK                            x       y       z     vdW  Elec       q    Type
REMARK                         _______ _______ _______ _____ _____    ______ ____
ROOT
ATOM      1  N   UNL     1       1.783  12.687  20.658  0.00  0.00    +0.000 N 
ATOM      2  C   UNL     1       0.692  11.971  21.092  0.00  0.00    +0.000 C 
ATOM      3  O   UNL     1      -0.432  12.420  21.284  0.00  0.00    +0.000 OA
ATOM      4  H   UNL     1       2.567  12.160  20.278  0.00  0.00    +0.000 HD
ENDROOT
BRANCH   1   7
ATOM      5  C   UNL     1       3.408  15.058  22.263  0.00  0.00    +0.000 C 
ATOM      6  C   UNL     1       2.540  15.059  21.047  0.00  0.00    +0.000 A 
ATOM      7  C   UNL     1       1.894  14.039  20.451  0.00  0.00    +0.000 A 
ATOM      8  C   UNL     1       1.109  14.665  19.329  0.00  0.00    +0.000 A 
ATOM      9  O   UNL     1       0.431  14.007  18.551  0.00  0.00    +0.000 OA
ATOM     10  N   UNL     1       1.346  16.036  19.396  0.00  0.00    +0.000 N 
ATOM     11  N   UNL     1       2.351  16.272  20.356  0.00  0.00    +0.000 N 
ATOM     12  C   UNL     1       2.369  17.560  21.052  0.00  0.00    +0.000 C 
BRANCH  10  13
ATOM     13  C   UNL     1       0.984  16.970  18.406  0.00  0.00    +0.000 A 
ATOM     14  C   UNL     1       1.924  17.377  17.460  0.00  0.00    +0.000 A 
ATOM     15  C   UNL     1       1.538  18.186  16.387  0.00  0.00    +0.000 A 
ATOM     16  C   UNL     1       0.220  18.629  16.283  0.00  0.00    +0.000 A 
ATOM     17  C   UNL     1      -0.712  18.273  17.255  0.00  0.00    +0.000 A 
ATOM     18  C   UNL     1      -0.335  17.441  18.310  0.00  0.00    +0.000 A 
ENDBRANCH  10  13
ENDBRANCH   1   7
BRANCH   2  19
ATOM     19  C   UNL     1       0.948  10.478  21.195  0.00  0.00    +0.000 C 
BRANCH  19  20
ATOM     20  C   UNL     1       0.733   9.853  19.820  0.00  0.00    +0.000 C 
BRANCH  20  21
ATOM     21  C   UNL     1       1.512   8.606  19.463  0.00  0.00    +0.000 A 
ATOM     22  C   UNL     1       1.635   7.482  20.289  0.00  0.00    +0.000 A 
ATOM     23  C   UNL     1       2.405   6.378  19.885  0.00  0.00    +0.000 A 
ATOM     24  C   UNL     1       3.040   6.380  18.636  0.00  0.00    +0.000 A 
ATOM     25  C   UNL     1       2.962   7.513  17.825  0.00  0.00    +0.000 A 
ATOM     26  C   UNL     1       2.192   8.603  18.230  0.00  0.00    +0.000 A 
BRANCH  24  27
ATOM     27  S   UNL     1       4.131   5.041  18.170  0.00  0.00    +0.000 S 
ATOM     28  O   UNL     1       4.604   4.446  19.402  0.00  0.00    +0.000 OA
ATOM     29  O   UNL     1       3.423   4.250  17.188  0.00  0.00    +0.000 OA
BRANCH  27  30
ATOM     30  N   UNL     1       5.458   5.741  17.403  0.00  0.00    +0.000 NA
ATOM     31  C   UNL     1       5.639   5.602  15.939  0.00  0.00    +0.000 C 
ATOM     32  C   UNL     1       6.560   4.421  15.622  0.00  0.00    +0.000 C 
ATOM     33  O   UNL     1       7.816   4.519  16.312  0.00  0.00    +0.000 OA
ATOM     34  C   UNL     1       7.650   4.643  17.733  0.00  0.00    +0.000 C 
ATOM     35  C   UNL     1       6.763   5.834  18.097  0.00  0.00    +0.000 C 
ENDBRANCH  27  30
ENDBRANCH  24  27
ENDBRANCH  20  21
ENDBRANCH  19  20
ENDBRANCH   2  19
TORSDOF 7
ENDMDL
MODEL 7
REMARK VINA RESULT:      -8.1      3.198     11.460
REMARK  Name = 
REMARK  9 active torsions:
REMARK  status: ('A' for Active; 'I' for Inactive)
REMARK    1  A    between atoms: C_1  and  C_2
REMARK    2  A    between atoms: C_3  and  N_4
REMARK    3  A    between atoms: C_5  and  C_7
REMARK    4  A    between atoms: C_7  and  C_8
REMARK    5  A    between atoms: C_8  and  C_9
REMARK    6  A    between atoms: C_12  and  S_13
REMARK    7  A    between atoms: S_13  and  N_16
REMARK    8  A    between atoms: N_26  and  C_27
REMARK    9  A    between atoms: N_33  and  C_34
REMARK                            x       y       z     vdW  Elec       q    Type
REMARK                         _______ _______ _______ _____ _____    ______ ____
ROOT
ATOM      1  N   UNL     1       8.574  10.832  17.624  0.00  0.00    +0.000 N 
ATOM      2  C   UNL     1       8.540   9.590  18.216  0.00  0.00    +0.000 C 
ATOM      3  O   UNL     1       9.048   9.294  19.291  0.00  0.00    +0.000 OA
ATOM      4  H   UNL     1       7.895  11.017  16.889  0.00  0.00    +0.000 HD
ENDROOT
BRANCH   1   7
ATOM      5  C   UNL     1      11.568  11.283  18.919  0.00  0.00    +0.000 C 
ATOM      6  C   UNL     1      10.464  12.220  18.548  0.00  0.00    +0.000 A 
ATOM      7  C   UNL     1       9.250  11.955  18.028  0.00  0.00    +0.000 A 
ATOM      8  C   UNL     1       8.548  13.285  17.959  0.00  0.00    +0.000 A 
ATOM      9  O   UNL     1       7.424  13.414  17.492  0.00  0.00    +0.000 OA
ATOM     10  N   UNL     1       9.426  14.226  18.493  0.00  0.00    +0.000 N 
ATOM     11  N   UNL     1      10.671  13.603  18.716  0.00  0.00    +0.000 N 
ATOM     12  C   UNL     1      11.537  14.124  19.774  0.00  0.00    +0.000 C 
BRANCH  10  13
ATOM     13  C   UNL     1       9.259  15.623  18.421  0.00  0.00    +0.000 A 
ATOM     14  C   UNL     1       8.440  16.271  19.346  0.00  0.00    +0.000 A 
ATOM     15  C   UNL     1       8.384  17.667  19.378  0.00  0.00    +0.000 A 
ATOM     16  C   UNL     1       9.110  18.419  18.454  0.00  0.00    +0.000 A 
ATOM     17  C   UNL     1       9.885  17.777  17.492  0.00  0.00    +0.000 A 
ATOM     18  C   UNL     1       9.966  16.383  17.478  0.00  0.00    +0.000 A 
ENDBRANCH  10  13
ENDBRANCH   1   7
BRANCH   2  19
ATOM     19  C   UNL     1       7.671   8.589  17.478  0.00  0.00    +0.000 C 
BRANCH  19  20
ATOM     20  C   UNL     1       7.711   7.263  18.230  0.00  0.00    +0.000 C 
BRANCH  20  21
ATOM     21  C   UNL     1       6.596   6.267  17.999  0.00  0.00    +0.000 A 
ATOM     22  C   UNL     1       5.636   6.370  16.985  0.00  0.00    +0.000 A 
ATOM     23  C   UNL     1       4.617   5.409  16.866  0.00  0.00    +0.000 A 
ATOM     24  C   UNL     1       4.564   4.321  17.747  0.00  0.00    +0.000 A 
ATOM     25  C   UNL     1       5.489   4.234  18.789  0.00  0.00    +0.000 A 
ATOM     26  C   UNL     1       6.501   5.188  18.899  0.00  0.00    +0.000 A 
BRANCH  24  27
ATOM     27  S   UNL     1       3.197   3.170  17.689  0.00  0.00    +0.000 S 
ATOM     28  O   UNL     1       2.664   3.229  16.344  0.00  0.00    +0.000 OA
ATOM     29  O   UNL     1       3.679   1.923  18.241  0.00  0.00    +0.000 OA
BRANCH  27  30
ATOM     30  N   UNL     1       2.015   3.767  18.730  0.00  0.00    +0.000 NA
ATOM     31  C   UNL     1       2.055   5.177  19.183  0.00  0.00    +0.000 C 
ATOM     32  C   UNL     1       2.762   5.286  20.537  0.00  0.00    +0.000 C 
ATOM     33  O   UNL     1       2.173   4.422  21.521  0.00  0.00    +0.000 OA
ATOM     34  C   UNL     1       2.139   3.051  21.095  0.00  0.00    +0.000 C 
ATOM     35  C   UNL     1       1.410   2.891  19.761  0.00  0.00    +0.000 C 
ENDBRANCH  27  30
ENDBRANCH  24  27
ENDBRANCH  20  21
ENDBRANCH  19  20
ENDBRANCH   2  19
TORSDOF 7
ENDMDL
MODEL 8
REMARK VINA RESULT:      -8.1      7.799     11.335
REMARK  Name = 
REMARK  9 active torsions:
REMARK  status: ('A' for Active; 'I' for Inactive)
REMARK    1  A    between atoms: C_1  and  C_2
REMARK    2  A    between atoms: C_3  and  N_4
REMARK    3  A    between atoms: C_5  and  C_7
REMARK    4  A    between atoms: C_7  and  C_8
REMARK    5  A    between atoms: C_8  and  C_9
REMARK    6  A    between atoms: C_12  and  S_13
REMARK    7  A    between atoms: S_13  and  N_16
REMARK    8  A    between atoms: N_26  and  C_27
REMARK    9  A    between atoms: N_33  and  C_34
REMARK                            x       y       z     vdW  Elec       q    Type
REMARK                         _______ _______ _______ _____ _____    ______ ____
ROOT
ATOM      1  N   UNL     1      -0.921  10.700  18.508  0.00  0.00    +0.000 N 
ATOM      2  C   UNL     1       0.216  11.474  18.482  0.00  0.00    +0.000 C 
ATOM      3  O   UNL     1       0.250  12.699  18.470  0.00  0.00    +0.000 OA
ATOM      4  H   UNL     1      -0.817   9.728  18.792  0.00  0.00    +0.000 HD
ENDROOT
BRANCH   1   7
ATOM      5  C   UNL     1      -3.170  10.440  16.118  0.00  0.00    +0.000 C 
ATOM      6  C   UNL     1      -3.206  11.018  17.496  0.00  0.00    +0.000 A 
ATOM      7  C   UNL     1      -2.231  11.098  18.421  0.00  0.00    +0.000 A 
ATOM      8  C   UNL     1      -2.832  11.862  19.570  0.00  0.00    +0.000 A 
ATOM      9  O   UNL     1      -2.221  12.082  20.607  0.00  0.00    +0.000 OA
ATOM     10  N   UNL     1      -4.128  12.200  19.186  0.00  0.00    +0.000 N 
ATOM     11  N   UNL     1      -4.422  11.549  17.971  0.00  0.00    +0.000 N 
ATOM     12  C   UNL     1      -5.396  12.159  17.065  0.00  0.00    +0.000 C 
BRANCH  10  13
ATOM     13  C   UNL     1      -5.115  12.727  20.042  0.00  0.00    +0.000 A 
ATOM     14  C   UNL     1      -5.153  14.099  20.294  0.00  0.00    +0.000 A 
ATOM     15  C   UNL     1      -6.213  14.651  21.019  0.00  0.00    +0.000 A 
ATOM     16  C   UNL     1      -7.213  13.827  21.536  0.00  0.00    +0.000 A 
ATOM     17  C   UNL     1      -7.151  12.450  21.337  0.00  0.00    +0.000 A 
ATOM     18  C   UNL     1      -6.110  11.901  20.587  0.00  0.00    +0.000 A 
ENDBRANCH  10  13
ENDBRANCH   1   7
BRANCH   2  19
ATOM     19  C   UNL     1       1.499  10.673  18.611  0.00  0.00    +0.000 C 
BRANCH  19  20
ATOM     20  C   UNL     1       1.148   9.269  19.092  0.00  0.00    +0.000 C 
BRANCH  20  21
ATOM     21  C   UNL     1       2.130   8.149  18.828  0.00  0.00    +0.000 A 
ATOM     22  C   UNL     1       2.894   8.019  17.661  0.00  0.00    +0.000 A 
ATOM     23  C   UNL     1       3.760   6.925  17.492  0.00  0.00    +0.000 A 
ATOM     24  C   UNL     1       3.890   5.964  18.503  0.00  0.00    +0.000 A 
ATOM     25  C   UNL     1       3.100   6.059  19.650  0.00  0.00    +0.000 A 
ATOM     26  C   UNL     1       2.246   7.149  19.814  0.00  0.00    +0.000 A 
BRANCH  24  27
ATOM     27  S   UNL     1       4.886   4.501  18.243  0.00  0.00    +0.000 S 
ATOM     28  O   UNL     1       5.719   4.768  17.090  0.00  0.00    +0.000 OA
ATOM     29  O   UNL     1       5.474   4.164  19.521  0.00  0.00    +0.000 OA
BRANCH  27  30
ATOM     30  N   UNL     1       3.825   3.260  17.825  0.00  0.00    +0.000 NA
ATOM     31  C   UNL     1       2.597   3.551  17.050  0.00  0.00    +0.000 C 
ATOM     32  C   UNL     1       1.402   3.740  17.989  0.00  0.00    +0.000 C 
ATOM     33  O   UNL     1       1.230   2.620  18.871  0.00  0.00    +0.000 OA
ATOM     34  C   UNL     1       2.413   2.337  19.634  0.00  0.00    +0.000 C 
ATOM     35  C   UNL     1       3.625   2.106  18.733  0.00  0.00    +0.000 C 
ENDBRANCH  27  30
ENDBRANCH  24  27
ENDBRANCH  20  21
ENDBRANCH  19  20
ENDBRANCH   2  19
TORSDOF 7
ENDMDL
MODEL 9
REMARK VINA RESULT:      -8.1      5.972      9.143
REMARK  Name = 
REMARK  9 active torsions:
REMARK  status: ('A' for Active; 'I' for Inactive)
REMARK    1  A    between atoms: C_1  and  C_2
REMARK    2  A    between atoms: C_3  and  N_4
REMARK    3  A    between atoms: C_5  and  C_7
REMARK    4  A    between atoms: C_7  and  C_8
REMARK    5  A    between atoms: C_8  and  C_9
REMARK    6  A    between atoms: C_12  and  S_13
REMARK    7  A    between atoms: S_13  and  N_16
REMARK    8  A    between atoms: N_26  and  C_27
REMARK    9  A    between atoms: N_33  and  C_34
REMARK                            x       y       z     vdW  Elec       q    Type
REMARK                         _______ _______ _______ _____ _____    ______ ____
ROOT
ATOM      1  N   UNL     1       2.384   6.246  20.591  0.00  0.00    +0.000 N 
ATOM      2  C   UNL     1       1.729   5.035  20.580  0.00  0.00    +0.000 C 
ATOM      3  O   UNL     1       0.704   4.780  19.959  0.00  0.00    +0.000 OA
ATOM      4  H   UNL     1       3.350   6.250  20.911  0.00  0.00    +0.000 HD
ENDROOT
BRANCH   1   7
ATOM      5  C   UNL     1       3.067   7.646  17.690  0.00  0.00    +0.000 C 
ATOM      6  C   UNL     1       2.222   8.061  18.851  0.00  0.00    +0.000 A 
ATOM      7  C   UNL     1       1.999   7.433  20.021  0.00  0.00    +0.000 A 
ATOM      8  C   UNL     1       1.143   8.376  20.824  0.00  0.00    +0.000 A 
ATOM      9  O   UNL     1       0.719   8.096  21.937  0.00  0.00    +0.000 OA
ATOM     10  N   UNL     1       0.969   9.516  20.042  0.00  0.00    +0.000 N 
ATOM     11  N   UNL     1       1.502   9.269  18.761  0.00  0.00    +0.000 N 
ATOM     12  C   UNL     1       1.999  10.400  17.976  0.00  0.00    +0.000 C 
BRANCH  10  13
ATOM     13  C   UNL     1       0.059  10.555  20.317  0.00  0.00    +0.000 A 
ATOM     14  C   UNL     1       0.336  11.468  21.335  0.00  0.00    +0.000 A 
ATOM     15  C   UNL     1      -0.482  12.586  21.519  0.00  0.00    +0.000 A 
ATOM     16  C   UNL     1      -1.607  12.770  20.715  0.00  0.00    +0.000 A 
ATOM     17  C   UNL     1      -1.922  11.833  19.733  0.00  0.00    +0.000 A 
ATOM     18  C   UNL     1      -1.088  10.733  19.530  0.00  0.00    +0.000 A 
ENDBRANCH  10  13
ENDBRANCH   1   7
BRANCH   2  19
ATOM     19  C   UNL     1       2.471   3.937  21.319  0.00  0.00    +0.000 C 
BRANCH  19  20
ATOM     20  C   UNL     1       3.182   3.058  20.295  0.00  0.00    +0.000 C 
BRANCH  20  21
ATOM     21  C   UNL     1       4.050   3.724  19.249  0.00  0.00    +0.000 A 
ATOM     22  C   UNL     1       5.231   4.424  19.525  0.00  0.00    +0.000 A 
ATOM     23  C   UNL     1       5.957   5.036  18.489  0.00  0.00    +0.000 A 
ATOM     24  C   UNL     1       5.520   4.932  17.162  0.00  0.00    +0.000 A 
ATOM     25  C   UNL     1       4.320   4.276  16.882  0.00  0.00    +0.000 A 
ATOM     26  C   UNL     1       3.607   3.666  17.914  0.00  0.00    +0.000 A 
BRANCH  24  27
ATOM     27  S   UNL     1       6.361   5.819  15.856  0.00  0.00    +0.000 S 
ATOM     28  O   UNL     1       5.333   6.457  15.062  0.00  0.00    +0.000 OA
ATOM     29  O   UNL     1       7.403   6.600  16.487  0.00  0.00    +0.000 OA
BRANCH  27  30
ATOM     30  N   UNL     1       7.107   4.662  14.885  0.00  0.00    +0.000 NA
ATOM     31  C   UNL     1       8.149   5.058  13.910  0.00  0.00    +0.000 C 
ATOM     32  C   UNL     1       7.534   5.271  12.524  0.00  0.00    +0.000 C 
ATOM     33  O   UNL     1       6.794   4.123  12.083  0.00  0.00    +0.000 OA
ATOM     34  C   UNL     1       5.774   3.738  13.018  0.00  0.00    +0.000 C 
ATOM     35  C   UNL     1       6.350   3.480  14.410  0.00  0.00    +0.000 C 
ENDBRANCH  27  30
ENDBRANCH  24  27
ENDBRANCH  20  21
ENDBRANCH  19  20
ENDBRANCH   2  19
TORSDOF 7
ENDMDL
