MODEL 1
REMARK VINA RESULT:      -8.8      0.000      0.000
REMARK  Name = 
REMARK  5 active torsions:
REMARK  status: ('A' for Active; 'I' for Inactive)
REMARK    1  A    between atoms: C_4  and  C_5
REMARK    2  A    between atoms: C_8  and  C_9
REMARK    3  A    between atoms: N_17  and  S_18
REMARK    4  A    between atoms: S_18  and  C_21
REMARK    5  A    between atoms: C_26  and  N_27
REMARK                            x       y       z     vdW  Elec       q    Type
REMARK                         _______ _______ _______ _____ _____    ______ ____
ROOT
ATOM      1  O   UNL     1       2.741   2.272  17.826  0.00  0.00    +0.000 OA
ATOM      2  C   UNL     1       2.482   3.226  18.523  0.00  0.00    +0.000 C 
ATOM      3  C   UNL     1       1.231   3.827  19.226  0.00  0.00    +0.000 C 
ATOM      4  C   UNL     1       2.229   4.834  19.861  0.00  0.00    +0.000 C 
ATOM      5  N   UNL     1       3.313   4.172  19.102  0.00  0.00    +0.000 N 
ENDROOT
BRANCH   4   6
ATOM      6  C   UNL     1       2.007   6.377  19.608  0.00  0.00    +0.000 A 
ATOM      7  C   UNL     1       2.243   6.951  18.347  0.00  0.00    +0.000 A 
ATOM      8  C   UNL     1       2.022   8.311  18.093  0.00  0.00    +0.000 A 
ATOM      9  C   UNL     1       1.534   9.173  19.085  0.00  0.00    +0.000 A 
ATOM     10  C   UNL     1       1.312   8.613  20.351  0.00  0.00    +0.000 A 
ATOM     11  C   UNL     1       1.552   7.257  20.604  0.00  0.00    +0.000 A 
BRANCH   9  12
ATOM     12  C   UNL     1       1.259  10.602  18.811  0.00  0.00    +0.000 A 
ATOM     13  C   UNL     1      -0.031  11.142  18.953  0.00  0.00    +0.000 A 
ATOM     14  C   UNL     1      -0.297  12.485  18.667  0.00  0.00    +0.000 A 
ATOM     15  C   UNL     1       0.730  13.325  18.251  0.00  0.00    +0.000 A 
ATOM     16  C   UNL     1       2.022  12.825  18.125  0.00  0.00    +0.000 A 
ATOM     17  C   UNL     1       2.280  11.478  18.396  0.00  0.00    +0.000 A 
ENDBRANCH   9  12
ENDBRANCH   4   6
BRANCH   5  18
ATOM     18  S   UNL     1       4.954   4.329  19.068  0.00  0.00    +0.000 S 
ATOM     19  O   UNL     1       5.322   5.558  19.725  0.00  0.00    +0.000 OA
ATOM     20  O   UNL     1       5.496   3.049  19.463  0.00  0.00    +0.000 OA
BRANCH  18  21
ATOM     21  C   UNL     1       5.394   4.537  17.359  0.00  0.00    +0.000 A 
ATOM     22  C   UNL     1       4.418   4.438  16.360  0.00  0.00    +0.000 A 
ATOM     23  C   UNL     1       4.755   4.610  15.013  0.00  0.00    +0.000 A 
ATOM     24  C   UNL     1       6.066   4.890  14.646  0.00  0.00    +0.000 A 
ATOM     25  C   UNL     1       7.050   5.007  15.625  0.00  0.00    +0.000 A 
ATOM     26  C   UNL     1       6.709   4.834  16.980  0.00  0.00    +0.000 A 
BRANCH  26  27
ATOM     27  N   UNL     1       7.798   4.961  17.935  0.00  0.00    +0.000 N 
ATOM     28  O   UNL     1       8.586   4.014  18.023  0.00  0.00    +0.000 OA
ATOM     29  O   UNL     1       7.919   6.056  18.497  0.00  0.00    +0.000 OA
ENDBRANCH  26  27
ENDBRANCH  18  21
ENDBRANCH   5  18
TORSDOF 5
ENDMDL
MODEL 2
REMARK VINA RESULT:      -8.8      2.045      4.354
REMARK  Name = 
REMARK  5 active torsions:
REMARK  status: ('A' for Active; 'I' for Inactive)
REMARK    1  A    between atoms: C_4  and  C_5
REMARK    2  A    between atoms: C_8  and  C_9
REMARK    3  A    between atoms: N_17  and  S_18
REMARK    4  A    between atoms: S_18  and  C_21
REMARK    5  A    between atoms: C_26  and  N_27
REMARK                            x       y       z     vdW  Elec       q    Type
REMARK                         _______ _______ _______ _____ _____    ______ ____
ROOT
ATOM      1  O   UNL     1       6.498   4.265  17.349  0.00  0.00    +0.000 OA
ATOM      2  C   UNL     1       5.616   5.089  17.266  0.00  0.00    +0.000 C 
ATOM      3  C   UNL     1       5.495   6.621  17.029  0.00  0.00    +0.000 C 
ATOM      4  C   UNL     1       3.964   6.365  16.982  0.00  0.00    +0.000 C 
ATOM      5  N   UNL     1       4.239   4.935  17.241  0.00  0.00    +0.000 N 
ENDROOT
BRANCH   4   6
ATOM      6  C   UNL     1       3.040   7.122  18.016  0.00  0.00    +0.000 A 
ATOM      7  C   UNL     1       2.927   6.689  19.348  0.00  0.00    +0.000 A 
ATOM      8  C   UNL     1       2.139   7.365  20.288  0.00  0.00    +0.000 A 
ATOM      9  C   UNL     1       1.431   8.527  19.951  0.00  0.00    +0.000 A 
ATOM     10  C   UNL     1       1.524   8.957  18.621  0.00  0.00    +0.000 A 
ATOM     11  C   UNL     1       2.298   8.268  17.680  0.00  0.00    +0.000 A 
BRANCH   9  12
ATOM     12  C   UNL     1       0.629   9.269  20.952  0.00  0.00    +0.000 A 
ATOM     13  C   UNL     1       0.499   8.810  22.275  0.00  0.00    +0.000 A 
ATOM     14  C   UNL     1      -0.281   9.493  23.212  0.00  0.00    +0.000 A 
ATOM     15  C   UNL     1      -0.935  10.668  22.852  0.00  0.00    +0.000 A 
ATOM     16  C   UNL     1      -0.805  11.159  21.556  0.00  0.00    +0.000 A 
ATOM     17  C   UNL     1      -0.038  10.463  20.618  0.00  0.00    +0.000 A 
ENDBRANCH   9  12
ENDBRANCH   4   6
BRANCH   5  18
ATOM     18  S   UNL     1       3.305   3.576  17.293  0.00  0.00    +0.000 S 
ATOM     19  O   UNL     1       2.208   3.725  16.371  0.00  0.00    +0.000 OA
ATOM     20  O   UNL     1       4.214   2.453  17.239  0.00  0.00    +0.000 OA
BRANCH  18  21
ATOM     21  C   UNL     1       2.580   3.538  18.915  0.00  0.00    +0.000 A 
ATOM     22  C   UNL     1       1.228   3.854  19.093  0.00  0.00    +0.000 A 
ATOM     23  C   UNL     1       0.648   3.817  20.366  0.00  0.00    +0.000 A 
ATOM     24  C   UNL     1       1.405   3.456  21.474  0.00  0.00    +0.000 A 
ATOM     25  C   UNL     1       2.748   3.123  21.316  0.00  0.00    +0.000 A 
ATOM     26  C   UNL     1       3.331   3.161  20.036  0.00  0.00    +0.000 A 
BRANCH  26  27
ATOM     27  N   UNL     1       4.740   2.811  19.962  0.00  0.00    +0.000 N 
ATOM     28  O   UNL     1       5.555   3.739  19.975  0.00  0.00    +0.000 OA
ATOM     29  O   UNL     1       5.017   1.607  20.014  0.00  0.00    +0.000 OA
ENDBRANCH  26  27
ENDBRANCH  18  21
ENDBRANCH   5  18
TORSDOF 5
ENDMDL
MODEL 3
REMARK VINA RESULT:      -8.6      0.143      1.389
REMARK  Name = 
REMARK  5 active torsions:
REMARK  status: ('A' for Active; 'I' for Inactive)
REMARK    1  A    between atoms: C_4  and  C_5
REMARK    2  A    between atoms: C_8  and  C_9
REMARK    3  A    between atoms: N_17  and  S_18
REMARK    4  A    between atoms: S_18  and  C_21
REMARK    5  A    between atoms: C_26  and  N_27
REMARK                            x       y       z     vdW  Elec       q    Type
REMARK                         _______ _______ _______ _____ _____    ______ ____
ROOT
ATOM      1  O   UNL     1       2.873   2.194  17.877  0.00  0.00    +0.000 OA
ATOM      2  C   UNL     1       2.584   3.164  18.539  0.00  0.00    +0.000 C 
ATOM      3  C   UNL     1       1.316   3.750  19.223  0.00  0.00    +0.000 C 
ATOM      4  C   UNL     1       2.282   4.811  19.817  0.00  0.00    +0.000 C 
ATOM      5  N   UNL     1       3.385   4.157  19.080  0.00  0.00    +0.000 N 
ENDROOT
BRANCH   4   6
ATOM      6  C   UNL     1       2.010   6.336  19.508  0.00  0.00    +0.000 A 
ATOM      7  C   UNL     1       1.523   7.206  20.498  0.00  0.00    +0.000 A 
ATOM      8  C   UNL     1       1.305   8.568  20.254  0.00  0.00    +0.000 A 
ATOM      9  C   UNL     1       1.581   9.142  19.005  0.00  0.00    +0.000 A 
ATOM     10  C   UNL     1       2.051   8.279  18.006  0.00  0.00    +0.000 A 
ATOM     11  C   UNL     1       2.249   6.915  18.250  0.00  0.00    +0.000 A 
BRANCH   9  12
ATOM     12  C   UNL     1       1.392  10.589  18.753  0.00  0.00    +0.000 A 
ATOM     13  C   UNL     1       2.434  11.390  18.253  0.00  0.00    +0.000 A 
ATOM     14  C   UNL     1       2.265  12.762  18.042  0.00  0.00    +0.000 A 
ATOM     15  C   UNL     1       1.038  13.362  18.307  0.00  0.00    +0.000 A 
ATOM     16  C   UNL     1      -0.019  12.590  18.779  0.00  0.00    +0.000 A 
ATOM     17  C   UNL     1       0.160  11.223  19.004  0.00  0.00    +0.000 A 
ENDBRANCH   9  12
ENDBRANCH   4   6
BRANCH   5  18
ATOM     18  S   UNL     1       5.020   4.366  19.035  0.00  0.00    +0.000 S 
ATOM     19  O   UNL     1       5.352   5.615  19.672  0.00  0.00    +0.000 OA
ATOM     20  O   UNL     1       5.604   3.108  19.446  0.00  0.00    +0.000 OA
BRANCH  18  21
ATOM     21  C   UNL     1       5.445   4.562  17.321  0.00  0.00    +0.000 A 
ATOM     22  C   UNL     1       4.464   4.436  16.329  0.00  0.00    +0.000 A 
ATOM     23  C   UNL     1       4.789   4.599  14.978  0.00  0.00    +0.000 A 
ATOM     24  C   UNL     1       6.093   4.897  14.599  0.00  0.00    +0.000 A 
ATOM     25  C   UNL     1       7.081   5.042  15.571  0.00  0.00    +0.000 A 
ATOM     26  C   UNL     1       6.753   4.878  16.930  0.00  0.00    +0.000 A 
BRANCH  26  27
ATOM     27  N   UNL     1       7.845   5.033  17.876  0.00  0.00    +0.000 N 
ATOM     28  O   UNL     1       7.907   6.098  18.498  0.00  0.00    +0.000 OA
ATOM     29  O   UNL     1       8.556   4.040  18.072  0.00  0.00    +0.000 OA
ENDBRANCH  26  27
ENDBRANCH  18  21
ENDBRANCH   5  18
TORSDOF 5
ENDMDL
MODEL 4
REMARK VINA RESULT:      -8.6      1.911      2.742
REMARK  Name = 
REMARK  5 active torsions:
REMARK  status: ('A' for Active; 'I' for Inactive)
REMARK    1  A    between atoms: C_4  and  C_5
REMARK    2  A    between atoms: C_8  and  C_9
REMARK    3  A    between atoms: N_17  and  S_18
REMARK    4  A    between atoms: S_18  and  C_21
REMARK    5  A    between atoms: C_26  and  N_27
REMARK                            x       y       z     vdW  Elec       q    Type
REMARK                         _______ _______ _______ _____ _____    ______ ____
ROOT
ATOM      1  O   UNL     1       2.090   2.197  19.675  0.00  0.00    +0.000 OA
ATOM      2  C   UNL     1       2.328   3.356  19.928  0.00  0.00    +0.000 C 
ATOM      3  C   UNL     1       2.113   4.339  21.113  0.00  0.00    +0.000 C 
ATOM      4  C   UNL     1       2.962   5.335  20.275  0.00  0.00    +0.000 C 
ATOM      5  N   UNL     1       3.054   4.302  19.221  0.00  0.00    +0.000 N 
ENDROOT
BRANCH   4   6
ATOM      6  C   UNL     1       2.320   6.721  19.875  0.00  0.00    +0.000 A 
ATOM      7  C   UNL     1       1.561   7.467  20.793  0.00  0.00    +0.000 A 
ATOM      8  C   UNL     1       1.011   8.714  20.468  0.00  0.00    +0.000 A 
ATOM      9  C   UNL     1       1.204   9.294  19.207  0.00  0.00    +0.000 A 
ATOM     10  C   UNL     1       1.945   8.550  18.278  0.00  0.00    +0.000 A 
ATOM     11  C   UNL     1       2.477   7.296  18.602  0.00  0.00    +0.000 A 
BRANCH   9  12
ATOM     12  C   UNL     1       0.659  10.630  18.871  0.00  0.00    +0.000 A 
ATOM     13  C   UNL     1       1.470  11.779  18.887  0.00  0.00    +0.000 A 
ATOM     14  C   UNL     1       0.950  13.044  18.599  0.00  0.00    +0.000 A 
ATOM     15  C   UNL     1      -0.394  13.187  18.266  0.00  0.00    +0.000 A 
ATOM     16  C   UNL     1      -1.215  12.065  18.219  0.00  0.00    +0.000 A 
ATOM     17  C   UNL     1      -0.694  10.804  18.525  0.00  0.00    +0.000 A 
ENDBRANCH   9  12
ENDBRANCH   4   6
BRANCH   5  18
ATOM     18  S   UNL     1       3.872   4.186  17.794  0.00  0.00    +0.000 S 
ATOM     19  O   UNL     1       4.223   2.808  17.563  0.00  0.00    +0.000 OA
ATOM     20  O   UNL     1       3.127   4.966  16.831  0.00  0.00    +0.000 OA
BRANCH  18  21
ATOM     21  C   UNL     1       5.407   5.048  18.035  0.00  0.00    +0.000 A 
ATOM     22  C   UNL     1       6.020   5.064  19.294  0.00  0.00    +0.000 A 
ATOM     23  C   UNL     1       7.233   5.733  19.489  0.00  0.00    +0.000 A 
ATOM     24  C   UNL     1       7.855   6.386  18.431  0.00  0.00    +0.000 A 
ATOM     25  C   UNL     1       7.270   6.369  17.167  0.00  0.00    +0.000 A 
ATOM     26  C   UNL     1       6.049   5.697  16.972  0.00  0.00    +0.000 A 
BRANCH  26  27
ATOM     27  N   UNL     1       5.502   5.739  15.625  0.00  0.00    +0.000 N 
ATOM     28  O   UNL     1       5.067   6.823  15.226  0.00  0.00    +0.000 OA
ATOM     29  O   UNL     1       5.626   4.715  14.943  0.00  0.00    +0.000 OA
ENDBRANCH  26  27
ENDBRANCH  18  21
ENDBRANCH   5  18
TORSDOF 5
ENDMDL
MODEL 5
REMARK VINA RESULT:      -8.5      1.917      2.462
REMARK  Name = 
REMARK  5 active torsions:
REMARK  status: ('A' for Active; 'I' for Inactive)
REMARK    1  A    between atoms: C_4  and  C_5
REMARK    2  A    between atoms: C_8  and  C_9
REMARK    3  A    between atoms: N_17  and  S_18
REMARK    4  A    between atoms: S_18  and  C_21
REMARK    5  A    between atoms: C_26  and  N_27
REMARK                            x       y       z     vdW  Elec       q    Type
REMARK                         _______ _______ _______ _____ _____    ______ ____
ROOT
ATOM      1  O   UNL     1       1.910   2.186  19.515  0.00  0.00    +0.000 OA
ATOM      2  C   UNL     1       2.197   3.319  19.828  0.00  0.00    +0.000 C 
ATOM      3  C   UNL     1       2.015   4.250  21.060  0.00  0.00    +0.000 C 
ATOM      4  C   UNL     1       2.914   5.247  20.279  0.00  0.00    +0.000 C 
ATOM      5  N   UNL     1       2.969   4.266  19.174  0.00  0.00    +0.000 N 
ENDROOT
BRANCH   4   6
ATOM      6  C   UNL     1       2.337   6.680  19.945  0.00  0.00    +0.000 A 
ATOM      7  C   UNL     1       2.535   7.271  18.686  0.00  0.00    +0.000 A 
ATOM      8  C   UNL     1       2.005   8.526  18.359  0.00  0.00    +0.000 A 
ATOM      9  C   UNL     1       1.229   9.254  19.272  0.00  0.00    +0.000 A 
ATOM     10  C   UNL     1       1.040   8.680  20.536  0.00  0.00    +0.000 A 
ATOM     11  C   UNL     1       1.588   7.434  20.864  0.00  0.00    +0.000 A 
BRANCH   9  12
ATOM     12  C   UNL     1       0.632  10.563  18.918  0.00  0.00    +0.000 A 
ATOM     13  C   UNL     1      -0.727  10.681  18.574  0.00  0.00    +0.000 A 
ATOM     14  C   UNL     1      -1.284  11.911  18.211  0.00  0.00    +0.000 A 
ATOM     15  C   UNL     1      -0.498  13.058  18.205  0.00  0.00    +0.000 A 
ATOM     16  C   UNL     1       0.844  12.976  18.564  0.00  0.00    +0.000 A 
ATOM     17  C   UNL     1       1.401  11.742  18.909  0.00  0.00    +0.000 A 
ENDBRANCH   9  12
ENDBRANCH   4   6
BRANCH   5  18
ATOM     18  S   UNL     1       3.793   4.186  17.747  0.00  0.00    +0.000 S 
ATOM     19  O   UNL     1       4.130   2.812  17.475  0.00  0.00    +0.000 OA
ATOM     20  O   UNL     1       3.061   5.004  16.806  0.00  0.00    +0.000 OA
BRANCH  18  21
ATOM     21  C   UNL     1       5.335   5.024  18.022  0.00  0.00    +0.000 A 
ATOM     22  C   UNL     1       5.922   5.029  19.294  0.00  0.00    +0.000 A 
ATOM     23  C   UNL     1       7.141   5.679  19.515  0.00  0.00    +0.000 A 
ATOM     24  C   UNL     1       7.795   6.324  18.472  0.00  0.00    +0.000 A 
ATOM     25  C   UNL     1       7.236   6.318  17.196  0.00  0.00    +0.000 A 
ATOM     26  C   UNL     1       6.010   5.664  16.974  0.00  0.00    +0.000 A 
BRANCH  26  27
ATOM     27  N   UNL     1       5.492   5.717  15.617  0.00  0.00    +0.000 N 
ATOM     28  O   UNL     1       5.092   6.810  15.206  0.00  0.00    +0.000 OA
ATOM     29  O   UNL     1       5.605   4.688  14.938  0.00  0.00    +0.000 OA
ENDBRANCH  26  27
ENDBRANCH  18  21
ENDBRANCH   5  18
TORSDOF 5
ENDMDL
MODEL 6
REMARK VINA RESULT:      -8.4      2.059      4.281
REMARK  Name = 
REMARK  5 active torsions:
REMARK  status: ('A' for Active; 'I' for Inactive)
REMARK    1  A    between atoms: C_4  and  C_5
REMARK    2  A    between atoms: C_8  and  C_9
REMARK    3  A    between atoms: N_17  and  S_18
REMARK    4  A    between atoms: S_18  and  C_21
REMARK    5  A    between atoms: C_26  and  N_27
REMARK                            x       y       z     vdW  Elec       q    Type
REMARK                         _______ _______ _______ _____ _____    ______ ____
ROOT
ATOM      1  O   UNL     1       6.467   3.994  17.240  0.00  0.00    +0.000 OA
ATOM      2  C   UNL     1       5.626   4.862  17.188  0.00  0.00    +0.000 C 
ATOM      3  C   UNL     1       5.577   6.398  16.953  0.00  0.00    +0.000 C 
ATOM      4  C   UNL     1       4.033   6.222  16.962  0.00  0.00    +0.000 C 
ATOM      5  N   UNL     1       4.243   4.779  17.212  0.00  0.00    +0.000 N 
ENDROOT
BRANCH   4   6
ATOM      6  C   UNL     1       3.188   7.026  18.027  0.00  0.00    +0.000 A 
ATOM      7  C   UNL     1       2.512   8.208  17.681  0.00  0.00    +0.000 A 
ATOM      8  C   UNL     1       1.731   8.919  18.602  0.00  0.00    +0.000 A 
ATOM      9  C   UNL     1       1.568   8.474  19.922  0.00  0.00    +0.000 A 
ATOM     10  C   UNL     1       2.253   7.305  20.281  0.00  0.00    +0.000 A 
ATOM     11  C   UNL     1       3.047   6.609  19.362  0.00  0.00    +0.000 A 
BRANCH   9  12
ATOM     12  C   UNL     1       0.712   9.199  20.888  0.00  0.00    +0.000 A 
ATOM     13  C   UNL     1       0.662   8.831  22.245  0.00  0.00    +0.000 A 
ATOM     14  C   UNL     1      -0.169   9.496  23.152  0.00  0.00    +0.000 A 
ATOM     15  C   UNL     1      -0.955  10.561  22.725  0.00  0.00    +0.000 A 
ATOM     16  C   UNL     1      -0.909  10.963  21.394  0.00  0.00    +0.000 A 
ATOM     17  C   UNL     1      -0.090  10.285  20.488  0.00  0.00    +0.000 A 
ENDBRANCH   9  12
ENDBRANCH   4   6
BRANCH   5  18
ATOM     18  S   UNL     1       3.243   3.471  17.300  0.00  0.00    +0.000 S 
ATOM     19  O   UNL     1       2.136   3.664  16.397  0.00  0.00    +0.000 OA
ATOM     20  O   UNL     1       4.092   2.302  17.244  0.00  0.00    +0.000 OA
BRANCH  18  21
ATOM     21  C   UNL     1       2.549   3.490  18.936  0.00  0.00    +0.000 A 
ATOM     22  C   UNL     1       1.204   3.826  19.130  0.00  0.00    +0.000 A 
ATOM     23  C   UNL     1       0.648   3.833  20.414  0.00  0.00    +0.000 A 
ATOM     24  C   UNL     1       1.423   3.498  21.518  0.00  0.00    +0.000 A 
ATOM     25  C   UNL     1       2.759   3.145  21.345  0.00  0.00    +0.000 A 
ATOM     26  C   UNL     1       3.317   3.138  20.053  0.00  0.00    +0.000 A 
BRANCH  26  27
ATOM     27  N   UNL     1       4.721   2.770  19.963  0.00  0.00    +0.000 N 
ATOM     28  O   UNL     1       4.984   1.571  19.838  0.00  0.00    +0.000 OA
ATOM     29  O   UNL     1       5.535   3.699  19.897  0.00  0.00    +0.000 OA
ENDBRANCH  26  27
ENDBRANCH  18  21
ENDBRANCH   5  18
TORSDOF 5
ENDMDL
MODEL 7
REMARK VINA RESULT:      -8.4      1.912      2.551
REMARK  Name = 
REMARK  5 active torsions:
REMARK  status: ('A' for Active; 'I' for Inactive)
REMARK    1  A    between atoms: C_4  and  C_5
REMARK    2  A    between atoms: C_8  and  C_9
REMARK    3  A    between atoms: N_17  and  S_18
REMARK    4  A    between atoms: S_18  and  C_21
REMARK    5  A    between atoms: C_26  and  N_27
REMARK                            x       y       z     vdW  Elec       q    Type
REMARK                         _______ _______ _______ _____ _____    ______ ____
ROOT
ATOM      1  O   UNL     1       2.151   2.208  19.666  0.00  0.00    +0.000 OA
ATOM      2  C   UNL     1       2.376   3.368  19.924  0.00  0.00    +0.000 C 
ATOM      3  C   UNL     1       2.149   4.343  21.114  0.00  0.00    +0.000 C 
ATOM      4  C   UNL     1       2.987   5.352  20.282  0.00  0.00    +0.000 C 
ATOM      5  N   UNL     1       3.091   4.325  19.222  0.00  0.00    +0.000 N 
ENDROOT
BRANCH   4   6
ATOM      6  C   UNL     1       2.330   6.733  19.888  0.00  0.00    +0.000 A 
ATOM      7  C   UNL     1       1.549   7.457  20.805  0.00  0.00    +0.000 A 
ATOM      8  C   UNL     1       0.984   8.699  20.486  0.00  0.00    +0.000 A 
ATOM      9  C   UNL     1       1.185   9.296  19.233  0.00  0.00    +0.000 A 
ATOM     10  C   UNL     1       1.948   8.573  18.307  0.00  0.00    +0.000 A 
ATOM     11  C   UNL     1       2.495   7.324  18.624  0.00  0.00    +0.000 A 
BRANCH   9  12
ATOM     12  C   UNL     1       0.624  10.627  18.905  0.00  0.00    +0.000 A 
ATOM     13  C   UNL     1      -0.719  10.783  18.517  0.00  0.00    +0.000 A 
ATOM     14  C   UNL     1      -1.241  12.035  18.179  0.00  0.00    +0.000 A 
ATOM     15  C   UNL     1      -0.435  13.167  18.243  0.00  0.00    +0.000 A 
ATOM     16  C   UNL     1       0.890  13.048  18.647  0.00  0.00    +0.000 A 
ATOM     17  C   UNL     1       1.413  11.791  18.968  0.00  0.00    +0.000 A 
ENDBRANCH   9  12
ENDBRANCH   4   6
BRANCH   5  18
ATOM     18  S   UNL     1       3.911   4.226  17.795  0.00  0.00    +0.000 S 
ATOM     19  O   UNL     1       4.260   2.850  17.548  0.00  0.00    +0.000 OA
ATOM     20  O   UNL     1       3.168   5.019  16.841  0.00  0.00    +0.000 OA
BRANCH  18  21
ATOM     21  C   UNL     1       5.447   5.083  18.048  0.00  0.00    +0.000 A 
ATOM     22  C   UNL     1       6.039   5.114  19.317  0.00  0.00    +0.000 A 
ATOM     23  C   UNL     1       7.253   5.778  19.522  0.00  0.00    +0.000 A 
ATOM     24  C   UNL     1       7.896   6.412  18.464  0.00  0.00    +0.000 A 
ATOM     25  C   UNL     1       7.332   6.380  17.191  0.00  0.00    +0.000 A 
ATOM     26  C   UNL     1       6.110   5.712  16.986  0.00  0.00    +0.000 A 
BRANCH  26  27
ATOM     27  N   UNL     1       5.585   5.737  15.631  0.00  0.00    +0.000 N 
ATOM     28  O   UNL     1       5.614   4.680  14.993  0.00  0.00    +0.000 OA
ATOM     29  O   UNL     1       5.039   6.785  15.266  0.00  0.00    +0.000 OA
ENDBRANCH  26  27
ENDBRANCH  18  21
ENDBRANCH   5  18
TORSDOF 5
ENDMDL
MODEL 8
REMARK VINA RESULT:      -8.3      2.125      4.452
REMARK  Name = 
REMARK  5 active torsions:
REMARK  status: ('A' for Active; 'I' for Inactive)
REMARK    1  A    between atoms: C_4  and  C_5
REMARK    2  A    between atoms: C_8  and  C_9
REMARK    3  A    between atoms: N_17  and  S_18
REMARK    4  A    between atoms: S_18  and  C_21
REMARK    5  A    between atoms: C_26  and  N_27
REMARK                            x       y       z     vdW  Elec       q    Type
REMARK                         _______ _______ _______ _____ _____    ______ ____
ROOT
ATOM      1  O   UNL     1       5.811   4.244  17.608  0.00  0.00    +0.000 OA
ATOM      2  C   UNL     1       5.030   5.165  17.528  0.00  0.00    +0.000 C 
ATOM      3  C   UNL     1       5.089   6.704  17.311  0.00  0.00    +0.000 C 
ATOM      4  C   UNL     1       3.539   6.626  17.245  0.00  0.00    +0.000 C 
ATOM      5  N   UNL     1       3.645   5.170  17.487  0.00  0.00    +0.000 N 
ENDROOT
BRANCH   4   6
ATOM      6  C   UNL     1       2.697   7.472  18.280  0.00  0.00    +0.000 A 
ATOM      7  C   UNL     1       2.043   8.655  17.895  0.00  0.00    +0.000 A 
ATOM      8  C   UNL     1       1.265   9.402  18.788  0.00  0.00    +0.000 A 
ATOM      9  C   UNL     1       1.083   8.996  20.118  0.00  0.00    +0.000 A 
ATOM     10  C   UNL     1       1.745   7.827  20.516  0.00  0.00    +0.000 A 
ATOM     11  C   UNL     1       2.537   7.094  19.624  0.00  0.00    +0.000 A 
BRANCH   9  12
ATOM     12  C   UNL     1       0.229   9.760  21.056  0.00  0.00    +0.000 A 
ATOM     13  C   UNL     1      -0.408  10.952  20.665  0.00  0.00    +0.000 A 
ATOM     14  C   UNL     1      -1.191  11.689  21.558  0.00  0.00    +0.000 A 
ATOM     15  C   UNL     1      -1.373  11.239  22.862  0.00  0.00    +0.000 A 
ATOM     16  C   UNL     1      -0.776  10.051  23.270  0.00  0.00    +0.000 A 
ATOM     17  C   UNL     1       0.020   9.326  22.379  0.00  0.00    +0.000 A 
ENDBRANCH   9  12
ENDBRANCH   4   6
BRANCH   5  18
ATOM     18  S   UNL     1       2.561   3.928  17.511  0.00  0.00    +0.000 S 
ATOM     19  O   UNL     1       1.309   4.386  16.965  0.00  0.00    +0.000 OA
ATOM     20  O   UNL     1       3.254   2.770  16.992  0.00  0.00    +0.000 OA
BRANCH  18  21
ATOM     21  C   UNL     1       2.250   3.579  19.225  0.00  0.00    +0.000 A 
ATOM     22  C   UNL     1       1.180   4.192  19.890  0.00  0.00    +0.000 A 
ATOM     23  C   UNL     1       0.923   3.915  21.237  0.00  0.00    +0.000 A 
ATOM     24  C   UNL     1       1.722   3.018  21.936  0.00  0.00    +0.000 A 
ATOM     25  C   UNL     1       2.781   2.385  21.290  0.00  0.00    +0.000 A 
ATOM     26  C   UNL     1       3.039   2.665  19.935  0.00  0.00    +0.000 A 
BRANCH  26  27
ATOM     27  N   UNL     1       4.171   1.971  19.341  0.00  0.00    +0.000 N 
ATOM     28  O   UNL     1       5.300   2.370  19.641  0.00  0.00    +0.000 OA
ATOM     29  O   UNL     1       3.916   0.958  18.678  0.00  0.00    +0.000 OA
ENDBRANCH  26  27
ENDBRANCH  18  21
ENDBRANCH   5  18
TORSDOF 5
ENDMDL
MODEL 9
REMARK VINA RESULT:      -8.2      5.803     10.012
REMARK  Name = 
REMARK  5 active torsions:
REMARK  status: ('A' for Active; 'I' for Inactive)
REMARK    1  A    between atoms: C_4  and  C_5
REMARK    2  A    between atoms: C_8  and  C_9
REMARK    3  A    between atoms: N_17  and  S_18
REMARK    4  A    between atoms: S_18  and  C_21
REMARK    5  A    between atoms: C_26  and  N_27
REMARK                            x       y       z     vdW  Elec       q    Type
REMARK                         _______ _______ _______ _____ _____    ______ ____
ROOT
ATOM      1  O   UNL     1       0.142  13.953  18.380  0.00  0.00    +0.000 OA
ATOM      2  C   UNL     1       0.397  12.910  18.938  0.00  0.00    +0.000 C 
ATOM      3  C   UNL     1       1.490  12.359  19.897  0.00  0.00    +0.000 C 
ATOM      4  C   UNL     1       0.607  11.083  19.965  0.00  0.00    +0.000 C 
ATOM      5  N   UNL     1      -0.329  11.732  19.021  0.00  0.00    +0.000 N 
ENDROOT
BRANCH   4   6
ATOM      6  C   UNL     1       1.238   9.704  19.524  0.00  0.00    +0.000 A 
ATOM      7  C   UNL     1       1.369   8.638  20.431  0.00  0.00    +0.000 A 
ATOM      8  C   UNL     1       1.897   7.396  20.052  0.00  0.00    +0.000 A 
ATOM      9  C   UNL     1       2.308   7.146  18.734  0.00  0.00    +0.000 A 
ATOM     10  C   UNL     1       2.197   8.209  17.828  0.00  0.00    +0.000 A 
ATOM     11  C   UNL     1       1.687   9.453  18.216  0.00  0.00    +0.000 A 
BRANCH   9  12
ATOM     12  C   UNL     1       2.828   5.823  18.319  0.00  0.00    +0.000 A 
ATOM     13  C   UNL     1       1.978   4.829  17.801  0.00  0.00    +0.000 A 
ATOM     14  C   UNL     1       2.463   3.570  17.436  0.00  0.00    +0.000 A 
ATOM     15  C   UNL     1       3.819   3.283  17.560  0.00  0.00    +0.000 A 
ATOM     16  C   UNL     1       4.688   4.254  18.045  0.00  0.00    +0.000 A 
ATOM     17  C   UNL     1       4.195   5.506  18.425  0.00  0.00    +0.000 A 
ENDBRANCH   9  12
ENDBRANCH   4   6
BRANCH   5  18
ATOM     18  S   UNL     1      -1.808  11.332  18.412  0.00  0.00    +0.000 S 
ATOM     19  O   UNL     1      -1.967  11.951  17.120  0.00  0.00    +0.000 OA
ATOM     20  O   UNL     1      -1.961   9.909  18.612  0.00  0.00    +0.000 OA
BRANCH  18  21
ATOM     21  C   UNL     1      -3.004  12.104  19.475  0.00  0.00    +0.000 A 
ATOM     22  C   UNL     1      -2.593  12.775  20.633  0.00  0.00    +0.000 A 
ATOM     23  C   UNL     1      -3.528  13.393  21.470  0.00  0.00    +0.000 A 
ATOM     24  C   UNL     1      -4.883  13.359  21.158  0.00  0.00    +0.000 A 
ATOM     25  C   UNL     1      -5.311  12.710  20.003  0.00  0.00    +0.000 A 
ATOM     26  C   UNL     1      -4.370  12.088  19.162  0.00  0.00    +0.000 A 
BRANCH  26  27
ATOM     27  N   UNL     1      -4.903  11.424  17.983  0.00  0.00    +0.000 N 
ATOM     28  O   UNL     1      -5.176  10.225  18.086  0.00  0.00    +0.000 OA
ATOM     29  O   UNL     1      -5.154  12.141  17.007  0.00  0.00    +0.000 OA
ENDBRANCH  26  27
ENDBRANCH  18  21
ENDBRANCH   5  18
TORSDOF 5
ENDMDL
