MODEL 1
REMARK VINA RESULT:      -7.2      0.000      0.000
REMARK  Name = 
REMARK  4 active torsions:
REMARK  status: ('A' for Active; 'I' for Inactive)
REMARK    1  A    between atoms: C_1  and  C_2
REMARK    2  A    between atoms: C_8  and  N_9
REMARK    3  A    between atoms: C_12  and  C_13
REMARK    4  A    between atoms: N_15  and  C_16
REMARK                            x       y       z     vdW  Elec       q    Type
REMARK                         _______ _______ _______ _____ _____    ______ ____
ROOT
ATOM      1  N   UNL     1       5.777   4.865  18.281  0.00  0.00    +0.000 N 
ATOM      2  C   UNL     1       5.627   5.085  16.865  0.00  0.00    +0.000 C 
ATOM      3  C   UNL     1       7.038   5.412  16.417  0.00  0.00    +0.000 C 
ATOM      4  C   UNL     1       7.649   6.120  17.629  0.00  0.00    +0.000 C 
ATOM      5  C   UNL     1       6.893   5.524  18.790  0.00  0.00    +0.000 C 
ATOM      6  O   UNL     1       7.247   5.631  19.956  0.00  0.00    +0.000 OA
ENDROOT
BRANCH   1  14
ATOM      7  C   UNL     1       3.408   6.585  18.885  0.00  0.00    +0.000 C 
ATOM      8  C   UNL     1       3.594   5.182  19.397  0.00  0.00    +0.000 A 
ATOM      9  C   UNL     1       2.588   4.621  20.206  0.00  0.00    +0.000 A 
ATOM     10  C   UNL     1       2.679   3.298  20.638  0.00  0.00    +0.000 A 
ATOM     11 BR   UNL     1       1.317   2.570  21.729  0.00  0.00    +0.000 Br
ATOM     12  C   UNL     1       3.758   2.506  20.265  0.00  0.00    +0.000 A 
ATOM     13  C   UNL     1       4.762   3.048  19.464  0.00  0.00    +0.000 A 
ATOM     14  C   UNL     1       4.702   4.386  19.051  0.00  0.00    +0.000 A 
ENDBRANCH   1  14
BRANCH   4  15
ATOM     15  C   UNL     1       7.505   7.626  17.596  0.00  0.00    +0.000 C 
ATOM     16  O   UNL     1       6.655   8.199  16.922  0.00  0.00    +0.000 OA
ATOM     17  N   UNL     1       8.448   8.284  18.365  0.00  0.00    +0.000 N 
ATOM     18  H   UNL     1       9.038   7.734  18.985  0.00  0.00    +0.000 HD
BRANCH  17  19
ATOM     19  C   UNL     1       8.506   9.706  18.459  0.00  0.00    +0.000 C 
ATOM     20  C   UNL     1       9.272  10.383  19.561  0.00  0.00    +0.000 C 
ATOM     21  C   UNL     1       9.787  10.431  18.153  0.00  0.00    +0.000 C 
ENDBRANCH  17  19
ENDBRANCH   4  15
TORSDOF 3
ENDMDL
MODEL 2
REMARK VINA RESULT:      -7.2      2.414      4.211
REMARK  Name = 
REMARK  4 active torsions:
REMARK  status: ('A' for Active; 'I' for Inactive)
REMARK    1  A    between atoms: C_1  and  C_2
REMARK    2  A    between atoms: C_8  and  N_9
REMARK    3  A    between atoms: C_12  and  C_13
REMARK    4  A    between atoms: N_15  and  C_16
REMARK                            x       y       z     vdW  Elec       q    Type
REMARK                         _______ _______ _______ _____ _____    ______ ____
ROOT
ATOM      1  N   UNL     1       5.129   5.451  18.488  0.00  0.00    +0.000 N 
ATOM      2  C   UNL     1       6.504   5.560  18.903  0.00  0.00    +0.000 C 
ATOM      3  C   UNL     1       7.111   6.464  17.848  0.00  0.00    +0.000 C 
ATOM      4  C   UNL     1       6.319   6.127  16.582  0.00  0.00    +0.000 C 
ATOM      5  C   UNL     1       4.982   5.685  17.123  0.00  0.00    +0.000 C 
ATOM      6  O   UNL     1       3.977   5.569  16.435  0.00  0.00    +0.000 OA
ENDROOT
BRANCH   1  14
ATOM      7  C   UNL     1       2.711   6.885  19.503  0.00  0.00    +0.000 C 
ATOM      8  C   UNL     1       3.058   5.460  19.839  0.00  0.00    +0.000 A 
ATOM      9  C   UNL     1       2.191   4.734  20.676  0.00  0.00    +0.000 A 
ATOM     10  C   UNL     1       2.429   3.387  20.949  0.00  0.00    +0.000 A 
ATOM     11 BR   UNL     1       1.251   2.436  22.082  0.00  0.00    +0.000 Br
ATOM     12  C   UNL     1       3.521   2.735  20.390  0.00  0.00    +0.000 A 
ATOM     13  C   UNL     1       4.390   3.442  19.559  0.00  0.00    +0.000 A 
ATOM     14  C   UNL     1       4.182   4.804  19.302  0.00  0.00    +0.000 A 
ENDBRANCH   1  14
BRANCH   4  15
ATOM     15  C   UNL     1       6.952   5.046  15.733  0.00  0.00    +0.000 C 
ATOM     16  O   UNL     1       7.934   4.405  16.094  0.00  0.00    +0.000 OA
ATOM     17  N   UNL     1       6.339   4.885  14.503  0.00  0.00    +0.000 N 
ATOM     18  H   UNL     1       5.461   5.371  14.331  0.00  0.00    +0.000 HD
BRANCH  17  19
ATOM     19  C   UNL     1       6.790   3.936  13.538  0.00  0.00    +0.000 C 
ATOM     20  C   UNL     1       5.876   3.432  12.456  0.00  0.00    +0.000 C 
ATOM     21  C   UNL     1       7.007   4.355  12.111  0.00  0.00    +0.000 C 
ENDBRANCH  17  19
ENDBRANCH   4  15
TORSDOF 3
ENDMDL
MODEL 3
REMARK VINA RESULT:      -7.1      3.740      5.429
REMARK  Name = 
REMARK  4 active torsions:
REMARK  status: ('A' for Active; 'I' for Inactive)
REMARK    1  A    between atoms: C_1  and  C_2
REMARK    2  A    between atoms: C_8  and  N_9
REMARK    3  A    between atoms: C_12  and  C_13
REMARK    4  A    between atoms: N_15  and  C_16
REMARK                            x       y       z     vdW  Elec       q    Type
REMARK                         _______ _______ _______ _____ _____    ______ ____
ROOT
ATOM      1  N   UNL     1       3.731   5.245  17.978  0.00  0.00    +0.000 N 
ATOM      2  C   UNL     1       3.054   4.222  17.221  0.00  0.00    +0.000 C 
ATOM      3  C   UNL     1       4.169   3.252  16.881  0.00  0.00    +0.000 C 
ATOM      4  C   UNL     1       5.403   4.149  16.748  0.00  0.00    +0.000 C 
ATOM      5  C   UNL     1       5.088   5.301  17.670  0.00  0.00    +0.000 C 
ATOM      6  O   UNL     1       5.921   6.114  18.048  0.00  0.00    +0.000 OA
ENDROOT
BRANCH   1  14
ATOM      7  C   UNL     1       2.570   4.867  20.706  0.00  0.00    +0.000 C 
ATOM      8  C   UNL     1       2.401   6.110  19.874  0.00  0.00    +0.000 A 
ATOM      9  C   UNL     1       1.661   7.182  20.405  0.00  0.00    +0.000 A 
ATOM     10  C   UNL     1       1.546   8.383  19.705  0.00  0.00    +0.000 A 
ATOM     11 BR   UNL     1       0.540   9.806  20.439  0.00  0.00    +0.000 Br
ATOM     12  C   UNL     1       2.171   8.546  18.475  0.00  0.00    +0.000 A 
ATOM     13  C   UNL     1       2.908   7.492  17.936  0.00  0.00    +0.000 A 
ATOM     14  C   UNL     1       3.004   6.268  18.612  0.00  0.00    +0.000 A 
ENDBRANCH   1  14
BRANCH   4  15
ATOM     15  C   UNL     1       5.663   4.630  15.338  0.00  0.00    +0.000 C 
ATOM     16  O   UNL     1       5.607   5.813  15.016  0.00  0.00    +0.000 OA
ATOM     17  N   UNL     1       5.927   3.604  14.448  0.00  0.00    +0.000 N 
ATOM     18  H   UNL     1       6.073   2.667  14.817  0.00  0.00    +0.000 HD
BRANCH  17  19
ATOM     19  C   UNL     1       6.178   3.834  13.063  0.00  0.00    +0.000 C 
ATOM     20  C   UNL     1       6.406   2.691  12.113  0.00  0.00    +0.000 C 
ATOM     21  C   UNL     1       5.136   3.485  12.038  0.00  0.00    +0.000 C 
ENDBRANCH  17  19
ENDBRANCH   4  15
TORSDOF 3
ENDMDL
MODEL 4
REMARK VINA RESULT:      -7.0      4.413      6.696
REMARK  Name = 
REMARK  4 active torsions:
REMARK  status: ('A' for Active; 'I' for Inactive)
REMARK    1  A    between atoms: C_1  and  C_2
REMARK    2  A    between atoms: C_8  and  N_9
REMARK    3  A    between atoms: C_12  and  C_13
REMARK    4  A    between atoms: N_15  and  C_16
REMARK                            x       y       z     vdW  Elec       q    Type
REMARK                         _______ _______ _______ _____ _____    ______ ____
ROOT
ATOM      1  N   UNL     1       3.038   5.909  17.867  0.00  0.00    +0.000 N 
ATOM      2  C   UNL     1       4.427   5.589  18.079  0.00  0.00    +0.000 C 
ATOM      3  C   UNL     1       4.630   4.355  17.221  0.00  0.00    +0.000 C 
ATOM      4  C   UNL     1       3.270   3.652  17.270  0.00  0.00    +0.000 C 
ATOM      5  C   UNL     1       2.304   4.790  17.481  0.00  0.00    +0.000 C 
ATOM      6  O   UNL     1       1.094   4.690  17.325  0.00  0.00    +0.000 OA
ENDROOT
BRANCH   1  14
ATOM      7  C   UNL     1       2.076   6.080  20.691  0.00  0.00    +0.000 C 
ATOM      8  C   UNL     1       1.980   7.200  19.691  0.00  0.00    +0.000 A 
ATOM      9  C   UNL     1       1.413   8.421  20.098  0.00  0.00    +0.000 A 
ATOM     10  C   UNL     1       1.376   9.513  19.230  0.00  0.00    +0.000 A 
ATOM     11 BR   UNL     1       0.603  11.142  19.801  0.00  0.00    +0.000 Br
ATOM     12  C   UNL     1       1.910   9.416  17.951  0.00  0.00    +0.000 A 
ATOM     13  C   UNL     1       2.474   8.211  17.533  0.00  0.00    +0.000 A 
ATOM     14  C   UNL     1       2.488   7.096  18.382  0.00  0.00    +0.000 A 
ENDBRANCH   1  14
BRANCH   4  15
ATOM     15  C   UNL     1       3.153   2.621  18.371  0.00  0.00    +0.000 C 
ATOM     16  O   UNL     1       3.782   1.568  18.367  0.00  0.00    +0.000 OA
ATOM     17  N   UNL     1       2.242   2.968  19.353  0.00  0.00    +0.000 N 
ATOM     18  H   UNL     1       1.854   3.909  19.344  0.00  0.00    +0.000 HD
BRANCH  17  19
ATOM     19  C   UNL     1       1.961   2.129  20.471  0.00  0.00    +0.000 C 
ATOM     20  C   UNL     1       2.680   2.309  21.779  0.00  0.00    +0.000 C 
ATOM     21  C   UNL     1       1.231   2.681  21.665  0.00  0.00    +0.000 C 
ENDBRANCH  17  19
ENDBRANCH   4  15
TORSDOF 3
ENDMDL
MODEL 5
REMARK VINA RESULT:      -6.7      3.962      5.563
REMARK  Name = 
REMARK  4 active torsions:
REMARK  status: ('A' for Active; 'I' for Inactive)
REMARK    1  A    between atoms: C_1  and  C_2
REMARK    2  A    between atoms: C_8  and  N_9
REMARK    3  A    between atoms: C_12  and  C_13
REMARK    4  A    between atoms: N_15  and  C_16
REMARK                            x       y       z     vdW  Elec       q    Type
REMARK                         _______ _______ _______ _____ _____    ______ ____
ROOT
ATOM      1  N   UNL     1       2.586   5.396  19.831  0.00  0.00    +0.000 N 
ATOM      2  C   UNL     1       1.668   4.307  19.612  0.00  0.00    +0.000 C 
ATOM      3  C   UNL     1       2.506   3.083  19.925  0.00  0.00    +0.000 C 
ATOM      4  C   UNL     1       3.920   3.493  19.504  0.00  0.00    +0.000 C 
ATOM      5  C   UNL     1       3.911   4.990  19.689  0.00  0.00    +0.000 C 
ATOM      6  O   UNL     1       4.923   5.677  19.704  0.00  0.00    +0.000 OA
ENDROOT
BRANCH   1  14
ATOM      7  C   UNL     1       2.943   7.076  17.385  0.00  0.00    +0.000 C 
ATOM      8  C   UNL     1       2.337   7.566  18.672  0.00  0.00    +0.000 A 
ATOM      9  C   UNL     1       1.890   8.898  18.743  0.00  0.00    +0.000 A 
ATOM     10  C   UNL     1       1.249   9.373  19.887  0.00  0.00    +0.000 A 
ATOM     11 BR   UNL     1       0.664  11.170  19.959  0.00  0.00    +0.000 Br
ATOM     12  C   UNL     1       1.029   8.534  20.973  0.00  0.00    +0.000 A 
ATOM     13  C   UNL     1       1.466   7.211  20.917  0.00  0.00    +0.000 A 
ATOM     14  C   UNL     1       2.142   6.729  19.787  0.00  0.00    +0.000 A 
ENDBRANCH   1  14
BRANCH   4  15
ATOM     15  C   UNL     1       4.267   3.119  18.080  0.00  0.00    +0.000 C 
ATOM     16  O   UNL     1       3.773   2.154  17.505  0.00  0.00    +0.000 OA
ATOM     17  N   UNL     1       5.220   3.946  17.512  0.00  0.00    +0.000 N 
ATOM     18  H   UNL     1       5.489   4.791  18.011  0.00  0.00    +0.000 HD
BRANCH  17  19
ATOM     19  C   UNL     1       5.708   3.758  16.185  0.00  0.00    +0.000 C 
ATOM     20  C   UNL     1       5.507   4.806  15.126  0.00  0.00    +0.000 C 
ATOM     21  C   UNL     1       6.876   4.565  15.688  0.00  0.00    +0.000 C 
ENDBRANCH  17  19
ENDBRANCH   4  15
TORSDOF 3
ENDMDL
MODEL 6
REMARK VINA RESULT:      -6.7      2.026      3.043
REMARK  Name = 
REMARK  4 active torsions:
REMARK  status: ('A' for Active; 'I' for Inactive)
REMARK    1  A    between atoms: C_1  and  C_2
REMARK    2  A    between atoms: C_8  and  N_9
REMARK    3  A    between atoms: C_12  and  C_13
REMARK    4  A    between atoms: N_15  and  C_16
REMARK                            x       y       z     vdW  Elec       q    Type
REMARK                         _______ _______ _______ _____ _____    ______ ____
ROOT
ATOM      1  N   UNL     1       4.077   5.333  18.440  0.00  0.00    +0.000 N 
ATOM      2  C   UNL     1       3.853   5.124  17.032  0.00  0.00    +0.000 C 
ATOM      3  C   UNL     1       5.021   4.247  16.625  0.00  0.00    +0.000 C 
ATOM      4  C   UNL     1       6.154   4.698  17.551  0.00  0.00    +0.000 C 
ATOM      5  C   UNL     1       5.421   5.184  18.776  0.00  0.00    +0.000 C 
ATOM      6  O   UNL     1       5.963   5.394  19.852  0.00  0.00    +0.000 OA
ENDROOT
BRANCH   1  14
ATOM      7  C   UNL     1       2.664   3.916  20.659  0.00  0.00    +0.000 C 
ATOM      8  C   UNL     1       2.395   5.339  20.251  0.00  0.00    +0.000 A 
ATOM      9  C   UNL     1       1.424   6.070  20.960  0.00  0.00    +0.000 A 
ATOM     10  C   UNL     1       1.197   7.416  20.670  0.00  0.00    +0.000 A 
ATOM     11 BR   UNL     1      -0.117   8.376  21.633  0.00  0.00    +0.000 Br
ATOM     12  C   UNL     1       1.935   8.061  19.684  0.00  0.00    +0.000 A 
ATOM     13  C   UNL     1       2.900   7.347  18.974  0.00  0.00    +0.000 A 
ATOM     14  C   UNL     1       3.116   5.987  19.231  0.00  0.00    +0.000 A 
ENDBRANCH   1  14
BRANCH   4  15
ATOM     15  C   UNL     1       7.027   5.786  16.967  0.00  0.00    +0.000 C 
ATOM     16  O   UNL     1       7.453   5.752  15.816  0.00  0.00    +0.000 OA
ATOM     17  N   UNL     1       7.326   6.793  17.867  0.00  0.00    +0.000 N 
ATOM     18  H   UNL     1       6.837   6.806  18.760  0.00  0.00    +0.000 HD
BRANCH  17  19
ATOM     19  C   UNL     1       8.153   7.905  17.530  0.00  0.00    +0.000 C 
ATOM     20  C   UNL     1       7.643   9.315  17.637  0.00  0.00    +0.000 C 
ATOM     21  C   UNL     1       8.671   8.815  18.608  0.00  0.00    +0.000 C 
ENDBRANCH  17  19
ENDBRANCH   4  15
TORSDOF 3
ENDMDL
MODEL 7
REMARK VINA RESULT:      -6.6      1.276      1.276
REMARK  Name = 
REMARK  4 active torsions:
REMARK  status: ('A' for Active; 'I' for Inactive)
REMARK    1  A    between atoms: C_1  and  C_2
REMARK    2  A    between atoms: C_8  and  N_9
REMARK    3  A    between atoms: C_12  and  C_13
REMARK    4  A    between atoms: N_15  and  C_16
REMARK                            x       y       z     vdW  Elec       q    Type
REMARK                         _______ _______ _______ _____ _____    ______ ____
ROOT
ATOM      1  N   UNL     1       5.609   4.996  17.446  0.00  0.00    +0.000 N 
ATOM      2  C   UNL     1       5.908   5.362  16.085  0.00  0.00    +0.000 C 
ATOM      3  C   UNL     1       7.382   5.713  16.139  0.00  0.00    +0.000 C 
ATOM      4  C   UNL     1       7.567   6.286  17.547  0.00  0.00    +0.000 C 
ATOM      5  C   UNL     1       6.496   5.585  18.345  0.00  0.00    +0.000 C 
ATOM      6  O   UNL     1       6.462   5.568  19.568  0.00  0.00    +0.000 OA
ENDROOT
BRANCH   1  14
ATOM      7  C   UNL     1       3.266   6.753  18.042  0.00  0.00    +0.000 C 
ATOM      8  C   UNL     1       3.244   5.251  18.121  0.00  0.00    +0.000 A 
ATOM      9  C   UNL     1       2.045   4.613  18.486  0.00  0.00    +0.000 A 
ATOM     10  C   UNL     1       1.955   3.221  18.494  0.00  0.00    +0.000 A 
ATOM     11 BR   UNL     1       0.332   2.387  18.994  0.00  0.00    +0.000 Br
ATOM     12  C   UNL     1       3.045   2.440  18.130  0.00  0.00    +0.000 A 
ATOM     13  C   UNL     1       4.241   3.059  17.767  0.00  0.00    +0.000 A 
ATOM     14  C   UNL     1       4.356   4.456  17.786  0.00  0.00    +0.000 A 
ENDBRANCH   1  14
BRANCH   4  15
ATOM     15  C   UNL     1       7.411   7.789  17.623  0.00  0.00    +0.000 C 
ATOM     16  O   UNL     1       6.440   8.382  17.162  0.00  0.00    +0.000 OA
ATOM     17  N   UNL     1       8.484   8.423  18.222  0.00  0.00    +0.000 N 
ATOM     18  H   UNL     1       9.190   7.852  18.683  0.00  0.00    +0.000 HD
BRANCH  17  19
ATOM     19  C   UNL     1       8.552   9.839  18.377  0.00  0.00    +0.000 C 
ATOM     20  C   UNL     1       9.238  10.461  19.561  0.00  0.00    +0.000 C 
ATOM     21  C   UNL     1       9.862  10.557  18.201  0.00  0.00    +0.000 C 
ENDBRANCH  17  19
ENDBRANCH   4  15
TORSDOF 3
ENDMDL
MODEL 8
REMARK VINA RESULT:      -6.5      3.736      5.115
REMARK  Name = 
REMARK  4 active torsions:
REMARK  status: ('A' for Active; 'I' for Inactive)
REMARK    1  A    between atoms: C_1  and  C_2
REMARK    2  A    between atoms: C_8  and  N_9
REMARK    3  A    between atoms: C_12  and  C_13
REMARK    4  A    between atoms: N_15  and  C_16
REMARK                            x       y       z     vdW  Elec       q    Type
REMARK                         _______ _______ _______ _____ _____    ______ ____
ROOT
ATOM      1  N   UNL     1       3.729   4.955  18.219  0.00  0.00    +0.000 N 
ATOM      2  C   UNL     1       3.077   3.973  17.390  0.00  0.00    +0.000 C 
ATOM      3  C   UNL     1       4.217   3.065  16.972  0.00  0.00    +0.000 C 
ATOM      4  C   UNL     1       5.424   4.005  16.903  0.00  0.00    +0.000 C 
ATOM      5  C   UNL     1       5.082   5.074  17.911  0.00  0.00    +0.000 C 
ATOM      6  O   UNL     1       5.894   5.880  18.346  0.00  0.00    +0.000 OA
ENDROOT
BRANCH   1  14
ATOM      7  C   UNL     1       3.268   7.703  17.137  0.00  0.00    +0.000 C 
ATOM      8  C   UNL     1       2.781   7.224  18.478  0.00  0.00    +0.000 A 
ATOM      9  C   UNL     1       2.046   8.112  19.284  0.00  0.00    +0.000 A 
ATOM     10  C   UNL     1       1.506   7.688  20.499  0.00  0.00    +0.000 A 
ATOM     11 BR   UNL     1       0.527   8.903  21.567  0.00  0.00    +0.000 Br
ATOM     12  C   UNL     1       1.674   6.376  20.927  0.00  0.00    +0.000 A 
ATOM     13  C   UNL     1       2.400   5.485  20.138  0.00  0.00    +0.000 A 
ATOM     14  C   UNL     1       2.978   5.906  18.932  0.00  0.00    +0.000 A 
ENDBRANCH   1  14
BRANCH   4  15
ATOM     15  C   UNL     1       5.661   4.598  15.532  0.00  0.00    +0.000 C 
ATOM     16  O   UNL     1       5.597   5.803  15.308  0.00  0.00    +0.000 OA
ATOM     17  N   UNL     1       5.914   3.648  14.559  0.00  0.00    +0.000 N 
ATOM     18  H   UNL     1       6.068   2.685  14.850  0.00  0.00    +0.000 HD
BRANCH  17  19
ATOM     19  C   UNL     1       6.144   3.989  13.193  0.00  0.00    +0.000 C 
ATOM     20  C   UNL     1       6.504   2.940  12.179  0.00  0.00    +0.000 C 
ATOM     21  C   UNL     1       5.152   3.587  12.137  0.00  0.00    +0.000 C 
ENDBRANCH  17  19
ENDBRANCH   4  15
TORSDOF 3
ENDMDL
MODEL 9
REMARK VINA RESULT:      -6.4      3.844      5.012
REMARK  Name = 
REMARK  4 active torsions:
REMARK  status: ('A' for Active; 'I' for Inactive)
REMARK    1  A    between atoms: C_1  and  C_2
REMARK    2  A    between atoms: C_8  and  N_9
REMARK    3  A    between atoms: C_12  and  C_13
REMARK    4  A    between atoms: N_15  and  C_16
REMARK                            x       y       z     vdW  Elec       q    Type
REMARK                         _______ _______ _______ _____ _____    ______ ____
ROOT
ATOM      1  N   UNL     1       3.263   5.095  18.828  0.00  0.00    +0.000 N 
ATOM      2  C   UNL     1       2.682   4.305  17.771  0.00  0.00    +0.000 C 
ATOM      3  C   UNL     1       3.656   3.153  17.628  0.00  0.00    +0.000 C 
ATOM      4  C   UNL     1       5.010   3.776  17.983  0.00  0.00    +0.000 C 
ATOM      5  C   UNL     1       4.636   4.888  18.931  0.00  0.00    +0.000 C 
ATOM      6  O   UNL     1       5.442   5.471  19.643  0.00  0.00    +0.000 OA
ENDROOT
BRANCH   1  14
ATOM      7  C   UNL     1       3.225   7.744  17.445  0.00  0.00    +0.000 C 
ATOM      8  C   UNL     1       2.570   7.468  18.771  0.00  0.00    +0.000 A 
ATOM      9  C   UNL     1       1.878   8.512  19.412  0.00  0.00    +0.000 A 
ATOM     10  C   UNL     1       1.189   8.282  20.602  0.00  0.00    +0.000 A 
ATOM     11 BR   UNL     1       0.271   9.704  21.446  0.00  0.00    +0.000 Br
ATOM     12  C   UNL     1       1.163   7.014  21.170  0.00  0.00    +0.000 A 
ATOM     13  C   UNL     1       1.844   5.970  20.546  0.00  0.00    +0.000 A 
ATOM     14  C   UNL     1       2.570   6.193  19.368  0.00  0.00    +0.000 A 
ENDBRANCH   1  14
BRANCH   4  15
ATOM     15  C   UNL     1       5.772   4.306  16.789  0.00  0.00    +0.000 C 
ATOM     16  O   UNL     1       6.875   4.836  16.885  0.00  0.00    +0.000 OA
ATOM     17  N   UNL     1       5.087   4.169  15.595  0.00  0.00    +0.000 N 
ATOM     18  H   UNL     1       4.235   3.613  15.586  0.00  0.00    +0.000 HD
BRANCH  17  19
ATOM     19  C   UNL     1       5.614   4.622  14.350  0.00  0.00    +0.000 C 
ATOM     20  C   UNL     1       6.678   3.845  13.626  0.00  0.00    +0.000 C 
ATOM     21  C   UNL     1       5.282   3.892  13.078  0.00  0.00    +0.000 C 
ENDBRANCH  17  19
ENDBRANCH   4  15
TORSDOF 3
ENDMDL
