MODEL 1
REMARK VINA RESULT:      -7.1      0.000      0.000
REMARK  Name = 
REMARK  10 active torsions:
REMARK  status: ('A' for Active; 'I' for Inactive)
REMARK    1  A    between atoms: C_1  and  C_2
REMARK    2  A    between atoms: C_3  and  O_4
REMARK    3  A    between atoms: O_4  and  C_5
REMARK    4  A    between atoms: C_5  and  C_6
REMARK    5  A    between atoms: C_6  and  C_7
REMARK    6  A    between atoms: C_7  and  C_8
REMARK    7  A    between atoms: C_8  and  N_9
REMARK    8  A    between atoms: N_9  and  C_10
REMARK    9  A    between atoms: N_9  and  C_11
REMARK   10  A    between atoms: C_18  and  C_19
REMARK                            x       y       z     vdW  Elec       q    Type
REMARK                         _______ _______ _______ _____ _____    ______ ____
ROOT
ATOM      1  C   UNL     1       4.145   6.828  16.758  0.00  0.00    +0.000 C 
ATOM      2  C   UNL     1       3.710   5.559  17.443  0.00  0.00    +0.000 A 
ATOM      3  C   UNL     1       4.011   4.286  16.911  0.00  0.00    +0.000 A 
ATOM      4  C   UNL     1       3.653   3.125  17.611  0.00  0.00    +0.000 A 
ATOM      5  C   UNL     1       3.000   3.212  18.836  0.00  0.00    +0.000 A 
ATOM      6  C   UNL     1       2.666   4.465  19.348  0.00  0.00    +0.000 A 
ATOM      7  C   UNL     1       1.945   4.558  20.623  0.00  0.00    +0.000 A 
ATOM      8  O   UNL     1       1.705   3.582  21.322  0.00  0.00    +0.000 OA
ATOM      9  C   UNL     1       1.486   5.897  21.018  0.00  0.00    +0.000 A 
ATOM     10  C   UNL     1       1.833   6.939  20.252  0.00  0.00    +0.000 A 
ATOM     11  O   UNL     1       2.627   6.872  19.120  0.00  0.00    +0.000 OA
ATOM     12  C   UNL     1       2.997   5.627  18.655  0.00  0.00    +0.000 A 
ENDROOT
BRANCH  10  13
ATOM     13  C   UNL     1       1.354   8.284  20.568  0.00  0.00    +0.000 A 
ATOM     14  C   UNL     1       1.049   8.639  21.886  0.00  0.00    +0.000 A 
ATOM     15  C   UNL     1       0.635   9.939  22.184  0.00  0.00    +0.000 A 
ATOM     16  C   UNL     1       0.513  10.884  21.165  0.00  0.00    +0.000 A 
ATOM     17  C   UNL     1       0.787  10.529  19.846  0.00  0.00    +0.000 A 
ATOM     18  C   UNL     1       1.205   9.232  19.546  0.00  0.00    +0.000 A 
ENDBRANCH  10  13
BRANCH   3  19
ATOM     19  O   UNL     1       4.647   4.265  15.697  0.00  0.00    +0.000 OA
BRANCH  19  20
ATOM     20  C   UNL     1       5.916   3.613  15.634  0.00  0.00    +0.000 C 
BRANCH  20  21
ATOM     21  C   UNL     1       6.969   4.621  15.193  0.00  0.00    +0.000 C 
BRANCH  21  22
ATOM     22  C   UNL     1       7.450   5.468  16.374  0.00  0.00    +0.000 C 
BRANCH  22  23
ATOM     23  C   UNL     1       7.688   4.634  17.637  0.00  0.00    +0.000 C 
BRANCH  23  24
ATOM     24  N   UNL     1       7.745   5.422  18.879  0.00  0.00    +0.000 NA
ATOM     25  C   UNL     1       8.064   6.828  18.631  0.00  0.00    +0.000 C 
ATOM     26  C   UNL     1       6.473   5.315  19.595  0.00  0.00    +0.000 C 
ENDBRANCH  23  24
ENDBRANCH  22  23
ENDBRANCH  21  22
ENDBRANCH  20  21
ENDBRANCH  19  20
ENDBRANCH   3  19
TORSDOF 7
ENDMDL
MODEL 2
REMARK VINA RESULT:      -7.1      3.319      7.902
REMARK  Name = 
REMARK  10 active torsions:
REMARK  status: ('A' for Active; 'I' for Inactive)
REMARK    1  A    between atoms: C_1  and  C_2
REMARK    2  A    between atoms: C_3  and  O_4
REMARK    3  A    between atoms: O_4  and  C_5
REMARK    4  A    between atoms: C_5  and  C_6
REMARK    5  A    between atoms: C_6  and  C_7
REMARK    6  A    between atoms: C_7  and  C_8
REMARK    7  A    between atoms: C_8  and  N_9
REMARK    8  A    between atoms: N_9  and  C_10
REMARK    9  A    between atoms: N_9  and  C_11
REMARK   10  A    between atoms: C_18  and  C_19
REMARK                            x       y       z     vdW  Elec       q    Type
REMARK                         _______ _______ _______ _____ _____    ______ ____
ROOT
ATOM      1  C   UNL     1       1.844   9.560  17.690  0.00  0.00    +0.000 C 
ATOM      2  C   UNL     1       1.660   8.795  18.974  0.00  0.00    +0.000 A 
ATOM      3  C   UNL     1       0.972   9.347  20.077  0.00  0.00    +0.000 A 
ATOM      4  C   UNL     1       0.756   8.581  21.231  0.00  0.00    +0.000 A 
ATOM      5  C   UNL     1       1.214   7.270  21.304  0.00  0.00    +0.000 A 
ATOM      6  C   UNL     1       1.927   6.732  20.235  0.00  0.00    +0.000 A 
ATOM      7  C   UNL     1       2.443   5.360  20.324  0.00  0.00    +0.000 A 
ATOM      8  O   UNL     1       2.191   4.616  21.263  0.00  0.00    +0.000 OA
ATOM      9  C   UNL     1       3.320   4.919  19.230  0.00  0.00    +0.000 A 
ATOM     10  C   UNL     1       3.509   5.747  18.195  0.00  0.00    +0.000 A 
ATOM     11  O   UNL     1       2.917   6.988  18.043  0.00  0.00    +0.000 OA
ATOM     12  C   UNL     1       2.167   7.486  19.088  0.00  0.00    +0.000 A 
ENDROOT
BRANCH  10  13
ATOM     13  C   UNL     1       4.418   5.381  17.109  0.00  0.00    +0.000 A 
ATOM     14  C   UNL     1       4.741   4.040  16.874  0.00  0.00    +0.000 A 
ATOM     15  C   UNL     1       5.574   3.697  15.807  0.00  0.00    +0.000 A 
ATOM     16  C   UNL     1       6.095   4.691  14.979  0.00  0.00    +0.000 A 
ATOM     17  C   UNL     1       5.799   6.031  15.225  0.00  0.00    +0.000 A 
ATOM     18  C   UNL     1       4.964   6.377  16.288  0.00  0.00    +0.000 A 
ENDBRANCH  10  13
BRANCH   3  19
ATOM     19  O   UNL     1       0.553  10.646  19.948  0.00  0.00    +0.000 OA
BRANCH  19  20
ATOM     20  C   UNL     1      -0.714  10.984  20.514  0.00  0.00    +0.000 C 
BRANCH  20  21
ATOM     21  C   UNL     1      -1.488  11.837  19.518  0.00  0.00    +0.000 C 
BRANCH  21  22
ATOM     22  C   UNL     1      -1.411  11.246  18.108  0.00  0.00    +0.000 C 
BRANCH  22  23
ATOM     23  C   UNL     1      -2.373  10.071  17.910  0.00  0.00    +0.000 C 
BRANCH  23  24
ATOM     24  N   UNL     1      -3.384  10.287  16.862  0.00  0.00    +0.000 NA
ATOM     25  C   UNL     1      -4.242  11.438  17.146  0.00  0.00    +0.000 C 
ATOM     26  C   UNL     1      -2.726  10.461  15.566  0.00  0.00    +0.000 C 
ENDBRANCH  23  24
ENDBRANCH  22  23
ENDBRANCH  21  22
ENDBRANCH  20  21
ENDBRANCH  19  20
ENDBRANCH   3  19
TORSDOF 7
ENDMDL
MODEL 3
REMARK VINA RESULT:      -6.9      0.404      1.161
REMARK  Name = 
REMARK  10 active torsions:
REMARK  status: ('A' for Active; 'I' for Inactive)
REMARK    1  A    between atoms: C_1  and  C_2
REMARK    2  A    between atoms: C_3  and  O_4
REMARK    3  A    between atoms: O_4  and  C_5
REMARK    4  A    between atoms: C_5  and  C_6
REMARK    5  A    between atoms: C_6  and  C_7
REMARK    6  A    between atoms: C_7  and  C_8
REMARK    7  A    between atoms: C_8  and  N_9
REMARK    8  A    between atoms: N_9  and  C_10
REMARK    9  A    between atoms: N_9  and  C_11
REMARK   10  A    between atoms: C_18  and  C_19
REMARK                            x       y       z     vdW  Elec       q    Type
REMARK                         _______ _______ _______ _____ _____    ______ ____
ROOT
ATOM      1  C   UNL     1       4.178   6.776  16.762  0.00  0.00    +0.000 C 
ATOM      2  C   UNL     1       3.704   5.518  17.441  0.00  0.00    +0.000 A 
ATOM      3  C   UNL     1       3.978   4.238  16.910  0.00  0.00    +0.000 A 
ATOM      4  C   UNL     1       3.585   3.086  17.606  0.00  0.00    +0.000 A 
ATOM      5  C   UNL     1       2.922   3.188  18.824  0.00  0.00    +0.000 A 
ATOM      6  C   UNL     1       2.615   4.448  19.335  0.00  0.00    +0.000 A 
ATOM      7  C   UNL     1       1.884   4.558  20.603  0.00  0.00    +0.000 A 
ATOM      8  O   UNL     1       1.613   3.588  21.299  0.00  0.00    +0.000 OA
ATOM      9  C   UNL     1       1.455   5.908  20.995  0.00  0.00    +0.000 A 
ATOM     10  C   UNL     1       1.837   6.941  20.234  0.00  0.00    +0.000 A 
ATOM     11  O   UNL     1       2.639   6.856  19.110  0.00  0.00    +0.000 OA
ATOM     12  C   UNL     1       2.982   5.603  18.647  0.00  0.00    +0.000 A 
ENDROOT
BRANCH  10  13
ATOM     13  C   UNL     1       1.388   8.298  20.547  0.00  0.00    +0.000 A 
ATOM     14  C   UNL     1       1.247   9.252  19.534  0.00  0.00    +0.000 A 
ATOM     15  C   UNL     1       0.775  10.531  19.836  0.00  0.00    +0.000 A 
ATOM     16  C   UNL     1       0.456  10.865  21.152  0.00  0.00    +0.000 A 
ATOM     17  C   UNL     1       0.622   9.928  22.171  0.00  0.00    +0.000 A 
ATOM     18  C   UNL     1       1.088   8.648  21.871  0.00  0.00    +0.000 A 
ENDBRANCH  10  13
BRANCH   3  19
ATOM     19  O   UNL     1       4.625   4.202  15.702  0.00  0.00    +0.000 OA
BRANCH  19  20
ATOM     20  C   UNL     1       5.899   3.558  15.661  0.00  0.00    +0.000 C 
BRANCH  20  21
ATOM     21  C   UNL     1       6.901   4.486  14.988  0.00  0.00    +0.000 C 
BRANCH  21  22
ATOM     22  C   UNL     1       7.527   5.448  16.000  0.00  0.00    +0.000 C 
BRANCH  22  23
ATOM     23  C   UNL     1       7.470   4.913  17.434  0.00  0.00    +0.000 C 
BRANCH  23  24
ATOM     24  N   UNL     1       7.262   5.950  18.458  0.00  0.00    +0.000 NA
ATOM     25  C   UNL     1       7.958   5.644  19.709  0.00  0.00    +0.000 C 
ATOM     26  C   UNL     1       7.700   7.249  17.946  0.00  0.00    +0.000 C 
ENDBRANCH  23  24
ENDBRANCH  22  23
ENDBRANCH  21  22
ENDBRANCH  20  21
ENDBRANCH  19  20
ENDBRANCH   3  19
TORSDOF 7
ENDMDL
MODEL 4
REMARK VINA RESULT:      -6.9      3.699      8.269
REMARK  Name = 
REMARK  10 active torsions:
REMARK  status: ('A' for Active; 'I' for Inactive)
REMARK    1  A    between atoms: C_1  and  C_2
REMARK    2  A    between atoms: C_3  and  O_4
REMARK    3  A    between atoms: O_4  and  C_5
REMARK    4  A    between atoms: C_5  and  C_6
REMARK    5  A    between atoms: C_6  and  C_7
REMARK    6  A    between atoms: C_7  and  C_8
REMARK    7  A    between atoms: C_8  and  N_9
REMARK    8  A    between atoms: N_9  and  C_10
REMARK    9  A    between atoms: N_9  and  C_11
REMARK   10  A    between atoms: C_18  and  C_19
REMARK                            x       y       z     vdW  Elec       q    Type
REMARK                         _______ _______ _______ _____ _____    ______ ____
ROOT
ATOM      1  C   UNL     1       1.960   9.554  17.685  0.00  0.00    +0.000 C 
ATOM      2  C   UNL     1       1.745   8.776  18.957  0.00  0.00    +0.000 A 
ATOM      3  C   UNL     1       1.062   9.331  20.062  0.00  0.00    +0.000 A 
ATOM      4  C   UNL     1       0.817   8.554  21.203  0.00  0.00    +0.000 A 
ATOM      5  C   UNL     1       1.242   7.231  21.262  0.00  0.00    +0.000 A 
ATOM      6  C   UNL     1       1.950   6.690  20.191  0.00  0.00    +0.000 A 
ATOM      7  C   UNL     1       2.431   5.305  20.265  0.00  0.00    +0.000 A 
ATOM      8  O   UNL     1       2.152   4.555  21.191  0.00  0.00    +0.000 OA
ATOM      9  C   UNL     1       3.306   4.857  19.172  0.00  0.00    +0.000 A 
ATOM     10  C   UNL     1       3.524   5.694  18.150  0.00  0.00    +0.000 A 
ATOM     11  O   UNL     1       2.964   6.952  18.011  0.00  0.00    +0.000 OA
ATOM     12  C   UNL     1       2.219   7.454  19.057  0.00  0.00    +0.000 A 
ENDROOT
BRANCH  10  13
ATOM     13  C   UNL     1       4.433   5.319  17.066  0.00  0.00    +0.000 A 
ATOM     14  C   UNL     1       4.988   6.297  16.235  0.00  0.00    +0.000 A 
ATOM     15  C   UNL     1       5.889   5.935  15.232  0.00  0.00    +0.000 A 
ATOM     16  C   UNL     1       6.229   4.594  15.048  0.00  0.00    +0.000 A 
ATOM     17  C   UNL     1       5.657   3.612  15.856  0.00  0.00    +0.000 A 
ATOM     18  C   UNL     1       4.759   3.972  16.862  0.00  0.00    +0.000 A 
ENDBRANCH  10  13
BRANCH   3  19
ATOM     19  O   UNL     1       0.677  10.641  19.947  0.00  0.00    +0.000 OA
BRANCH  19  20
ATOM     20  C   UNL     1      -0.720  10.923  20.038  0.00  0.00    +0.000 C 
BRANCH  20  21
ATOM     21  C   UNL     1      -1.417  10.369  18.802  0.00  0.00    +0.000 C 
BRANCH  21  22
ATOM     22  C   UNL     1      -2.146  11.475  18.036  0.00  0.00    +0.000 C 
BRANCH  22  23
ATOM     23  C   UNL     1      -3.595  11.654  18.500  0.00  0.00    +0.000 C 
BRANCH  23  24
ATOM     24  N   UNL     1      -4.594  11.031  17.616  0.00  0.00    +0.000 NA
ATOM     25  C   UNL     1      -5.914  11.647  17.747  0.00  0.00    +0.000 C 
ATOM     26  C   UNL     1      -4.142  11.104  16.226  0.00  0.00    +0.000 C 
ENDBRANCH  23  24
ENDBRANCH  22  23
ENDBRANCH  21  22
ENDBRANCH  20  21
ENDBRANCH  19  20
ENDBRANCH   3  19
TORSDOF 7
ENDMDL
MODEL 5
REMARK VINA RESULT:      -6.9      3.712      8.249
REMARK  Name = 
REMARK  10 active torsions:
REMARK  status: ('A' for Active; 'I' for Inactive)
REMARK    1  A    between atoms: C_1  and  C_2
REMARK    2  A    between atoms: C_3  and  O_4
REMARK    3  A    between atoms: O_4  and  C_5
REMARK    4  A    between atoms: C_5  and  C_6
REMARK    5  A    between atoms: C_6  and  C_7
REMARK    6  A    between atoms: C_7  and  C_8
REMARK    7  A    between atoms: C_8  and  N_9
REMARK    8  A    between atoms: N_9  and  C_10
REMARK    9  A    between atoms: N_9  and  C_11
REMARK   10  A    between atoms: C_18  and  C_19
REMARK                            x       y       z     vdW  Elec       q    Type
REMARK                         _______ _______ _______ _____ _____    ______ ____
ROOT
ATOM      1  C   UNL     1       1.995   9.565  17.692  0.00  0.00    +0.000 C 
ATOM      2  C   UNL     1       1.764   8.780  18.957  0.00  0.00    +0.000 A 
ATOM      3  C   UNL     1       1.072   9.330  20.059  0.00  0.00    +0.000 A 
ATOM      4  C   UNL     1       0.813   8.547  21.192  0.00  0.00    +0.000 A 
ATOM      5  C   UNL     1       1.231   7.222  21.246  0.00  0.00    +0.000 A 
ATOM      6  C   UNL     1       1.948   6.685  20.179  0.00  0.00    +0.000 A 
ATOM      7  C   UNL     1       2.421   5.297  20.249  0.00  0.00    +0.000 A 
ATOM      8  O   UNL     1       2.130   4.542  21.167  0.00  0.00    +0.000 OA
ATOM      9  C   UNL     1       3.305   4.852  19.162  0.00  0.00    +0.000 A 
ATOM     10  C   UNL     1       3.537   5.695  18.148  0.00  0.00    +0.000 A 
ATOM     11  O   UNL     1       2.985   6.956  18.011  0.00  0.00    +0.000 OA
ATOM     12  C   UNL     1       2.231   7.455  19.053  0.00  0.00    +0.000 A 
ENDROOT
BRANCH  10  13
ATOM     13  C   UNL     1       4.455   5.323  17.071  0.00  0.00    +0.000 A 
ATOM     14  C   UNL     1       4.778   3.982  16.842  0.00  0.00    +0.000 A 
ATOM     15  C   UNL     1       5.620   3.634  15.784  0.00  0.00    +0.000 A 
ATOM     16  C   UNL     1       6.150   4.625  14.958  0.00  0.00    +0.000 A 
ATOM     17  C   UNL     1       5.855   5.966  15.198  0.00  0.00    +0.000 A 
ATOM     18  C   UNL     1       5.011   6.316  16.252  0.00  0.00    +0.000 A 
ENDBRANCH  10  13
BRANCH   3  19
ATOM     19  O   UNL     1       0.694  10.643  19.949  0.00  0.00    +0.000 OA
BRANCH  19  20
ATOM     20  C   UNL     1      -0.706  10.920  19.919  0.00  0.00    +0.000 C 
BRANCH  20  21
ATOM     21  C   UNL     1      -1.111  11.268  18.493  0.00  0.00    +0.000 C 
BRANCH  21  22
ATOM     22  C   UNL     1      -2.354  10.484  18.065  0.00  0.00    +0.000 C 
BRANCH  22  23
ATOM     23  C   UNL     1      -3.376  11.358  17.330  0.00  0.00    +0.000 C 
BRANCH  23  24
ATOM     24  N   UNL     1      -4.666  11.495  18.027  0.00  0.00    +0.000 NA
ATOM     25  C   UNL     1      -4.537  12.202  19.301  0.00  0.00    +0.000 C 
ATOM     26  C   UNL     1      -5.625  12.186  17.164  0.00  0.00    +0.000 C 
ENDBRANCH  23  24
ENDBRANCH  22  23
ENDBRANCH  21  22
ENDBRANCH  20  21
ENDBRANCH  19  20
ENDBRANCH   3  19
TORSDOF 7
ENDMDL
MODEL 6
REMARK VINA RESULT:      -6.9      2.962      7.696
REMARK  Name = 
REMARK  10 active torsions:
REMARK  status: ('A' for Active; 'I' for Inactive)
REMARK    1  A    between atoms: C_1  and  C_2
REMARK    2  A    between atoms: C_3  and  O_4
REMARK    3  A    between atoms: O_4  and  C_5
REMARK    4  A    between atoms: C_5  and  C_6
REMARK    5  A    between atoms: C_6  and  C_7
REMARK    6  A    between atoms: C_7  and  C_8
REMARK    7  A    between atoms: C_8  and  N_9
REMARK    8  A    between atoms: N_9  and  C_10
REMARK    9  A    between atoms: N_9  and  C_11
REMARK   10  A    between atoms: C_18  and  C_19
REMARK                            x       y       z     vdW  Elec       q    Type
REMARK                         _______ _______ _______ _____ _____    ______ ____
ROOT
ATOM      1  C   UNL     1       2.875   8.318  17.885  0.00  0.00    +0.000 C 
ATOM      2  C   UNL     1       2.615   7.138  18.786  0.00  0.00    +0.000 A 
ATOM      3  C   UNL     1       1.913   7.273  20.004  0.00  0.00    +0.000 A 
ATOM      4  C   UNL     1       1.627   6.142  20.782  0.00  0.00    +0.000 A 
ATOM      5  C   UNL     1       2.027   4.877  20.364  0.00  0.00    +0.000 A 
ATOM      6  C   UNL     1       2.753   4.743  19.183  0.00  0.00    +0.000 A 
ATOM      7  C   UNL     1       3.208   3.413  18.759  0.00  0.00    +0.000 A 
ATOM      8  O   UNL     1       2.893   2.386  19.345  0.00  0.00    +0.000 OA
ATOM      9  C   UNL     1       4.103   3.369  17.593  0.00  0.00    +0.000 A 
ATOM     10  C   UNL     1       4.361   4.513  16.948  0.00  0.00    +0.000 A 
ATOM     11  O   UNL     1       3.827   5.750  17.264  0.00  0.00    +0.000 OA
ATOM     12  C   UNL     1       3.063   5.858  18.408  0.00  0.00    +0.000 A 
ENDROOT
BRANCH  10  13
ATOM     13  C   UNL     1       5.290   4.534  15.819  0.00  0.00    +0.000 A 
ATOM     14  C   UNL     1       6.515   5.203  15.917  0.00  0.00    +0.000 A 
ATOM     15  C   UNL     1       7.415   5.179  14.850  0.00  0.00    +0.000 A 
ATOM     16  C   UNL     1       7.090   4.498  13.677  0.00  0.00    +0.000 A 
ATOM     17  C   UNL     1       5.859   3.853  13.562  0.00  0.00    +0.000 A 
ATOM     18  C   UNL     1       4.960   3.871  14.628  0.00  0.00    +0.000 A 
ENDBRANCH  10  13
BRANCH   3  19
ATOM     19  O   UNL     1       1.554   8.545  20.365  0.00  0.00    +0.000 OA
BRANCH  19  20
ATOM     20  C   UNL     1       0.184   8.767  20.704  0.00  0.00    +0.000 C 
BRANCH  20  21
ATOM     21  C   UNL     1      -0.263  10.095  20.108  0.00  0.00    +0.000 C 
BRANCH  21  22
ATOM     22  C   UNL     1      -0.244  10.048  18.578  0.00  0.00    +0.000 C 
BRANCH  22  23
ATOM     23  C   UNL     1      -1.393  10.845  17.951  0.00  0.00    +0.000 C 
BRANCH  23  24
ATOM     24  N   UNL     1      -2.263  10.055  17.065  0.00  0.00    +0.000 NA
ATOM     25  C   UNL     1      -3.464   9.574  17.749  0.00  0.00    +0.000 C 
ATOM     26  C   UNL     1      -2.637  10.853  15.896  0.00  0.00    +0.000 C 
ENDBRANCH  23  24
ENDBRANCH  22  23
ENDBRANCH  21  22
ENDBRANCH  20  21
ENDBRANCH  19  20
ENDBRANCH   3  19
TORSDOF 7
ENDMDL
MODEL 7
REMARK VINA RESULT:      -6.8      2.610      7.606
REMARK  Name = 
REMARK  10 active torsions:
REMARK  status: ('A' for Active; 'I' for Inactive)
REMARK    1  A    between atoms: C_1  and  C_2
REMARK    2  A    between atoms: C_3  and  O_4
REMARK    3  A    between atoms: O_4  and  C_5
REMARK    4  A    between atoms: C_5  and  C_6
REMARK    5  A    between atoms: C_6  and  C_7
REMARK    6  A    between atoms: C_7  and  C_8
REMARK    7  A    between atoms: C_8  and  N_9
REMARK    8  A    between atoms: N_9  and  C_10
REMARK    9  A    between atoms: N_9  and  C_11
REMARK   10  A    between atoms: C_18  and  C_19
REMARK                            x       y       z     vdW  Elec       q    Type
REMARK                         _______ _______ _______ _____ _____    ______ ____
ROOT
ATOM      1  C   UNL     1       2.899   8.114  17.898  0.00  0.00    +0.000 C 
ATOM      2  C   UNL     1       2.667   6.888  18.742  0.00  0.00    +0.000 A 
ATOM      3  C   UNL     1       1.969   6.949  19.969  0.00  0.00    +0.000 A 
ATOM      4  C   UNL     1       1.709   5.777  20.692  0.00  0.00    +0.000 A 
ATOM      5  C   UNL     1       2.131   4.542  20.213  0.00  0.00    +0.000 A 
ATOM      6  C   UNL     1       2.853   4.479  19.023  0.00  0.00    +0.000 A 
ATOM      7  C   UNL     1       3.332   3.180  18.533  0.00  0.00    +0.000 A 
ATOM      8  O   UNL     1       3.040   2.120  19.071  0.00  0.00    +0.000 OA
ATOM      9  C   UNL     1       4.221   3.210  17.363  0.00  0.00    +0.000 A 
ATOM     10  C   UNL     1       4.453   4.388  16.772  0.00  0.00    +0.000 A 
ATOM     11  O   UNL     1       3.897   5.598  17.150  0.00  0.00    +0.000 OA
ATOM     12  C   UNL     1       3.137   5.636  18.301  0.00  0.00    +0.000 A 
ENDROOT
BRANCH  10  13
ATOM     13  C   UNL     1       5.376   4.481  15.641  0.00  0.00    +0.000 A 
ATOM     14  C   UNL     1       6.536   5.257  15.731  0.00  0.00    +0.000 A 
ATOM     15  C   UNL     1       7.433   5.305  14.662  0.00  0.00    +0.000 A 
ATOM     16  C   UNL     1       7.168   4.587  13.496  0.00  0.00    +0.000 A 
ATOM     17  C   UNL     1       6.000   3.834  13.389  0.00  0.00    +0.000 A 
ATOM     18  C   UNL     1       5.104   3.782  14.457  0.00  0.00    +0.000 A 
ENDBRANCH  10  13
BRANCH   3  19
ATOM     19  O   UNL     1       1.587   8.196  20.392  0.00  0.00    +0.000 OA
BRANCH  19  20
ATOM     20  C   UNL     1       0.530   8.265  21.350  0.00  0.00    +0.000 C 
BRANCH  20  21
ATOM     21  C   UNL     1       0.863   9.340  22.375  0.00  0.00    +0.000 C 
BRANCH  21  22
ATOM     22  C   UNL     1      -0.297  10.326  22.538  0.00  0.00    +0.000 C 
BRANCH  22  23
ATOM     23  C   UNL     1      -0.343  11.369  21.416  0.00  0.00    +0.000 C 
BRANCH  23  24
ATOM     24  N   UNL     1       0.714  12.391  21.497  0.00  0.00    +0.000 NA
ATOM     25  C   UNL     1       1.468  12.509  20.249  0.00  0.00    +0.000 C 
ATOM     26  C   UNL     1       0.128  13.684  21.854  0.00  0.00    +0.000 C 
ENDBRANCH  23  24
ENDBRANCH  22  23
ENDBRANCH  21  22
ENDBRANCH  20  21
ENDBRANCH  19  20
ENDBRANCH   3  19
TORSDOF 7
ENDMDL
MODEL 8
REMARK VINA RESULT:      -6.8      2.515      7.414
REMARK  Name = 
REMARK  10 active torsions:
REMARK  status: ('A' for Active; 'I' for Inactive)
REMARK    1  A    between atoms: C_1  and  C_2
REMARK    2  A    between atoms: C_3  and  O_4
REMARK    3  A    between atoms: O_4  and  C_5
REMARK    4  A    between atoms: C_5  and  C_6
REMARK    5  A    between atoms: C_6  and  C_7
REMARK    6  A    between atoms: C_7  and  C_8
REMARK    7  A    between atoms: C_8  and  N_9
REMARK    8  A    between atoms: N_9  and  C_10
REMARK    9  A    between atoms: N_9  and  C_11
REMARK   10  A    between atoms: C_18  and  C_19
REMARK                            x       y       z     vdW  Elec       q    Type
REMARK                         _______ _______ _______ _____ _____    ______ ____
ROOT
ATOM      1  C   UNL     1       2.854   8.162  17.826  0.00  0.00    +0.000 C 
ATOM      2  C   UNL     1       2.625   6.974  18.724  0.00  0.00    +0.000 A 
ATOM      3  C   UNL     1       1.920   7.088  19.942  0.00  0.00    +0.000 A 
ATOM      4  C   UNL     1       1.663   5.948  20.718  0.00  0.00    +0.000 A 
ATOM      5  C   UNL     1       2.098   4.696  20.299  0.00  0.00    +0.000 A 
ATOM      6  C   UNL     1       2.827   4.582  19.117  0.00  0.00    +0.000 A 
ATOM      7  C   UNL     1       3.318   3.266  18.691  0.00  0.00    +0.000 A 
ATOM      8  O   UNL     1       3.031   2.230  19.276  0.00  0.00    +0.000 OA
ATOM      9  C   UNL     1       4.214   3.248  17.526  0.00  0.00    +0.000 A 
ATOM     10  C   UNL     1       4.441   4.400  16.883  0.00  0.00    +0.000 A 
ATOM     11  O   UNL     1       3.874   5.621  17.200  0.00  0.00    +0.000 OA
ATOM     12  C   UNL     1       3.107   5.707  18.344  0.00  0.00    +0.000 A 
ENDROOT
BRANCH  10  13
ATOM     13  C   UNL     1       5.370   4.447  15.753  0.00  0.00    +0.000 A 
ATOM     14  C   UNL     1       5.056   3.813  14.547  0.00  0.00    +0.000 A 
ATOM     15  C   UNL     1       5.928   3.902  13.460  0.00  0.00    +0.000 A 
ATOM     16  C   UNL     1       7.122   4.614  13.579  0.00  0.00    +0.000 A 
ATOM     17  C   UNL     1       7.454   5.224  14.787  0.00  0.00    +0.000 A 
ATOM     18  C   UNL     1       6.582   5.141  15.873  0.00  0.00    +0.000 A 
ENDBRANCH  10  13
BRANCH   3  19
ATOM     19  O   UNL     1       1.526   8.349  20.306  0.00  0.00    +0.000 OA
BRANCH  19  20
ATOM     20  C   UNL     1       1.184   8.559  21.676  0.00  0.00    +0.000 C 
BRANCH  20  21
ATOM     21  C   UNL     1       0.147   9.671  21.762  0.00  0.00    +0.000 C 
BRANCH  21  22
ATOM     22  C   UNL     1      -0.248  10.166  20.369  0.00  0.00    +0.000 C 
BRANCH  22  23
ATOM     23  C   UNL     1      -0.415  11.688  20.312  0.00  0.00    +0.000 C 
BRANCH  23  24
ATOM     24  N   UNL     1       0.695  12.394  19.651  0.00  0.00    +0.000 NA
ATOM     25  C   UNL     1       1.645  12.957  20.611  0.00  0.00    +0.000 C 
ATOM     26  C   UNL     1       1.386  11.486  18.735  0.00  0.00    +0.000 C 
ENDBRANCH  23  24
ENDBRANCH  22  23
ENDBRANCH  21  22
ENDBRANCH  20  21
ENDBRANCH  19  20
ENDBRANCH   3  19
TORSDOF 7
ENDMDL
MODEL 9
REMARK VINA RESULT:      -6.7      2.814      7.773
REMARK  Name = 
REMARK  10 active torsions:
REMARK  status: ('A' for Active; 'I' for Inactive)
REMARK    1  A    between atoms: C_1  and  C_2
REMARK    2  A    between atoms: C_3  and  O_4
REMARK    3  A    between atoms: O_4  and  C_5
REMARK    4  A    between atoms: C_5  and  C_6
REMARK    5  A    between atoms: C_6  and  C_7
REMARK    6  A    between atoms: C_7  and  C_8
REMARK    7  A    between atoms: C_8  and  N_9
REMARK    8  A    between atoms: N_9  and  C_10
REMARK    9  A    between atoms: N_9  and  C_11
REMARK   10  A    between atoms: C_18  and  C_19
REMARK                            x       y       z     vdW  Elec       q    Type
REMARK                         _______ _______ _______ _____ _____    ______ ____
ROOT
ATOM      1  C   UNL     1       2.867   8.213  17.796  0.00  0.00    +0.000 C 
ATOM      2  C   UNL     1       2.637   7.037  18.708  0.00  0.00    +0.000 A 
ATOM      3  C   UNL     1       1.936   7.167  19.928  0.00  0.00    +0.000 A 
ATOM      4  C   UNL     1       1.679   6.038  20.718  0.00  0.00    +0.000 A 
ATOM      5  C   UNL     1       2.107   4.779  20.312  0.00  0.00    +0.000 A 
ATOM      6  C   UNL     1       2.833   4.649  19.129  0.00  0.00    +0.000 A 
ATOM      7  C   UNL     1       3.317   3.326  18.717  0.00  0.00    +0.000 A 
ATOM      8  O   UNL     1       3.028   2.298  19.315  0.00  0.00    +0.000 OA
ATOM      9  C   UNL     1       4.209   3.291  17.549  0.00  0.00    +0.000 A 
ATOM     10  C   UNL     1       4.438   4.434  16.892  0.00  0.00    +0.000 A 
ATOM     11  O   UNL     1       3.876   5.661  17.197  0.00  0.00    +0.000 OA
ATOM     12  C   UNL     1       3.114   5.763  18.342  0.00  0.00    +0.000 A 
ENDROOT
BRANCH  10  13
ATOM     13  C   UNL     1       5.363   4.465  15.759  0.00  0.00    +0.000 A 
ATOM     14  C   UNL     1       5.026   3.851  14.548  0.00  0.00    +0.000 A 
ATOM     15  C   UNL     1       5.896   3.924  13.459  0.00  0.00    +0.000 A 
ATOM     16  C   UNL     1       7.110   4.601  13.578  0.00  0.00    +0.000 A 
ATOM     17  C   UNL     1       7.464   5.191  14.790  0.00  0.00    +0.000 A 
ATOM     18  C   UNL     1       6.595   5.123  15.879  0.00  0.00    +0.000 A 
ENDBRANCH  10  13
BRANCH   3  19
ATOM     19  O   UNL     1       1.548   8.434  20.278  0.00  0.00    +0.000 OA
BRANCH  19  20
ATOM     20  C   UNL     1       0.583   8.558  21.323  0.00  0.00    +0.000 C 
BRANCH  20  21
ATOM     21  C   UNL     1      -0.130   9.896  21.181  0.00  0.00    +0.000 C 
BRANCH  21  22
ATOM     22  C   UNL     1      -0.246  10.306  19.711  0.00  0.00    +0.000 C 
BRANCH  22  23
ATOM     23  C   UNL     1      -0.451  11.814  19.536  0.00  0.00    +0.000 C 
BRANCH  23  24
ATOM     24  N   UNL     1      -1.687  12.178  18.824  0.00  0.00    +0.000 NA
ATOM     25  C   UNL     1      -2.083  11.166  17.844  0.00  0.00    +0.000 C 
ATOM     26  C   UNL     1      -2.769  12.394  19.786  0.00  0.00    +0.000 C 
ENDBRANCH  23  24
ENDBRANCH  22  23
ENDBRANCH  21  22
ENDBRANCH  20  21
ENDBRANCH  19  20
ENDBRANCH   3  19
TORSDOF 7
ENDMDL
