MODEL 1
REMARK VINA RESULT:      -8.4      0.000      0.000
REMARK  Name = 
REMARK  6 active torsions:
REMARK  status: ('A' for Active; 'I' for Inactive)
REMARK    1  A    between atoms: C_2  and  C_17
REMARK    2  A    between atoms: N_3  and  C_4
REMARK    3  A    between atoms: C_4  and  C_5
REMARK    4  A    between atoms: C_4  and  C_11
REMARK    5  A    between atoms: C_11  and  C_12
REMARK    6  A    between atoms: C_12  and  O_13
REMARK                            x       y       z     vdW  Elec       q    Type
REMARK                         _______ _______ _______ _____ _____    ______ ____
ROOT
ATOM      1  C   UNL     1       3.499   4.927  19.300  0.00  0.00    +0.000 C 
ENDROOT
BRANCH   1   2
ATOM      2  C   UNL     1       2.544   6.136  18.937  0.00  0.00    +0.000 C 
ATOM      3  C   UNL     1       2.993   7.084  17.796  0.00  0.00    +0.000 C 
ATOM      4  C   UNL     1       2.216   8.412  17.738  0.00  0.00    +0.000 C 
ATOM      5  O   UNL     1       2.153   9.036  19.016  0.00  0.00    +0.000 OA
ATOM      6  C   UNL     1       1.442   8.222  19.941  0.00  0.00    +0.000 C 
ATOM      7  C   UNL     1       2.236   6.953  20.221  0.00  0.00    +0.000 C 
ENDBRANCH   1   2
BRANCH   1  10
ATOM      8  O   UNL     1       6.269   5.527  18.922  0.00  0.00    +0.000 OA
ATOM      9  C   UNL     1       5.697   4.867  18.066  0.00  0.00    +0.000 C 
ATOM     10  N   UNL     1       4.348   4.537  18.154  0.00  0.00    +0.000 N 
ATOM     11  H   UNL     1       3.911   4.102  17.357  0.00  0.00    +0.000 HD
BRANCH   9  12
ATOM     12  C   UNL     1       6.382   4.340  16.809  0.00  0.00    +0.000 C 
ATOM     13  C   UNL     1       5.403   3.706  15.794  0.00  0.00    +0.000 C 
ATOM     14  C   UNL     1       6.084   3.982  14.486  0.00  0.00    +0.000 A 
ATOM     15  C   UNL     1       5.817   3.422  13.245  0.00  0.00    +0.000 A 
ATOM     16  C   UNL     1       6.549   3.868  12.140  0.00  0.00    +0.000 A 
ATOM     17  C   UNL     1       7.523   4.867  12.286  0.00  0.00    +0.000 A 
ATOM     18  C   UNL     1       7.775   5.433  13.537  0.00  0.00    +0.000 A 
ATOM     19  C   UNL     1       7.052   4.978  14.629  0.00  0.00    +0.000 A 
ATOM     20  C   UNL     1       7.115   5.463  16.045  0.00  0.00    +0.000 C 
ENDBRANCH   9  12
ENDBRANCH   1  10
BRANCH   1  21
ATOM     21  C   UNL     1       2.853   3.633  19.917  0.00  0.00    +0.000 C 
ATOM     22  C   UNL     1       2.520   3.541  21.453  0.00  0.00    +0.000 C 
ATOM     23  C   UNL     1       1.184   2.847  21.091  0.00  0.00    +0.000 C 
ATOM     24  C   UNL     1       1.283   3.514  19.709  0.00  0.00    +0.000 C 
BRANCH  21  25
ATOM     25  C   UNL     1       3.533   2.324  19.434  0.00  0.00    +0.000 C 
BRANCH  25  26
ATOM     26  O   UNL     1       4.850   2.224  19.961  0.00  0.00    +0.000 OA
ATOM     27  H   UNL     1       5.301   3.066  19.803  0.00  0.00    +0.000 HD
ENDBRANCH  25  26
ENDBRANCH  21  25
ENDBRANCH   1  21
TORSDOF 6
ENDMDL
MODEL 2
REMARK VINA RESULT:      -8.3      2.174      7.314
REMARK  Name = 
REMARK  6 active torsions:
REMARK  status: ('A' for Active; 'I' for Inactive)
REMARK    1  A    between atoms: C_2  and  C_17
REMARK    2  A    between atoms: N_3  and  C_4
REMARK    3  A    between atoms: C_4  and  C_5
REMARK    4  A    between atoms: C_4  and  C_11
REMARK    5  A    between atoms: C_11  and  C_12
REMARK    6  A    between atoms: C_12  and  O_13
REMARK                            x       y       z     vdW  Elec       q    Type
REMARK                         _______ _______ _______ _____ _____    ______ ____
ROOT
ATOM      1  C   UNL     1       2.920   4.672  18.807  0.00  0.00    +0.000 C 
ENDROOT
BRANCH   1   2
ATOM      2  C   UNL     1       4.460   4.513  18.480  0.00  0.00    +0.000 C 
ATOM      3  C   UNL     1       5.454   5.409  19.262  0.00  0.00    +0.000 C 
ATOM      4  C   UNL     1       6.867   5.461  18.655  0.00  0.00    +0.000 C 
ATOM      5  O   UNL     1       6.826   5.729  17.257  0.00  0.00    +0.000 OA
ATOM      6  C   UNL     1       6.154   4.683  16.563  0.00  0.00    +0.000 C 
ATOM      7  C   UNL     1       4.682   4.675  16.952  0.00  0.00    +0.000 C 
ENDBRANCH   1   2
BRANCH   1  10
ATOM      8  O   UNL     1       2.112   7.204  17.753  0.00  0.00    +0.000 OA
ATOM      9  C   UNL     1       2.245   7.096  18.963  0.00  0.00    +0.000 C 
ATOM     10  N   UNL     1       2.648   5.910  19.570  0.00  0.00    +0.000 N 
ATOM     11  H   UNL     1       2.858   5.925  20.554  0.00  0.00    +0.000 HD
BRANCH   9  12
ATOM     12  C   UNL     1       1.996   8.238  19.944  0.00  0.00    +0.000 C 
ATOM     13  C   UNL     1       1.140   9.382  19.352  0.00  0.00    +0.000 C 
ATOM     14  C   UNL     1       0.433   9.907  20.567  0.00  0.00    +0.000 A 
ATOM     15  C   UNL     1      -0.263  11.099  20.707  0.00  0.00    +0.000 A 
ATOM     16  C   UNL     1      -0.892  11.365  21.926  0.00  0.00    +0.000 A 
ATOM     17  C   UNL     1      -0.830  10.439  22.978  0.00  0.00    +0.000 A 
ATOM     18  C   UNL     1      -0.139   9.236  22.823  0.00  0.00    +0.000 A 
ATOM     19  C   UNL     1       0.493   8.985  21.614  0.00  0.00    +0.000 A 
ATOM     20  C   UNL     1       1.245   7.757  21.204  0.00  0.00    +0.000 C 
ENDBRANCH   9  12
ENDBRANCH   1  10
BRANCH   1  21
ATOM     21  C   UNL     1       2.184   3.472  19.509  0.00  0.00    +0.000 C 
ATOM     22  C   UNL     1       2.793   2.775  20.782  0.00  0.00    +0.000 C 
ATOM     23  C   UNL     1       1.373   2.724  21.398  0.00  0.00    +0.000 C 
ATOM     24  C   UNL     1       1.000   3.899  20.479  0.00  0.00    +0.000 C 
BRANCH  21  25
ATOM     25  C   UNL     1       1.665   2.407  18.508  0.00  0.00    +0.000 C 
BRANCH  25  26
ATOM     26  O   UNL     1       2.678   1.447  18.233  0.00  0.00    +0.000 OA
ATOM     27  H   UNL     1       2.247   0.599  18.055  0.00  0.00    +0.000 HD
ENDBRANCH  25  26
ENDBRANCH  21  25
ENDBRANCH   1  21
TORSDOF 6
ENDMDL
MODEL 3
REMARK VINA RESULT:      -7.9      2.500      7.666
REMARK  Name = 
REMARK  6 active torsions:
REMARK  status: ('A' for Active; 'I' for Inactive)
REMARK    1  A    between atoms: C_2  and  C_17
REMARK    2  A    between atoms: N_3  and  C_4
REMARK    3  A    between atoms: C_4  and  C_5
REMARK    4  A    between atoms: C_4  and  C_11
REMARK    5  A    between atoms: C_11  and  C_12
REMARK    6  A    between atoms: C_12  and  O_13
REMARK                            x       y       z     vdW  Elec       q    Type
REMARK                         _______ _______ _______ _____ _____    ______ ____
ROOT
ATOM      1  C   UNL     1       2.780   5.500  18.566  0.00  0.00    +0.000 C 
ENDROOT
BRANCH   1   2
ATOM      2  C   UNL     1       4.280   5.548  18.066  0.00  0.00    +0.000 C 
ATOM      3  C   UNL     1       4.742   4.446  17.080  0.00  0.00    +0.000 C 
ATOM      4  C   UNL     1       6.270   4.341  16.921  0.00  0.00    +0.000 C 
ATOM      5  O   UNL     1       6.925   4.296  18.184  0.00  0.00    +0.000 OA
ATOM      6  C   UNL     1       6.701   5.499  18.911  0.00  0.00    +0.000 C 
ATOM      7  C   UNL     1       5.231   5.599  19.294  0.00  0.00    +0.000 C 
ENDBRANCH   1   2
BRANCH   1  10
ATOM      8  O   UNL     1       1.957   8.096  17.694  0.00  0.00    +0.000 OA
ATOM      9  C   UNL     1       2.043   7.889  18.896  0.00  0.00    +0.000 C 
ATOM     10  N   UNL     1       2.449   6.664  19.417  0.00  0.00    +0.000 N 
ATOM     11  H   UNL     1       2.620   6.599  20.408  0.00  0.00    +0.000 HD
BRANCH   9  12
ATOM     12  C   UNL     1       1.730   8.939  19.958  0.00  0.00    +0.000 C 
ATOM     13  C   UNL     1       0.758  10.038  19.469  0.00  0.00    +0.000 C 
ATOM     14  C   UNL     1       0.050  10.418  20.736  0.00  0.00    +0.000 A 
ATOM     15  C   UNL     1      -0.742  11.532  20.975  0.00  0.00    +0.000 A 
ATOM     16  C   UNL     1      -1.350  11.661  22.227  0.00  0.00    +0.000 A 
ATOM     17  C   UNL     1      -1.172  10.679  23.212  0.00  0.00    +0.000 A 
ATOM     18  C   UNL     1      -0.384   9.555  22.957  0.00  0.00    +0.000 A 
ATOM     19  C   UNL     1       0.225   9.439  21.717  0.00  0.00    +0.000 A 
ATOM     20  C   UNL     1       1.068   8.312  21.204  0.00  0.00    +0.000 C 
ENDBRANCH   9  12
ENDBRANCH   1  10
BRANCH   1  21
ATOM     21  C   UNL     1       2.277   4.191  19.278  0.00  0.00    +0.000 C 
ATOM     22  C   UNL     1       3.263   3.285  20.108  0.00  0.00    +0.000 C 
ATOM     23  C   UNL     1       2.159   3.118  21.180  0.00  0.00    +0.000 C 
ATOM     24  C   UNL     1       1.549   4.434  20.669  0.00  0.00    +0.000 C 
BRANCH  21  25
ATOM     25  C   UNL     1       1.372   3.314  18.374  0.00  0.00    +0.000 C 
BRANCH  25  26
ATOM     26  O   UNL     1       1.012   4.023  17.194  0.00  0.00    +0.000 OA
ATOM     27  H   UNL     1       0.558   4.836  17.459  0.00  0.00    +0.000 HD
ENDBRANCH  25  26
ENDBRANCH  21  25
ENDBRANCH   1  21
TORSDOF 6
ENDMDL
MODEL 4
REMARK VINA RESULT:      -7.9      1.038      1.537
REMARK  Name = 
REMARK  6 active torsions:
REMARK  status: ('A' for Active; 'I' for Inactive)
REMARK    1  A    between atoms: C_2  and  C_17
REMARK    2  A    between atoms: N_3  and  C_4
REMARK    3  A    between atoms: C_4  and  C_5
REMARK    4  A    between atoms: C_4  and  C_11
REMARK    5  A    between atoms: C_11  and  C_12
REMARK    6  A    between atoms: C_12  and  O_13
REMARK                            x       y       z     vdW  Elec       q    Type
REMARK                         _______ _______ _______ _____ _____    ______ ____
ROOT
ATOM      1  C   UNL     1       3.510   5.090  19.268  0.00  0.00    +0.000 C 
ENDROOT
BRANCH   1   2
ATOM      2  C   UNL     1       3.205   6.643  19.263  0.00  0.00    +0.000 C 
ATOM      3  C   UNL     1       2.029   7.144  20.139  0.00  0.00    +0.000 C 
ATOM      4  C   UNL     1       1.568   8.577  19.816  0.00  0.00    +0.000 C 
ATOM      5  O   UNL     1       1.365   8.758  18.419  0.00  0.00    +0.000 OA
ATOM      6  C   UNL     1       2.584   8.582  17.705  0.00  0.00    +0.000 C 
ATOM      7  C   UNL     1       3.026   7.128  17.799  0.00  0.00    +0.000 C 
ENDBRANCH   1   2
BRANCH   1  10
ATOM      8  O   UNL     1       6.365   4.960  19.208  0.00  0.00    +0.000 OA
ATOM      9  C   UNL     1       5.749   4.651  18.198  0.00  0.00    +0.000 C 
ATOM     10  N   UNL     1       4.361   4.696  18.125  0.00  0.00    +0.000 N 
ATOM     11  H   UNL     1       3.925   4.552  17.228  0.00  0.00    +0.000 HD
BRANCH   9  12
ATOM     12  C   UNL     1       6.422   4.193  16.907  0.00  0.00    +0.000 C 
ATOM     13  C   UNL     1       5.430   3.632  15.861  0.00  0.00    +0.000 C 
ATOM     14  C   UNL     1       6.107   3.978  14.568  0.00  0.00    +0.000 A 
ATOM     15  C   UNL     1       5.827   3.498  13.297  0.00  0.00    +0.000 A 
ATOM     16  C   UNL     1       6.558   4.001  12.217  0.00  0.00    +0.000 A 
ATOM     17  C   UNL     1       7.543   4.979  12.416  0.00  0.00    +0.000 A 
ATOM     18  C   UNL     1       7.808   5.466  13.698  0.00  0.00    +0.000 A 
ATOM     19  C   UNL     1       7.087   4.954  14.765  0.00  0.00    +0.000 A 
ATOM     20  C   UNL     1       7.163   5.353  16.207  0.00  0.00    +0.000 C 
ENDBRANCH   9  12
ENDBRANCH   1  10
BRANCH   1  21
ATOM     21  C   UNL     1       2.294   4.096  19.362  0.00  0.00    +0.000 C 
ATOM     22  C   UNL     1       2.475   2.637  19.925  0.00  0.00    +0.000 C 
ATOM     23  C   UNL     1       1.138   2.797  20.688  0.00  0.00    +0.000 C 
ATOM     24  C   UNL     1       1.354   4.319  20.623  0.00  0.00    +0.000 C 
BRANCH  21  25
ATOM     25  C   UNL     1       1.426   4.074  18.076  0.00  0.00    +0.000 C 
BRANCH  25  26
ATOM     26  O   UNL     1       2.035   3.262  17.079  0.00  0.00    +0.000 OA
ATOM     27  H   UNL     1       1.404   2.572  16.828  0.00  0.00    +0.000 HD
ENDBRANCH  25  26
ENDBRANCH  21  25
ENDBRANCH   1  21
TORSDOF 6
ENDMDL
MODEL 5
REMARK VINA RESULT:      -7.9      2.809      7.574
REMARK  Name = 
REMARK  6 active torsions:
REMARK  status: ('A' for Active; 'I' for Inactive)
REMARK    1  A    between atoms: C_2  and  C_17
REMARK    2  A    between atoms: N_3  and  C_4
REMARK    3  A    between atoms: C_4  and  C_5
REMARK    4  A    between atoms: C_4  and  C_11
REMARK    5  A    between atoms: C_11  and  C_12
REMARK    6  A    between atoms: C_12  and  O_13
REMARK                            x       y       z     vdW  Elec       q    Type
REMARK                         _______ _______ _______ _____ _____    ______ ____
ROOT
ATOM      1  C   UNL     1       3.402   5.538  18.269  0.00  0.00    +0.000 C 
ENDROOT
BRANCH   1   2
ATOM      2  C   UNL     1       4.970   5.479  18.058  0.00  0.00    +0.000 C 
ATOM      3  C   UNL     1       5.858   5.365  19.323  0.00  0.00    +0.000 C 
ATOM      4  C   UNL     1       7.347   5.669  19.077  0.00  0.00    +0.000 C 
ATOM      5  O   UNL     1       7.520   6.885  18.359  0.00  0.00    +0.000 OA
ATOM      6  C   UNL     1       6.933   6.795  17.065  0.00  0.00    +0.000 C 
ATOM      7  C   UNL     1       5.420   6.690  17.196  0.00  0.00    +0.000 C 
ENDBRANCH   1   2
BRANCH   1  10
ATOM      8  O   UNL     1       1.809   7.814  17.595  0.00  0.00    +0.000 OA
ATOM      9  C   UNL     1       2.219   7.713  18.743  0.00  0.00    +0.000 C 
ATOM     10  N   UNL     1       3.012   6.650  19.163  0.00  0.00    +0.000 N 
ATOM     11  H   UNL     1       3.419   6.693  20.084  0.00  0.00    +0.000 HD
BRANCH   9  12
ATOM     12  C   UNL     1       1.921   8.733  19.838  0.00  0.00    +0.000 C 
ATOM     13  C   UNL     1       0.949   9.850  19.390  0.00  0.00    +0.000 C 
ATOM     14  C   UNL     1       0.255  10.196  20.674  0.00  0.00    +0.000 A 
ATOM     15  C   UNL     1      -0.529  11.306  20.954  0.00  0.00    +0.000 A 
ATOM     16  C   UNL     1      -1.124  11.402  22.215  0.00  0.00    +0.000 A 
ATOM     17  C   UNL     1      -0.941  10.391  23.169  0.00  0.00    +0.000 A 
ATOM     18  C   UNL     1      -0.161   9.271  22.874  0.00  0.00    +0.000 A 
ATOM     19  C   UNL     1       0.436   9.189  21.625  0.00  0.00    +0.000 A 
ATOM     20  C   UNL     1       1.268   8.073  21.071  0.00  0.00    +0.000 C 
ENDBRANCH   9  12
ENDBRANCH   1  10
BRANCH   1  21
ATOM     21  C   UNL     1       2.668   4.229  18.739  0.00  0.00    +0.000 C 
ATOM     22  C   UNL     1       1.404   3.684  17.975  0.00  0.00    +0.000 C 
ATOM     23  C   UNL     1       1.966   2.250  18.129  0.00  0.00    +0.000 C 
ATOM     24  C   UNL     1       3.362   2.878  18.273  0.00  0.00    +0.000 C 
BRANCH  21  25
ATOM     25  C   UNL     1       2.433   4.179  20.272  0.00  0.00    +0.000 C 
BRANCH  25  26
ATOM     26  O   UNL     1       1.119   4.623  20.588  0.00  0.00    +0.000 OA
ATOM     27  H   UNL     1       1.106   4.881  21.521  0.00  0.00    +0.000 HD
ENDBRANCH  25  26
ENDBRANCH  21  25
ENDBRANCH   1  21
TORSDOF 6
ENDMDL
MODEL 6
REMARK VINA RESULT:      -7.8      0.823      1.580
REMARK  Name = 
REMARK  6 active torsions:
REMARK  status: ('A' for Active; 'I' for Inactive)
REMARK    1  A    between atoms: C_2  and  C_17
REMARK    2  A    between atoms: N_3  and  C_4
REMARK    3  A    between atoms: C_4  and  C_5
REMARK    4  A    between atoms: C_4  and  C_11
REMARK    5  A    between atoms: C_11  and  C_12
REMARK    6  A    between atoms: C_12  and  O_13
REMARK                            x       y       z     vdW  Elec       q    Type
REMARK                         _______ _______ _______ _____ _____    ______ ____
ROOT
ATOM      1  C   UNL     1       3.628   4.897  19.503  0.00  0.00    +0.000 C 
ENDROOT
BRANCH   1   2
ATOM      2  C   UNL     1       3.269   6.438  19.483  0.00  0.00    +0.000 C 
ATOM      3  C   UNL     1       2.056   6.902  20.328  0.00  0.00    +0.000 C 
ATOM      4  C   UNL     1       1.554   8.316  19.988  0.00  0.00    +0.000 C 
ATOM      5  O   UNL     1       1.377   8.484  18.585  0.00  0.00    +0.000 OA
ATOM      6  C   UNL     1       2.618   8.348  17.900  0.00  0.00    +0.000 C 
ATOM      7  C   UNL     1       3.108   6.910  18.012  0.00  0.00    +0.000 C 
ENDBRANCH   1   2
BRANCH   1  10
ATOM      8  O   UNL     1       6.468   5.041  19.199  0.00  0.00    +0.000 OA
ATOM      9  C   UNL     1       5.806   4.599  18.270  0.00  0.00    +0.000 C 
ATOM     10  N   UNL     1       4.419   4.504  18.317  0.00  0.00    +0.000 N 
ATOM     11  H   UNL     1       3.929   4.252  17.474  0.00  0.00    +0.000 HD
BRANCH   9  12
ATOM     12  C   UNL     1       6.415   4.115  16.957  0.00  0.00    +0.000 C 
ATOM     13  C   UNL     1       5.363   3.630  15.932  0.00  0.00    +0.000 C 
ATOM     14  C   UNL     1       6.027   3.948  14.625  0.00  0.00    +0.000 A 
ATOM     15  C   UNL     1       5.684   3.500  13.357  0.00  0.00    +0.000 A 
ATOM     16  C   UNL     1       6.418   3.969  12.263  0.00  0.00    +0.000 A 
ATOM     17  C   UNL     1       7.468   4.880  12.446  0.00  0.00    +0.000 A 
ATOM     18  C   UNL     1       7.797   5.334  13.725  0.00  0.00    +0.000 A 
ATOM     19  C   UNL     1       7.072   4.856  14.806  0.00  0.00    +0.000 A 
ATOM     20  C   UNL     1       7.210   5.233  16.249  0.00  0.00    +0.000 C 
ENDBRANCH   9  12
ENDBRANCH   1  10
BRANCH   1  21
ATOM     21  C   UNL     1       2.456   3.866  19.696  0.00  0.00    +0.000 C 
ATOM     22  C   UNL     1       1.237   3.823  18.700  0.00  0.00    +0.000 C 
ATOM     23  C   UNL     1       1.293   2.276  18.746  0.00  0.00    +0.000 C 
ATOM     24  C   UNL     1       2.768   2.403  19.161  0.00  0.00    +0.000 C 
BRANCH  21  25
ATOM     25  C   UNL     1       1.957   3.778  21.162  0.00  0.00    +0.000 C 
BRANCH  25  26
ATOM     26  O   UNL     1       2.721   2.826  21.892  0.00  0.00    +0.000 OA
ATOM     27  H   UNL     1       3.452   3.294  22.321  0.00  0.00    +0.000 HD
ENDBRANCH  25  26
ENDBRANCH  21  25
ENDBRANCH   1  21
TORSDOF 6
ENDMDL
MODEL 7
REMARK VINA RESULT:      -7.8      1.776      6.882
REMARK  Name = 
REMARK  6 active torsions:
REMARK  status: ('A' for Active; 'I' for Inactive)
REMARK    1  A    between atoms: C_2  and  C_17
REMARK    2  A    between atoms: N_3  and  C_4
REMARK    3  A    between atoms: C_4  and  C_5
REMARK    4  A    between atoms: C_4  and  C_11
REMARK    5  A    between atoms: C_11  and  C_12
REMARK    6  A    between atoms: C_12  and  O_13
REMARK                            x       y       z     vdW  Elec       q    Type
REMARK                         _______ _______ _______ _____ _____    ______ ____
ROOT
ATOM      1  C   UNL     1       3.684   4.110  18.048  0.00  0.00    +0.000 C 
ENDROOT
BRANCH   1   2
ATOM      2  C   UNL     1       5.157   3.964  17.488  0.00  0.00    +0.000 C 
ATOM      3  C   UNL     1       6.306   4.580  18.326  0.00  0.00    +0.000 C 
ATOM      4  C   UNL     1       7.638   4.717  17.567  0.00  0.00    +0.000 C 
ATOM      5  O   UNL     1       7.454   5.335  16.298  0.00  0.00    +0.000 OA
ATOM      6  C   UNL     1       6.623   4.537  15.463  0.00  0.00    +0.000 C 
ATOM      7  C   UNL     1       5.211   4.502  16.031  0.00  0.00    +0.000 C 
ENDBRANCH   1   2
BRANCH   1  10
ATOM      8  O   UNL     1       1.543   5.947  17.586  0.00  0.00    +0.000 OA
ATOM      9  C   UNL     1       2.389   6.240  18.419  0.00  0.00    +0.000 C 
ATOM     10  N   UNL     1       3.475   5.419  18.703  0.00  0.00    +0.000 N 
ATOM     11  H   UNL     1       4.199   5.777  19.305  0.00  0.00    +0.000 HD
BRANCH   9  12
ATOM     12  C   UNL     1       2.361   7.532  19.231  0.00  0.00    +0.000 C 
ATOM     13  C   UNL     1       1.623   8.691  18.518  0.00  0.00    +0.000 C 
ATOM     14  C   UNL     1       1.077   9.474  19.675  0.00  0.00    +0.000 A 
ATOM     15  C   UNL     1       0.555  10.759  19.671  0.00  0.00    +0.000 A 
ATOM     16  C   UNL     1       0.051  11.279  20.867  0.00  0.00    +0.000 A 
ATOM     17  C   UNL     1       0.063  10.509  22.040  0.00  0.00    +0.000 A 
ATOM     18  C   UNL     1       0.578   9.212  22.031  0.00  0.00    +0.000 A 
ATOM     19  C   UNL     1       1.086   8.708  20.843  0.00  0.00    +0.000 A 
ATOM     20  C   UNL     1       1.641   7.341  20.583  0.00  0.00    +0.000 C 
ENDBRANCH   9  12
ENDBRANCH   1  10
BRANCH   1  21
ATOM     21  C   UNL     1       3.135   2.977  18.990  0.00  0.00    +0.000 C 
ATOM     22  C   UNL     1       2.760   3.276  20.490  0.00  0.00    +0.000 C 
ATOM     23  C   UNL     1       1.503   2.387  20.322  0.00  0.00    +0.000 C 
ATOM     24  C   UNL     1       1.589   2.660  18.811  0.00  0.00    +0.000 C 
BRANCH  21  25
ATOM     25  C   UNL     1       3.942   1.656  18.890  0.00  0.00    +0.000 C 
BRANCH  25  26
ATOM     26  O   UNL     1       4.962   1.619  19.881  0.00  0.00    +0.000 OA
ATOM     27  H   UNL     1       5.012   2.494  20.292  0.00  0.00    +0.000 HD
ENDBRANCH  25  26
ENDBRANCH  21  25
ENDBRANCH   1  21
TORSDOF 6
ENDMDL
MODEL 8
REMARK VINA RESULT:      -7.8      2.337      7.455
REMARK  Name = 
REMARK  6 active torsions:
REMARK  status: ('A' for Active; 'I' for Inactive)
REMARK    1  A    between atoms: C_2  and  C_17
REMARK    2  A    between atoms: N_3  and  C_4
REMARK    3  A    between atoms: C_4  and  C_5
REMARK    4  A    between atoms: C_4  and  C_11
REMARK    5  A    between atoms: C_11  and  C_12
REMARK    6  A    between atoms: C_12  and  O_13
REMARK                            x       y       z     vdW  Elec       q    Type
REMARK                         _______ _______ _______ _____ _____    ______ ____
ROOT
ATOM      1  C   UNL     1       3.444   5.173  18.361  0.00  0.00    +0.000 C 
ENDROOT
BRANCH   1   2
ATOM      2  C   UNL     1       4.979   5.177  17.976  0.00  0.00    +0.000 C 
ATOM      3  C   UNL     1       5.685   6.552  17.863  0.00  0.00    +0.000 C 
ATOM      4  C   UNL     1       7.048   6.505  17.150  0.00  0.00    +0.000 C 
ATOM      5  O   UNL     1       6.969   5.794  15.919  0.00  0.00    +0.000 OA
ATOM      6  C   UNL     1       6.612   4.435  16.143  0.00  0.00    +0.000 C 
ATOM      7  C   UNL     1       5.185   4.362  16.670  0.00  0.00    +0.000 C 
ENDBRANCH   1   2
BRANCH   1  10
ATOM      8  O   UNL     1       1.710   7.317  17.609  0.00  0.00    +0.000 OA
ATOM      9  C   UNL     1       2.213   7.343  18.723  0.00  0.00    +0.000 C 
ATOM     10  N   UNL     1       3.081   6.354  19.175  0.00  0.00    +0.000 N 
ATOM     11  H   UNL     1       3.558   6.500  20.050  0.00  0.00    +0.000 HD
BRANCH   9  12
ATOM     12  C   UNL     1       1.962   8.455  19.737  0.00  0.00    +0.000 C 
ATOM     13  C   UNL     1       0.980   9.538  19.232  0.00  0.00    +0.000 C 
ATOM     14  C   UNL     1       0.336   9.998  20.506  0.00  0.00    +0.000 A 
ATOM     15  C   UNL     1      -0.431  11.134  20.719  0.00  0.00    +0.000 A 
ATOM     16  C   UNL     1      -0.979  11.342  21.988  0.00  0.00    +0.000 A 
ATOM     17  C   UNL     1      -0.765  10.414  23.018  0.00  0.00    +0.000 A 
ATOM     18  C   UNL     1      -0.003   9.267  22.790  0.00  0.00    +0.000 A 
ATOM     19  C   UNL     1       0.547   9.074  21.532  0.00  0.00    +0.000 A 
ATOM     20  C   UNL     1       1.352   7.908  21.045  0.00  0.00    +0.000 C 
ENDBRANCH   9  12
ENDBRANCH   1  10
BRANCH   1  21
ATOM     21  C   UNL     1       2.856   3.885  19.046  0.00  0.00    +0.000 C 
ATOM     22  C   UNL     1       3.800   2.742  19.579  0.00  0.00    +0.000 C 
ATOM     23  C   UNL     1       2.901   2.626  20.834  0.00  0.00    +0.000 C 
ATOM     24  C   UNL     1       2.453   4.073  20.571  0.00  0.00    +0.000 C 
BRANCH  21  25
ATOM     25  C   UNL     1       1.657   3.277  18.272  0.00  0.00    +0.000 C 
BRANCH  25  26
ATOM     26  O   UNL     1       1.124   4.225  17.357  0.00  0.00    +0.000 OA
ATOM     27  H   UNL     1       1.455   4.009  16.473  0.00  0.00    +0.000 HD
ENDBRANCH  25  26
ENDBRANCH  21  25
ENDBRANCH   1  21
TORSDOF 6
ENDMDL
MODEL 9
REMARK VINA RESULT:      -7.7      2.257      7.340
REMARK  Name = 
REMARK  6 active torsions:
REMARK  status: ('A' for Active; 'I' for Inactive)
REMARK    1  A    between atoms: C_2  and  C_17
REMARK    2  A    between atoms: N_3  and  C_4
REMARK    3  A    between atoms: C_4  and  C_5
REMARK    4  A    between atoms: C_4  and  C_11
REMARK    5  A    between atoms: C_11  and  C_12
REMARK    6  A    between atoms: C_12  and  O_13
REMARK                            x       y       z     vdW  Elec       q    Type
REMARK                         _______ _______ _______ _____ _____    ______ ____
ROOT
ATOM      1  C   UNL     1       3.483   4.746  18.595  0.00  0.00    +0.000 C 
ENDROOT
BRANCH   1   2
ATOM      2  C   UNL     1       5.050   4.566  18.466  0.00  0.00    +0.000 C 
ATOM      3  C   UNL     1       5.950   5.547  19.258  0.00  0.00    +0.000 C 
ATOM      4  C   UNL     1       7.425   5.548  18.816  0.00  0.00    +0.000 C 
ATOM      5  O   UNL     1       7.546   5.667  17.402  0.00  0.00    +0.000 OA
ATOM      6  C   UNL     1       6.955   4.549  16.749  0.00  0.00    +0.000 C 
ATOM      7  C   UNL     1       5.447   4.569  16.964  0.00  0.00    +0.000 C 
ENDBRANCH   1   2
BRANCH   1  10
ATOM      8  O   UNL     1       1.994   7.010  17.683  0.00  0.00    +0.000 OA
ATOM      9  C   UNL     1       2.389   7.004  18.840  0.00  0.00    +0.000 C 
ATOM     10  N   UNL     1       3.133   5.955  19.371  0.00  0.00    +0.000 N 
ATOM     11  H   UNL     1       3.533   6.071  20.288  0.00  0.00    +0.000 HD
BRANCH   9  12
ATOM     12  C   UNL     1       2.125   8.138  19.827  0.00  0.00    +0.000 C 
ATOM     13  C   UNL     1       1.257   9.275  19.240  0.00  0.00    +0.000 C 
ATOM     14  C   UNL     1       0.542   9.784  20.457  0.00  0.00    +0.000 A 
ATOM     15  C   UNL     1      -0.168  10.967  20.603  0.00  0.00    +0.000 A 
ATOM     16  C   UNL     1      -0.803  11.218  21.823  0.00  0.00    +0.000 A 
ATOM     17  C   UNL     1      -0.732  10.287  22.869  0.00  0.00    +0.000 A 
ATOM     18  C   UNL     1      -0.026   9.093  22.708  0.00  0.00    +0.000 A 
ATOM     19  C   UNL     1       0.610   8.856  21.499  0.00  0.00    +0.000 A 
ATOM     20  C   UNL     1       1.378   7.640  21.083  0.00  0.00    +0.000 C 
ENDBRANCH   9  12
ENDBRANCH   1  10
BRANCH   1  21
ATOM     21  C   UNL     1       2.640   3.534  19.137  0.00  0.00    +0.000 C 
ATOM     22  C   UNL     1       1.079   3.474  18.942  0.00  0.00    +0.000 C 
ATOM     23  C   UNL     1       1.208   1.967  18.610  0.00  0.00    +0.000 C 
ATOM     24  C   UNL     1       2.667   2.243  18.211  0.00  0.00    +0.000 C 
BRANCH  21  25
ATOM     25  C   UNL     1       3.018   3.130  20.587  0.00  0.00    +0.000 C 
BRANCH  25  26
ATOM     26  O   UNL     1       2.329   3.947  21.526  0.00  0.00    +0.000 OA
ATOM     27  H   UNL     1       2.542   4.871  21.333  0.00  0.00    +0.000 HD
ENDBRANCH  25  26
ENDBRANCH  21  25
ENDBRANCH   1  21
TORSDOF 6
ENDMDL
