MODEL 1
REMARK VINA RESULT:      -7.1      0.000      0.000
REMARK  Name = 
REMARK  4 active torsions:
REMARK  status: ('A' for Active; 'I' for Inactive)
REMARK    1  A    between atoms: C_1  and  C_2
REMARK    2  A    between atoms: C_4  and  C_5
REMARK    3  A    between atoms: C_14  and  C_16
REMARK    4  A    between atoms: C_22  and  C_23
REMARK                            x       y       z     vdW  Elec       q    Type
REMARK                         _______ _______ _______ _____ _____    ______ ____
ROOT
ATOM      1  C   UNL     1      -1.207  16.785  19.612  0.00  0.00    +0.000 C 
ATOM      2  C   UNL     1       0.107  16.142  19.269  0.00  0.00    +0.000 A 
ATOM      3  C   UNL     1       1.075  16.813  18.567  0.00  0.00    +0.000 A 
ATOM      4  C   UNL     1       2.171  16.067  18.175  0.00  0.00    +0.000 A 
ATOM      5  C   UNL     1       3.300  16.689  17.417  0.00  0.00    +0.000 C 
ATOM      6  N   UNL     1       2.277  14.747  18.419  0.00  0.00    +0.000 NA
ATOM      7  C   UNL     1       1.284  14.168  19.098  0.00  0.00    +0.000 A 
ATOM      8  N   UNL     1       1.205  12.784  19.130  0.00  0.00    +0.000 N 
ATOM      9  C   UNL     1       1.964  11.842  18.379  0.00  0.00    +0.000 C 
ATOM     10  C   UNL     1       1.290  10.759  19.261  0.00  0.00    +0.000 C 
ATOM     11  C   UNL     1      -0.034  10.212  18.702  0.00  0.00    +0.000 C 
ATOM     12  C   UNL     1      -1.109  10.213  19.797  0.00  0.00    +0.000 C 
ATOM     13  N   UNL     1      -1.273  11.576  20.326  0.00  0.00    +0.000 N 
ATOM     14  C   UNL     1      -2.287  12.522  20.057  0.00  0.00    +0.000 C 
ATOM     15  O   UNL     1      -2.224  13.681  20.462  0.00  0.00    +0.000 OA
ATOM     16  C   UNL     1      -0.131  12.020  21.122  0.00  0.00    +0.000 C 
ATOM     17  C   UNL     1       1.137  11.927  20.281  0.00  0.00    +0.000 C 
ATOM     18  N   UNL     1       0.239  14.845  19.589  0.00  0.00    +0.000 NA
ENDROOT
BRANCH  14  19
ATOM     19  C   UNL     1      -3.509  12.159  19.276  0.00  0.00    +0.000 A 
ATOM     20  C   UNL     1      -3.343  11.686  17.959  0.00  0.00    +0.000 A 
ATOM     21  C   UNL     1      -4.408  11.217  17.200  0.00  0.00    +0.000 A 
ATOM     22  C   UNL     1      -5.686  11.312  17.716  0.00  0.00    +0.000 A 
ATOM     23  C   UNL     1      -5.883  11.904  18.962  0.00  0.00    +0.000 A 
ATOM     24  F   UNL     1      -7.157  12.004  19.377  0.00  0.00    +0.000 F 
ATOM     25  C   UNL     1      -4.822  12.359  19.775  0.00  0.00    +0.000 A 
BRANCH  25  26
ATOM     26  C   UNL     1      -5.166  13.034  21.038  0.00  0.00    +0.000 A 
ATOM     27  N   UNL     1      -5.170  12.332  22.186  0.00  0.00    +0.000 NA
ATOM     28  C   UNL     1      -5.448  13.027  23.309  0.00  0.00    +0.000 A 
ATOM     29  C   UNL     1      -5.831  14.345  23.321  0.00  0.00    +0.000 A 
ATOM     30  C   UNL     1      -5.876  14.955  22.095  0.00  0.00    +0.000 A 
ATOM     31  N   UNL     1      -5.524  14.337  20.954  0.00  0.00    +0.000 NA
ENDBRANCH  25  26
ENDBRANCH  14  19
TORSDOF 2
ENDMDL
MODEL 2
REMARK VINA RESULT:      -7.0      2.175      4.569
REMARK  Name = 
REMARK  4 active torsions:
REMARK  status: ('A' for Active; 'I' for Inactive)
REMARK    1  A    between atoms: C_1  and  C_2
REMARK    2  A    between atoms: C_4  and  C_5
REMARK    3  A    between atoms: C_14  and  C_16
REMARK    4  A    between atoms: C_22  and  C_23
REMARK                            x       y       z     vdW  Elec       q    Type
REMARK                         _______ _______ _______ _____ _____    ______ ____
ROOT
ATOM      1  C   UNL     1      -2.673  10.005  17.951  0.00  0.00    +0.000 C 
ATOM      2  C   UNL     1      -1.216  10.333  18.117  0.00  0.00    +0.000 A 
ATOM      3  C   UNL     1      -0.236   9.423  17.815  0.00  0.00    +0.000 A 
ATOM      4  C   UNL     1       1.054   9.781  18.158  0.00  0.00    +0.000 A 
ATOM      5  C   UNL     1       2.213   8.880  17.868  0.00  0.00    +0.000 C 
ATOM      6  N   UNL     1       1.345  10.932  18.795  0.00  0.00    +0.000 NA
ATOM      7  C   UNL     1       0.330  11.757  19.062  0.00  0.00    +0.000 A 
ATOM      8  N   UNL     1       0.525  12.804  19.951  0.00  0.00    +0.000 N 
ATOM      9  C   UNL     1       1.652  13.049  20.786  0.00  0.00    +0.000 C 
ATOM     10  C   UNL     1       0.973  14.403  21.121  0.00  0.00    +0.000 C 
ATOM     11  C   UNL     1       0.024  14.360  22.330  0.00  0.00    +0.000 C 
ATOM     12  C   UNL     1      -1.313  15.024  21.975  0.00  0.00    +0.000 C 
ATOM     13  N   UNL     1      -1.903  14.353  20.807  0.00  0.00    +0.000 N 
ATOM     14  C   UNL     1      -2.954  13.410  20.756  0.00  0.00    +0.000 C 
ATOM     15  O   UNL     1      -3.254  12.821  19.720  0.00  0.00    +0.000 OA
ATOM     16  C   UNL     1      -1.176  14.619  19.569  0.00  0.00    +0.000 C 
ATOM     17  C   UNL     1       0.281  14.203  19.739  0.00  0.00    +0.000 C 
ATOM     18  N   UNL     1      -0.930  11.518  18.677  0.00  0.00    +0.000 NA
ENDROOT
BRANCH  14  19
ATOM     19  C   UNL     1      -3.777  13.089  21.962  0.00  0.00    +0.000 A 
ATOM     20  C   UNL     1      -3.138  12.484  23.063  0.00  0.00    +0.000 A 
ATOM     21  C   UNL     1      -3.794  12.256  24.267  0.00  0.00    +0.000 A 
ATOM     22  C   UNL     1      -5.145  12.536  24.352  0.00  0.00    +0.000 A 
ATOM     23  C   UNL     1      -5.823  13.006  23.230  0.00  0.00    +0.000 A 
ATOM     24  F   UNL     1      -7.143  13.211  23.376  0.00  0.00    +0.000 F 
ATOM     25  C   UNL     1      -5.182  13.283  22.002  0.00  0.00    +0.000 A 
BRANCH  25  26
ATOM     26  C   UNL     1      -6.022  13.705  20.868  0.00  0.00    +0.000 A 
ATOM     27  N   UNL     1      -6.134  15.013  20.576  0.00  0.00    +0.000 NA
ATOM     28  C   UNL     1      -6.882  15.320  19.496  0.00  0.00    +0.000 A 
ATOM     29  C   UNL     1      -7.607  14.402  18.777  0.00  0.00    +0.000 A 
ATOM     30  C   UNL     1      -7.494  13.103  19.200  0.00  0.00    +0.000 A 
ATOM     31  N   UNL     1      -6.694  12.729  20.214  0.00  0.00    +0.000 NA
ENDBRANCH  25  26
ENDBRANCH  14  19
TORSDOF 2
ENDMDL
MODEL 3
REMARK VINA RESULT:      -6.9      9.420     11.431
REMARK  Name = 
REMARK  4 active torsions:
REMARK  status: ('A' for Active; 'I' for Inactive)
REMARK    1  A    between atoms: C_1  and  C_2
REMARK    2  A    between atoms: C_4  and  C_5
REMARK    3  A    between atoms: C_14  and  C_16
REMARK    4  A    between atoms: C_22  and  C_23
REMARK                            x       y       z     vdW  Elec       q    Type
REMARK                         _______ _______ _______ _____ _____    ______ ____
ROOT
ATOM      1  C   UNL     1      10.560  17.561  21.610  0.00  0.00    +0.000 C 
ATOM      2  C   UNL     1      10.808  17.204  20.172  0.00  0.00    +0.000 A 
ATOM      3  C   UNL     1      10.818  18.157  19.186  0.00  0.00    +0.000 A 
ATOM      4  C   UNL     1      10.898  17.690  17.888  0.00  0.00    +0.000 A 
ATOM      5  C   UNL     1      10.932  18.631  16.726  0.00  0.00    +0.000 C 
ATOM      6  N   UNL     1      10.917  16.377  17.587  0.00  0.00    +0.000 NA
ATOM      7  C   UNL     1      10.893  15.515  18.606  0.00  0.00    +0.000 A 
ATOM      8  N   UNL     1      10.630  14.177  18.354  0.00  0.00    +0.000 N 
ATOM      9  C   UNL     1      10.201  13.580  17.134  0.00  0.00    +0.000 C 
ATOM     10  C   UNL     1      10.415  12.221  17.850  0.00  0.00    +0.000 C 
ATOM     11  C   UNL     1       9.182  11.691  18.600  0.00  0.00    +0.000 C 
ATOM     12  C   UNL     1       9.573  11.258  20.019  0.00  0.00    +0.000 C 
ATOM     13  N   UNL     1      10.187  12.390  20.729  0.00  0.00    +0.000 N 
ATOM     14  C   UNL     1       9.625  13.242  21.706  0.00  0.00    +0.000 C 
ATOM     15  O   UNL     1      10.210  14.242  22.116  0.00  0.00    +0.000 OA
ATOM     16  C   UNL     1      11.512  12.734  20.218  0.00  0.00    +0.000 C 
ATOM     17  C   UNL     1      11.415  13.034  18.726  0.00  0.00    +0.000 C 
ATOM     18  N   UNL     1      10.910  15.896  19.890  0.00  0.00    +0.000 NA
ENDROOT
BRANCH  14  19
ATOM     19  C   UNL     1       8.288  12.961  22.313  0.00  0.00    +0.000 A 
ATOM     20  C   UNL     1       8.155  11.829  23.141  0.00  0.00    +0.000 A 
ATOM     21  C   UNL     1       6.985  11.554  23.839  0.00  0.00    +0.000 A 
ATOM     22  C   UNL     1       5.882  12.360  23.633  0.00  0.00    +0.000 A 
ATOM     23  C   UNL     1       5.954  13.402  22.711  0.00  0.00    +0.000 A 
ATOM     24  F   UNL     1       4.828  14.113  22.529  0.00  0.00    +0.000 F 
ATOM     25  C   UNL     1       7.136  13.732  22.012  0.00  0.00    +0.000 A 
BRANCH  25  26
ATOM     26  C   UNL     1       7.062  14.810  21.010  0.00  0.00    +0.000 A 
ATOM     27  N   UNL     1       7.116  14.503  19.701  0.00  0.00    +0.000 NA
ATOM     28  C   UNL     1       6.994  15.536  18.842  0.00  0.00    +0.000 A 
ATOM     29  C   UNL     1       6.940  16.854  19.226  0.00  0.00    +0.000 A 
ATOM     30  C   UNL     1       6.973  17.072  20.579  0.00  0.00    +0.000 A 
ATOM     31  N   UNL     1       7.003  16.077  21.483  0.00  0.00    +0.000 NA
ENDBRANCH  25  26
ENDBRANCH  14  19
TORSDOF 2
ENDMDL
MODEL 4
REMARK VINA RESULT:      -6.8      2.281      4.586
REMARK  Name = 
REMARK  4 active torsions:
REMARK  status: ('A' for Active; 'I' for Inactive)
REMARK    1  A    between atoms: C_1  and  C_2
REMARK    2  A    between atoms: C_4  and  C_5
REMARK    3  A    between atoms: C_14  and  C_16
REMARK    4  A    between atoms: C_22  and  C_23
REMARK                            x       y       z     vdW  Elec       q    Type
REMARK                         _______ _______ _______ _____ _____    ______ ____
ROOT
ATOM      1  C   UNL     1      -2.368  10.050  17.962  0.00  0.00    +0.000 C 
ATOM      2  C   UNL     1      -0.894  10.326  18.072  0.00  0.00    +0.000 A 
ATOM      3  C   UNL     1       0.040   9.363  17.795  0.00  0.00    +0.000 A 
ATOM      4  C   UNL     1       1.353   9.685  18.085  0.00  0.00    +0.000 A 
ATOM      5  C   UNL     1       2.466   8.724  17.814  0.00  0.00    +0.000 C 
ATOM      6  N   UNL     1       1.706  10.856  18.650  0.00  0.00    +0.000 NA
ATOM      7  C   UNL     1       0.732  11.735  18.897  0.00  0.00    +0.000 A 
ATOM      8  N   UNL     1       0.994  12.819  19.721  0.00  0.00    +0.000 N 
ATOM      9  C   UNL     1       2.153  13.063  20.513  0.00  0.00    +0.000 C 
ATOM     10  C   UNL     1       1.537  14.459  20.790  0.00  0.00    +0.000 C 
ATOM     11  C   UNL     1       0.622  14.520  22.024  0.00  0.00    +0.000 C 
ATOM     12  C   UNL     1      -0.697  15.219  21.668  0.00  0.00    +0.000 C 
ATOM     13  N   UNL     1      -1.346  14.510  20.554  0.00  0.00    +0.000 N 
ATOM     14  C   UNL     1      -2.435  13.610  20.582  0.00  0.00    +0.000 C 
ATOM     15  O   UNL     1      -2.786  12.979  19.588  0.00  0.00    +0.000 OA
ATOM     16  C   UNL     1      -0.644  14.680  19.285  0.00  0.00    +0.000 C 
ATOM     17  C   UNL     1       0.800  14.214  19.440  0.00  0.00    +0.000 C 
ATOM     18  N   UNL     1      -0.546  11.528  18.559  0.00  0.00    +0.000 NA
ENDROOT
BRANCH  14  19
ATOM     19  C   UNL     1      -3.235  13.388  21.825  0.00  0.00    +0.000 A 
ATOM     20  C   UNL     1      -2.826  12.369  22.709  0.00  0.00    +0.000 A 
ATOM     21  C   UNL     1      -3.438  12.167  23.940  0.00  0.00    +0.000 A 
ATOM     22  C   UNL     1      -4.548  12.923  24.265  0.00  0.00    +0.000 A 
ATOM     23  C   UNL     1      -5.049  13.840  23.344  0.00  0.00    +0.000 A 
ATOM     24  F   UNL     1      -6.159  14.504  23.710  0.00  0.00    +0.000 F 
ATOM     25  C   UNL     1      -4.433  14.097  22.098  0.00  0.00    +0.000 A 
BRANCH  25  26
ATOM     26  C   UNL     1      -5.103  15.036  21.182  0.00  0.00    +0.000 A 
ATOM     27  N   UNL     1      -4.850  16.353  21.282  0.00  0.00    +0.000 NA
ATOM     28  C   UNL     1      -5.462  17.147  20.379  0.00  0.00    +0.000 A 
ATOM     29  C   UNL     1      -6.393  16.704  19.471  0.00  0.00    +0.000 A 
ATOM     30  C   UNL     1      -6.644  15.357  19.500  0.00  0.00    +0.000 A 
ATOM     31  N   UNL     1      -5.999  14.506  20.316  0.00  0.00    +0.000 NA
ENDBRANCH  25  26
ENDBRANCH  14  19
TORSDOF 2
ENDMDL
MODEL 5
REMARK VINA RESULT:      -6.8      2.208      4.516
REMARK  Name = 
REMARK  4 active torsions:
REMARK  status: ('A' for Active; 'I' for Inactive)
REMARK    1  A    between atoms: C_1  and  C_2
REMARK    2  A    between atoms: C_4  and  C_5
REMARK    3  A    between atoms: C_14  and  C_16
REMARK    4  A    between atoms: C_22  and  C_23
REMARK                            x       y       z     vdW  Elec       q    Type
REMARK                         _______ _______ _______ _____ _____    ______ ____
ROOT
ATOM      1  C   UNL     1      -3.642  12.341  24.081  0.00  0.00    +0.000 C 
ATOM      2  C   UNL     1      -3.111  13.745  24.007  0.00  0.00    +0.000 A 
ATOM      3  C   UNL     1      -3.700  14.773  24.696  0.00  0.00    +0.000 A 
ATOM      4  C   UNL     1      -3.222  16.041  24.425  0.00  0.00    +0.000 A 
ATOM      5  C   UNL     1      -3.772  17.244  25.123  0.00  0.00    +0.000 C 
ATOM      6  N   UNL     1      -2.265  16.277  23.506  0.00  0.00    +0.000 NA
ATOM      7  C   UNL     1      -1.753  15.220  22.871  0.00  0.00    +0.000 A 
ATOM      8  N   UNL     1      -0.983  15.422  21.736  0.00  0.00    +0.000 N 
ATOM      9  C   UNL     1      -0.780  16.633  21.014  0.00  0.00    +0.000 C 
ATOM     10  C   UNL     1       0.273  15.842  20.195  0.00  0.00    +0.000 C 
ATOM     11  C   UNL     1      -0.286  15.136  18.949  0.00  0.00    +0.000 C 
ATOM     12  C   UNL     1       0.192  13.679  18.909  0.00  0.00    +0.000 C 
ATOM     13  N   UNL     1      -0.217  12.991  20.143  0.00  0.00    +0.000 N 
ATOM     14  C   UNL     1      -1.284  12.088  20.350  0.00  0.00    +0.000 C 
ATOM     15  O   UNL     1      -1.601  11.696  21.471  0.00  0.00    +0.000 OA
ATOM     16  C   UNL     1       0.519  13.445  21.320  0.00  0.00    +0.000 C 
ATOM     17  C   UNL     1       0.349  14.953  21.472  0.00  0.00    +0.000 C 
ATOM     18  N   UNL     1      -2.101  13.958  23.149  0.00  0.00    +0.000 NA
ENDROOT
BRANCH  14  19
ATOM     19  C   UNL     1      -2.081  11.543  19.208  0.00  0.00    +0.000 A 
ATOM     20  C   UNL     1      -1.400  10.831  18.200  0.00  0.00    +0.000 A 
ATOM     21  C   UNL     1      -2.070  10.191  17.164  0.00  0.00    +0.000 A 
ATOM     22  C   UNL     1      -3.439  10.344  17.062  0.00  0.00    +0.000 A 
ATOM     23  C   UNL     1      -4.110  11.158  17.971  0.00  0.00    +0.000 A 
ATOM     24  F   UNL     1      -5.433  11.297  17.780  0.00  0.00    +0.000 F 
ATOM     25  C   UNL     1      -3.468  11.795  19.056  0.00  0.00    +0.000 A 
BRANCH  25  26
ATOM     26  C   UNL     1      -4.276  12.690  19.902  0.00  0.00    +0.000 A 
ATOM     27  N   UNL     1      -3.918  13.979  20.036  0.00  0.00    +0.000 NA
ATOM     28  C   UNL     1      -4.732  14.749  20.788  0.00  0.00    +0.000 A 
ATOM     29  C   UNL     1      -5.805  14.268  21.497  0.00  0.00    +0.000 A 
ATOM     30  C   UNL     1      -6.044  12.926  21.362  0.00  0.00    +0.000 A 
ATOM     31  N   UNL     1      -5.320  12.128  20.557  0.00  0.00    +0.000 NA
ENDBRANCH  25  26
ENDBRANCH  14  19
TORSDOF 2
ENDMDL
MODEL 6
REMARK VINA RESULT:      -6.7      2.592      5.895
REMARK  Name = 
REMARK  4 active torsions:
REMARK  status: ('A' for Active; 'I' for Inactive)
REMARK    1  A    between atoms: C_1  and  C_2
REMARK    2  A    between atoms: C_4  and  C_5
REMARK    3  A    between atoms: C_14  and  C_16
REMARK    4  A    between atoms: C_22  and  C_23
REMARK                            x       y       z     vdW  Elec       q    Type
REMARK                         _______ _______ _______ _____ _____    ______ ____
ROOT
ATOM      1  C   UNL     1      -3.828  12.995  24.323  0.00  0.00    +0.000 C 
ATOM      2  C   UNL     1      -3.249  14.372  24.164  0.00  0.00    +0.000 A 
ATOM      3  C   UNL     1      -3.817  15.465  24.767  0.00  0.00    +0.000 A 
ATOM      4  C   UNL     1      -3.291  16.695  24.419  0.00  0.00    +0.000 A 
ATOM      5  C   UNL     1      -3.815  17.960  25.020  0.00  0.00    +0.000 C 
ATOM      6  N   UNL     1      -2.310  16.835  23.506  0.00  0.00    +0.000 NA
ATOM      7  C   UNL     1      -1.821  15.721  22.958  0.00  0.00    +0.000 A 
ATOM      8  N   UNL     1      -1.023  15.818  21.828  0.00  0.00    +0.000 N 
ATOM      9  C   UNL     1      -0.766  16.969  21.029  0.00  0.00    +0.000 C 
ATOM     10  C   UNL     1       0.275  16.089  20.289  0.00  0.00    +0.000 C 
ATOM     11  C   UNL     1      -0.282  15.316  19.083  0.00  0.00    +0.000 C 
ATOM     12  C   UNL     1       0.148  13.845  19.155  0.00  0.00    +0.000 C 
ATOM     13  N   UNL     1      -0.308  13.258  20.424  0.00  0.00    +0.000 N 
ATOM     14  C   UNL     1      -1.408  12.407  20.670  0.00  0.00    +0.000 C 
ATOM     15  O   UNL     1      -1.759  12.104  21.809  0.00  0.00    +0.000 OA
ATOM     16  C   UNL     1       0.420  13.770  21.583  0.00  0.00    +0.000 C 
ATOM     17  C   UNL     1       0.297  15.289  21.626  0.00  0.00    +0.000 C 
ATOM     18  N   UNL     1      -2.216  14.492  23.315  0.00  0.00    +0.000 NA
ENDROOT
BRANCH  14  19
ATOM     19  C   UNL     1      -2.200  11.809  19.552  0.00  0.00    +0.000 A 
ATOM     20  C   UNL     1      -3.521  12.259  19.355  0.00  0.00    +0.000 A 
ATOM     21  C   UNL     1      -4.290  11.847  18.273  0.00  0.00    +0.000 A 
ATOM     22  C   UNL     1      -3.781  10.885  17.422  0.00  0.00    +0.000 A 
ATOM     23  C   UNL     1      -2.531  10.328  17.682  0.00  0.00    +0.000 A 
ATOM     24  F   UNL     1      -2.122   9.366  16.838  0.00  0.00    +0.000 F 
ATOM     25  C   UNL     1      -1.707  10.748  18.749  0.00  0.00    +0.000 A 
BRANCH  25  26
ATOM     26  C   UNL     1      -0.439  10.029  18.962  0.00  0.00    +0.000 A 
ATOM     27  N   UNL     1      -0.164   9.512  20.173  0.00  0.00    +0.000 NA
ATOM     28  C   UNL     1       0.992   8.826  20.279  0.00  0.00    +0.000 A 
ATOM     29  C   UNL     1       1.927   8.735  19.277  0.00  0.00    +0.000 A 
ATOM     30  C   UNL     1       1.594   9.362  18.105  0.00  0.00    +0.000 A 
ATOM     31  N   UNL     1       0.417   9.984  17.914  0.00  0.00    +0.000 NA
ENDBRANCH  25  26
ENDBRANCH  14  19
TORSDOF 2
ENDMDL
MODEL 7
REMARK VINA RESULT:      -6.7      3.600      5.892
REMARK  Name = 
REMARK  4 active torsions:
REMARK  status: ('A' for Active; 'I' for Inactive)
REMARK    1  A    between atoms: C_1  and  C_2
REMARK    2  A    between atoms: C_4  and  C_5
REMARK    3  A    between atoms: C_14  and  C_16
REMARK    4  A    between atoms: C_22  and  C_23
REMARK                            x       y       z     vdW  Elec       q    Type
REMARK                         _______ _______ _______ _____ _____    ______ ____
ROOT
ATOM      1  C   UNL     1       5.430  13.550  23.008  0.00  0.00    +0.000 C 
ATOM      2  C   UNL     1       5.733  14.520  21.900  0.00  0.00    +0.000 A 
ATOM      3  C   UNL     1       6.776  15.405  21.984  0.00  0.00    +0.000 A 
ATOM      4  C   UNL     1       6.856  16.350  20.978  0.00  0.00    +0.000 A 
ATOM      5  C   UNL     1       7.958  17.360  20.950  0.00  0.00    +0.000 C 
ATOM      6  N   UNL     1       5.944  16.441  19.991  0.00  0.00    +0.000 NA
ATOM      7  C   UNL     1       4.952  15.547  19.991  0.00  0.00    +0.000 A 
ATOM      8  N   UNL     1       3.849  15.763  19.179  0.00  0.00    +0.000 N 
ATOM      9  C   UNL     1       3.522  16.931  18.432  0.00  0.00    +0.000 C 
ATOM     10  C   UNL     1       2.371  16.087  17.823  0.00  0.00    +0.000 C 
ATOM     11  C   UNL     1       1.047  16.156  18.602  0.00  0.00    +0.000 C 
ATOM     12  C   UNL     1       0.495  14.743  18.830  0.00  0.00    +0.000 C 
ATOM     13  N   UNL     1       1.494  13.931  19.542  0.00  0.00    +0.000 N 
ATOM     14  C   UNL     1       1.542  13.568  20.906  0.00  0.00    +0.000 C 
ATOM     15  O   UNL     1       2.515  13.001  21.399  0.00  0.00    +0.000 OA
ATOM     16  C   UNL     1       2.652  13.598  18.715  0.00  0.00    +0.000 C 
ATOM     17  C   UNL     1       3.287  14.882  18.194  0.00  0.00    +0.000 C 
ATOM     18  N   UNL     1       4.864  14.548  20.878  0.00  0.00    +0.000 NA
ENDROOT
BRANCH  14  19
ATOM     19  C   UNL     1       0.396  13.840  21.828  0.00  0.00    +0.000 A 
ATOM     20  C   UNL     1       0.257  15.140  22.354  0.00  0.00    +0.000 A 
ATOM     21  C   UNL     1      -0.838  15.514  23.124  0.00  0.00    +0.000 A 
ATOM     22  C   UNL     1      -1.767  14.553  23.471  0.00  0.00    +0.000 A 
ATOM     23  C   UNL     1      -1.572  13.231  23.075  0.00  0.00    +0.000 A 
ATOM     24  F   UNL     1      -2.492  12.345  23.490  0.00  0.00    +0.000 F 
ATOM     25  C   UNL     1      -0.491  12.822  22.263  0.00  0.00    +0.000 A 
BRANCH  25  26
ATOM     26  C   UNL     1      -0.355  11.384  21.975  0.00  0.00    +0.000 A 
ATOM     27  N   UNL     1      -0.601  10.930  20.734  0.00  0.00    +0.000 NA
ATOM     28  C   UNL     1      -0.410   9.609  20.533  0.00  0.00    +0.000 A 
ATOM     29  C   UNL     1      -0.103   8.717  21.531  0.00  0.00    +0.000 A 
ATOM     30  C   UNL     1       0.049   9.262  22.779  0.00  0.00    +0.000 A 
ATOM     31  N   UNL     1      -0.042  10.582  23.020  0.00  0.00    +0.000 NA
ENDBRANCH  25  26
ENDBRANCH  14  19
TORSDOF 2
ENDMDL
MODEL 8
REMARK VINA RESULT:      -6.6      7.979     11.035
REMARK  Name = 
REMARK  4 active torsions:
REMARK  status: ('A' for Active; 'I' for Inactive)
REMARK    1  A    between atoms: C_1  and  C_2
REMARK    2  A    between atoms: C_4  and  C_5
REMARK    3  A    between atoms: C_14  and  C_16
REMARK    4  A    between atoms: C_22  and  C_23
REMARK                            x       y       z     vdW  Elec       q    Type
REMARK                         _______ _______ _______ _____ _____    ______ ____
ROOT
ATOM      1  C   UNL     1       7.765  12.524  17.234  0.00  0.00    +0.000 C 
ATOM      2  C   UNL     1       9.092  12.930  17.812  0.00  0.00    +0.000 A 
ATOM      3  C   UNL     1      10.076  12.011  18.070  0.00  0.00    +0.000 A 
ATOM      4  C   UNL     1      11.185  12.481  18.747  0.00  0.00    +0.000 A 
ATOM      5  C   UNL     1      12.333  11.579  19.074  0.00  0.00    +0.000 C 
ATOM      6  N   UNL     1      11.291  13.753  19.177  0.00  0.00    +0.000 NA
ATOM      7  C   UNL     1      10.282  14.580  18.894  0.00  0.00    +0.000 A 
ATOM      8  N   UNL     1      10.208  15.803  19.544  0.00  0.00    +0.000 N 
ATOM      9  C   UNL     1      10.992  16.266  20.640  0.00  0.00    +0.000 C 
ATOM     10  C   UNL     1      10.298  17.635  20.418  0.00  0.00    +0.000 C 
ATOM     11  C   UNL     1       8.993  17.826  21.208  0.00  0.00    +0.000 C 
ATOM     12  C   UNL     1       7.887  18.349  20.281  0.00  0.00    +0.000 C 
ATOM     13  N   UNL     1       7.702  17.417  19.158  0.00  0.00    +0.000 N 
ATOM     14  C   UNL     1       6.692  16.450  18.957  0.00  0.00    +0.000 C 
ATOM     15  O   UNL     1       6.739  15.637  18.037  0.00  0.00    +0.000 OA
ATOM     16  C   UNL     1       8.819  17.430  18.217  0.00  0.00    +0.000 C 
ATOM     17  C   UNL     1      10.111  17.113  18.962  0.00  0.00    +0.000 C 
ATOM     18  N   UNL     1       9.220  14.219  18.163  0.00  0.00    +0.000 NA
ENDROOT
BRANCH  14  19
ATOM     19  C   UNL     1       5.494  16.373  19.849  0.00  0.00    +0.000 A 
ATOM     20  C   UNL     1       4.348  17.112  19.491  0.00  0.00    +0.000 A 
ATOM     21  C   UNL     1       3.153  17.011  20.193  0.00  0.00    +0.000 A 
ATOM     22  C   UNL     1       3.117  16.242  21.340  0.00  0.00    +0.000 A 
ATOM     23  C   UNL     1       4.279  15.615  21.785  0.00  0.00    +0.000 A 
ATOM     24  F   UNL     1       4.179  14.923  22.932  0.00  0.00    +0.000 F 
ATOM     25  C   UNL     1       5.502  15.666  21.078  0.00  0.00    +0.000 A 
BRANCH  25  26
ATOM     26  C   UNL     1       6.676  15.023  21.692  0.00  0.00    +0.000 A 
ATOM     27  N   UNL     1       7.208  13.928  21.120  0.00  0.00    +0.000 NA
ATOM     28  C   UNL     1       8.311  13.423  21.710  0.00  0.00    +0.000 A 
ATOM     29  C   UNL     1       8.828  13.885  22.896  0.00  0.00    +0.000 A 
ATOM     30  C   UNL     1       8.170  14.954  23.446  0.00  0.00    +0.000 A 
ATOM     31  N   UNL     1       7.121  15.553  22.855  0.00  0.00    +0.000 NA
ENDBRANCH  25  26
ENDBRANCH  14  19
TORSDOF 2
ENDMDL
MODEL 9
REMARK VINA RESULT:      -6.5      7.477     11.760
REMARK  Name = 
REMARK  4 active torsions:
REMARK  status: ('A' for Active; 'I' for Inactive)
REMARK    1  A    between atoms: C_1  and  C_2
REMARK    2  A    between atoms: C_4  and  C_5
REMARK    3  A    between atoms: C_14  and  C_16
REMARK    4  A    between atoms: C_22  and  C_23
REMARK                            x       y       z     vdW  Elec       q    Type
REMARK                         _______ _______ _______ _____ _____    ______ ____
ROOT
ATOM      1  C   UNL     1       3.966  14.436  17.779  0.00  0.00    +0.000 C 
ATOM      2  C   UNL     1       3.632  15.543  18.739  0.00  0.00    +0.000 A 
ATOM      3  C   UNL     1       2.516  16.323  18.578  0.00  0.00    +0.000 A 
ATOM      4  C   UNL     1       2.401  17.405  19.429  0.00  0.00    +0.000 A 
ATOM      5  C   UNL     1       1.221  18.322  19.362  0.00  0.00    +0.000 C 
ATOM      6  N   UNL     1       3.343  17.718  20.339  0.00  0.00    +0.000 NA
ATOM      7  C   UNL     1       4.404  16.913  20.423  0.00  0.00    +0.000 A 
ATOM      8  N   UNL     1       5.519  17.337  21.131  0.00  0.00    +0.000 N 
ATOM      9  C   UNL     1       5.780  18.628  21.672  0.00  0.00    +0.000 C 
ATOM     10  C   UNL     1       7.021  17.980  22.339  0.00  0.00    +0.000 C 
ATOM     11  C   UNL     1       8.300  18.024  21.488  0.00  0.00    +0.000 C 
ATOM     12  C   UNL     1       8.957  16.638  21.451  0.00  0.00    +0.000 C 
ATOM     13  N   UNL     1       7.999  15.652  20.927  0.00  0.00    +0.000 N 
ATOM     14  C   UNL     1       7.925  15.076  19.639  0.00  0.00    +0.000 C 
ATOM     15  O   UNL     1       6.982  14.368  19.293  0.00  0.00    +0.000 OA
ATOM     16  C   UNL     1       6.909  15.367  21.856  0.00  0.00    +0.000 C 
ATOM     17  C   UNL     1       6.193  16.666  22.208  0.00  0.00    +0.000 C 
ATOM     18  N   UNL     1       4.538  15.797  19.697  0.00  0.00    +0.000 NA
ENDROOT
BRANCH  14  19
ATOM     19  C   UNL     1       9.004  15.284  18.625  0.00  0.00    +0.000 A 
ATOM     20  C   UNL     1       9.107  16.548  18.010  0.00  0.00    +0.000 A 
ATOM     21  C   UNL     1      10.146  16.869  17.145  0.00  0.00    +0.000 A 
ATOM     22  C   UNL     1      11.050  15.884  16.797  0.00  0.00    +0.000 A 
ATOM     23  C   UNL     1      10.883  14.591  17.288  0.00  0.00    +0.000 A 
ATOM     24  F   UNL     1      11.774  13.676  16.868  0.00  0.00    +0.000 F 
ATOM     25  C   UNL     1       9.861  14.238  18.197  0.00  0.00    +0.000 A 
BRANCH  25  26
ATOM     26  C   UNL     1       9.746  12.821  18.584  0.00  0.00    +0.000 A 
ATOM     27  N   UNL     1       9.031  11.980  17.816  0.00  0.00    +0.000 NA
ATOM     28  C   UNL     1       9.011  10.688  18.207  0.00  0.00    +0.000 A 
ATOM     29  C   UNL     1       9.565  10.231  19.377  0.00  0.00    +0.000 A 
ATOM     30  C   UNL     1      10.204  11.179  20.134  0.00  0.00    +0.000 A 
ATOM     31  N   UNL     1      10.332  12.461  19.750  0.00  0.00    +0.000 NA
ENDBRANCH  25  26
ENDBRANCH  14  19
TORSDOF 2
ENDMDL
