MODEL 1
REMARK VINA RESULT:      -8.7      0.000      0.000
REMARK  Name = 
REMARK  5 active torsions:
REMARK  status: ('A' for Active; 'I' for Inactive)
REMARK    1  A    between atoms: C_1  and  C_2
REMARK    2  A    between atoms: C_4  and  C_5
REMARK    3  A    between atoms: N_7  and  C_8
REMARK    4  A    between atoms: C_11  and  N_12
REMARK    5  A    between atoms: N_19  and  C_20
REMARK                            x       y       z     vdW  Elec       q    Type
REMARK                         _______ _______ _______ _____ _____    ______ ____
ROOT
ATOM      1  C   UNL     1       6.108   3.346  14.543  0.00  0.00    +0.000 C 
ATOM      2  C   UNL     1       6.111   4.423  15.563  0.00  0.00    +0.000 A 
ATOM      3  C   UNL     1       7.085   5.422  15.790  0.00  0.00    +0.000 A 
ATOM      4  C   UNL     1       6.625   6.124  16.880  0.00  0.00    +0.000 A 
ATOM      5  N   UNL     1       5.353   5.628  17.140  0.00  0.00    +0.000 N 
ATOM      6  N   UNL     1       5.116   4.494  16.441  0.00  0.00    +0.000 NA
ENDROOT
BRANCH   5   7
ATOM      7  C   UNL     1       4.308   6.190  17.913  0.00  0.00    +0.000 A 
ATOM      8  C   UNL     1       3.861   5.526  19.058  0.00  0.00    +0.000 A 
ATOM      9  C   UNL     1       2.930   6.150  19.889  0.00  0.00    +0.000 A 
ATOM     10  C   UNL     1       2.383   7.394  19.535  0.00  0.00    +0.000 A 
ATOM     11  C   UNL     1       1.604   8.143  20.427  0.00  0.00    +0.000 A 
ATOM     12  C   UNL     1       1.101   9.382  20.034  0.00  0.00    +0.000 A 
ATOM     13 CL   UNL     1       0.545  10.494  21.225  0.00  0.00    +0.000 Cl
ATOM     14  C   UNL     1       1.176   9.792  18.708  0.00  0.00    +0.000 A 
ATOM     15  C   UNL     1       1.992   9.086  17.830  0.00  0.00    +0.000 A 
ATOM     16  C   UNL     1       2.684   7.951  18.273  0.00  0.00    +0.000 A 
ATOM     17  C   UNL     1       3.702   7.382  17.502  0.00  0.00    +0.000 A 
ENDBRANCH   5   7
BRANCH   4  18
ATOM     18  C   UNL     1       7.276   7.067  17.743  0.00  0.00    +0.000 C 
ATOM     19  O   UNL     1       7.670   6.718  18.853  0.00  0.00    +0.000 OA
ATOM     20  N   UNL     1       7.403   8.363  17.257  0.00  0.00    +0.000 N 
ATOM     21  H   UNL     1       6.876   8.589  16.427  0.00  0.00    +0.000 HD
BRANCH  20  22
ATOM     22  C   UNL     1       8.071   9.433  17.901  0.00  0.00    +0.000 A 
ATOM     23  C   UNL     1       8.826   9.270  19.068  0.00  0.00    +0.000 A 
ATOM     24  C   UNL     1       9.463  10.358  19.678  0.00  0.00    +0.000 A 
ATOM     25  C   UNL     1       9.355  11.634  19.123  0.00  0.00    +0.000 A 
ATOM     26  C   UNL     1       8.615  11.813  17.947  0.00  0.00    +0.000 A 
ATOM     27  C   UNL     1       7.992  10.711  17.334  0.00  0.00    +0.000 A 
BRANCH  25  28
ATOM     28  N   UNL     1      10.001  12.727  19.759  0.00  0.00    +0.000 N 
ATOM     29  N   UNL     1      11.085  13.340  19.204  0.00  0.00    +0.000 NA
ATOM     30  C   UNL     1      11.359  14.295  20.094  0.00  0.00    +0.000 A 
ATOM     31  C   UNL     1      10.456  14.223  21.157  0.00  0.00    +0.000 A 
ATOM     32  N   UNL     1       9.581  13.235  20.951  0.00  0.00    +0.000 NA
ENDBRANCH  25  28
ENDBRANCH  20  22
ENDBRANCH   4  18
TORSDOF 4
ENDMDL
MODEL 2
REMARK VINA RESULT:      -8.1      4.958      7.197
REMARK  Name = 
REMARK  5 active torsions:
REMARK  status: ('A' for Active; 'I' for Inactive)
REMARK    1  A    between atoms: C_1  and  C_2
REMARK    2  A    between atoms: C_4  and  C_5
REMARK    3  A    between atoms: N_7  and  C_8
REMARK    4  A    between atoms: C_11  and  N_12
REMARK    5  A    between atoms: N_19  and  C_20
REMARK                            x       y       z     vdW  Elec       q    Type
REMARK                         _______ _______ _______ _____ _____    ______ ____
ROOT
ATOM      1  C   UNL     1      -3.627  12.868  20.271  0.00  0.00    +0.000 C 
ATOM      2  C   UNL     1      -2.161  12.641  20.312  0.00  0.00    +0.000 A 
ATOM      3  C   UNL     1      -1.141  13.534  20.713  0.00  0.00    +0.000 A 
ATOM      4  C   UNL     1       0.033  12.845  20.509  0.00  0.00    +0.000 A 
ATOM      5  N   UNL     1      -0.343  11.553  20.163  0.00  0.00    +0.000 N 
ATOM      6  N   UNL     1      -1.666  11.482  19.892  0.00  0.00    +0.000 NA
ENDROOT
BRANCH   5   7
ATOM      7  C   UNL     1       0.422  10.361  20.167  0.00  0.00    +0.000 A 
ATOM      8  C   UNL     1       0.585   9.648  21.357  0.00  0.00    +0.000 A 
ATOM      9  C   UNL     1       1.221   8.406  21.327  0.00  0.00    +0.000 A 
ATOM     10  C   UNL     1       1.767   7.917  20.129  0.00  0.00    +0.000 A 
ATOM     11  C   UNL     1       2.234   6.601  20.009  0.00  0.00    +0.000 A 
ATOM     12  C   UNL     1       2.749   6.157  18.793  0.00  0.00    +0.000 A 
ATOM     13 CL   UNL     1       2.900   4.469  18.494  0.00  0.00    +0.000 Cl
ATOM     14  C   UNL     1       3.008   7.053  17.762  0.00  0.00    +0.000 A 
ATOM     15  C   UNL     1       2.500   8.345  17.848  0.00  0.00    +0.000 A 
ATOM     16  C   UNL     1       1.783   8.743  18.985  0.00  0.00    +0.000 A 
ATOM     17  C   UNL     1       1.044   9.930  18.990  0.00  0.00    +0.000 A 
ENDBRANCH   5   7
BRANCH   4  18
ATOM     18  C   UNL     1       1.397  13.287  20.472  0.00  0.00    +0.000 C 
ATOM     19  O   UNL     1       2.206  12.860  21.292  0.00  0.00    +0.000 OA
ATOM     20  N   UNL     1       1.717  14.217  19.490  0.00  0.00    +0.000 N 
ATOM     21  H   UNL     1       0.945  14.645  19.002  0.00  0.00    +0.000 HD
BRANCH  20  22
ATOM     22  C   UNL     1       3.009  14.735  19.223  0.00  0.00    +0.000 A 
ATOM     23  C   UNL     1       3.799  14.301  18.152  0.00  0.00    +0.000 A 
ATOM     24  C   UNL     1       5.074  14.833  17.930  0.00  0.00    +0.000 A 
ATOM     25  C   UNL     1       5.580  15.817  18.780  0.00  0.00    +0.000 A 
ATOM     26  C   UNL     1       4.797  16.274  19.847  0.00  0.00    +0.000 A 
ATOM     27  C   UNL     1       3.511  15.744  20.054  0.00  0.00    +0.000 A 
BRANCH  25  28
ATOM     28  N   UNL     1       6.879  16.342  18.543  0.00  0.00    +0.000 N 
ATOM     29  N   UNL     1       7.918  15.544  18.166  0.00  0.00    +0.000 NA
ATOM     30  C   UNL     1       8.917  16.417  18.040  0.00  0.00    +0.000 A 
ATOM     31  C   UNL     1       8.467  17.700  18.356  0.00  0.00    +0.000 A 
ATOM     32  N   UNL     1       7.169  17.667  18.669  0.00  0.00    +0.000 NA
ENDBRANCH  25  28
ENDBRANCH  20  22
ENDBRANCH   4  18
TORSDOF 4
ENDMDL
MODEL 3
REMARK VINA RESULT:      -8.0      5.862      9.601
REMARK  Name = 
REMARK  5 active torsions:
REMARK  status: ('A' for Active; 'I' for Inactive)
REMARK    1  A    between atoms: C_1  and  C_2
REMARK    2  A    between atoms: C_4  and  C_5
REMARK    3  A    between atoms: N_7  and  C_8
REMARK    4  A    between atoms: C_11  and  N_12
REMARK    5  A    between atoms: N_19  and  C_20
REMARK                            x       y       z     vdW  Elec       q    Type
REMARK                         _______ _______ _______ _____ _____    ______ ____
ROOT
ATOM      1  C   UNL     1       2.134  15.174  18.597  0.00  0.00    +0.000 C 
ATOM      2  C   UNL     1       1.392  13.900  18.760  0.00  0.00    +0.000 A 
ATOM      3  C   UNL     1       1.828  12.694  19.356  0.00  0.00    +0.000 A 
ATOM      4  C   UNL     1       0.776  11.820  19.197  0.00  0.00    +0.000 A 
ATOM      5  N   UNL     1      -0.268  12.576  18.677  0.00  0.00    +0.000 N 
ATOM      6  N   UNL     1       0.162  13.792  18.268  0.00  0.00    +0.000 NA
ENDROOT
BRANCH   5   7
ATOM      7  C   UNL     1      -1.652  12.285  18.628  0.00  0.00    +0.000 A 
ATOM      8  C   UNL     1      -2.194  11.690  17.487  0.00  0.00    +0.000 A 
ATOM      9  C   UNL     1      -3.528  11.281  17.497  0.00  0.00    +0.000 A 
ATOM     10  C   UNL     1      -4.342  11.539  18.613  0.00  0.00    +0.000 A 
ATOM     11  C   UNL     1      -5.617  10.976  18.748  0.00  0.00    +0.000 A 
ATOM     12  C   UNL     1      -6.378  11.249  19.884  0.00  0.00    +0.000 A 
ATOM     13 CL   UNL     1      -7.715  10.239  20.279  0.00  0.00    +0.000 Cl
ATOM     14  C   UNL     1      -5.986  12.235  20.781  0.00  0.00    +0.000 A 
ATOM     15  C   UNL     1      -4.701  12.759  20.688  0.00  0.00    +0.000 A 
ATOM     16  C   UNL     1      -3.839  12.329  19.670  0.00  0.00    +0.000 A 
ATOM     17  C   UNL     1      -2.475  12.633  19.705  0.00  0.00    +0.000 A 
ENDBRANCH   5   7
BRANCH   4  18
ATOM     18  C   UNL     1       0.698  10.396  19.345  0.00  0.00    +0.000 C 
ATOM     19  O   UNL     1      -0.353   9.870  19.705  0.00  0.00    +0.000 OA
ATOM     20  N   UNL     1       1.862   9.684  19.082  0.00  0.00    +0.000 N 
ATOM     21  H   UNL     1       2.711  10.221  18.988  0.00  0.00    +0.000 HD
BRANCH  20  22
ATOM     22  C   UNL     1       1.997   8.273  19.094  0.00  0.00    +0.000 A 
ATOM     23  C   UNL     1       2.280   7.524  17.946  0.00  0.00    +0.000 A 
ATOM     24  C   UNL     1       2.395   6.130  18.000  0.00  0.00    +0.000 A 
ATOM     25  C   UNL     1       2.230   5.460  19.213  0.00  0.00    +0.000 A 
ATOM     26  C   UNL     1       1.961   6.195  20.375  0.00  0.00    +0.000 A 
ATOM     27  C   UNL     1       1.862   7.597  20.313  0.00  0.00    +0.000 A 
BRANCH  25  28
ATOM     28  N   UNL     1       2.344   4.045  19.249  0.00  0.00    +0.000 N 
ATOM     29  N   UNL     1       3.331   3.421  19.953  0.00  0.00    +0.000 NA
ATOM     30  C   UNL     1       3.067   2.133  19.734  0.00  0.00    +0.000 A 
ATOM     31  C   UNL     1       1.952   2.013  18.901  0.00  0.00    +0.000 A 
ATOM     32  N   UNL     1       1.478   3.223  18.593  0.00  0.00    +0.000 NA
ENDBRANCH  25  28
ENDBRANCH  20  22
ENDBRANCH   4  18
TORSDOF 4
ENDMDL
MODEL 4
REMARK VINA RESULT:      -7.9      4.568      6.634
REMARK  Name = 
REMARK  5 active torsions:
REMARK  status: ('A' for Active; 'I' for Inactive)
REMARK    1  A    between atoms: C_1  and  C_2
REMARK    2  A    between atoms: C_4  and  C_5
REMARK    3  A    between atoms: N_7  and  C_8
REMARK    4  A    between atoms: C_11  and  N_12
REMARK    5  A    between atoms: N_19  and  C_20
REMARK                            x       y       z     vdW  Elec       q    Type
REMARK                         _______ _______ _______ _____ _____    ______ ____
ROOT
ATOM      1  C   UNL     1      -3.310  11.231  17.206  0.00  0.00    +0.000 C 
ATOM      2  C   UNL     1      -1.971  11.261  17.843  0.00  0.00    +0.000 A 
ATOM      3  C   UNL     1      -1.363  12.311  18.571  0.00  0.00    +0.000 A 
ATOM      4  C   UNL     1      -0.111  11.839  18.892  0.00  0.00    +0.000 A 
ATOM      5  N   UNL     1      -0.095  10.507  18.496  0.00  0.00    +0.000 N 
ATOM      6  N   UNL     1      -1.164  10.213  17.721  0.00  0.00    +0.000 NA
ENDROOT
BRANCH   5   7
ATOM      7  C   UNL     1       0.788   9.467  18.871  0.00  0.00    +0.000 A 
ATOM      8  C   UNL     1       0.773   8.985  20.182  0.00  0.00    +0.000 A 
ATOM      9  C   UNL     1       1.545   7.870  20.510  0.00  0.00    +0.000 A 
ATOM     10  C   UNL     1       2.395   7.289  19.554  0.00  0.00    +0.000 A 
ATOM     11  C   UNL     1       3.032   6.061  19.776  0.00  0.00    +0.000 A 
ATOM     12  C   UNL     1       3.850   5.517  18.787  0.00  0.00    +0.000 A 
ATOM     13 CL   UNL     1       4.265   3.847  18.845  0.00  0.00    +0.000 Cl
ATOM     14  C   UNL     1       4.218   6.268  17.676  0.00  0.00    +0.000 A 
ATOM     15  C   UNL     1       3.551   7.461  17.419  0.00  0.00    +0.000 A 
ATOM     16  C   UNL     1       2.561   7.916  18.300  0.00  0.00    +0.000 A 
ATOM     17  C   UNL     1       1.700   8.958  17.940  0.00  0.00    +0.000 A 
ENDBRANCH   5   7
BRANCH   4  18
ATOM     18  C   UNL     1       1.058  12.512  19.382  0.00  0.00    +0.000 C 
ATOM     19  O   UNL     1       1.479  12.274  20.511  0.00  0.00    +0.000 OA
ATOM     20  N   UNL     1       1.643  13.434  18.523  0.00  0.00    +0.000 N 
ATOM     21  H   UNL     1       1.110  13.696  17.707  0.00  0.00    +0.000 HD
BRANCH  20  22
ATOM     22  C   UNL     1       2.837  14.158  18.765  0.00  0.00    +0.000 A 
ATOM     23  C   UNL     1       2.994  15.033  19.846  0.00  0.00    +0.000 A 
ATOM     24  C   UNL     1       4.189  15.736  20.042  0.00  0.00    +0.000 A 
ATOM     25  C   UNL     1       5.253  15.569  19.155  0.00  0.00    +0.000 A 
ATOM     26  C   UNL     1       5.119  14.686  18.076  0.00  0.00    +0.000 A 
ATOM     27  C   UNL     1       3.920  13.973  17.896  0.00  0.00    +0.000 A 
BRANCH  25  28
ATOM     28  N   UNL     1       6.455  16.295  19.366  0.00  0.00    +0.000 N 
ATOM     29  N   UNL     1       6.741  17.430  18.666  0.00  0.00    +0.000 NA
ATOM     30  C   UNL     1       7.922  17.787  19.172  0.00  0.00    +0.000 A 
ATOM     31  C   UNL     1       8.321  16.862  20.139  0.00  0.00    +0.000 A 
ATOM     32  N   UNL     1       7.392  15.913  20.278  0.00  0.00    +0.000 NA
ENDBRANCH  25  28
ENDBRANCH  20  22
ENDBRANCH   4  18
TORSDOF 4
ENDMDL
MODEL 5
REMARK VINA RESULT:      -7.8      5.701      9.724
REMARK  Name = 
REMARK  5 active torsions:
REMARK  status: ('A' for Active; 'I' for Inactive)
REMARK    1  A    between atoms: C_1  and  C_2
REMARK    2  A    between atoms: C_4  and  C_5
REMARK    3  A    between atoms: N_7  and  C_8
REMARK    4  A    between atoms: C_11  and  N_12
REMARK    5  A    between atoms: N_19  and  C_20
REMARK                            x       y       z     vdW  Elec       q    Type
REMARK                         _______ _______ _______ _____ _____    ______ ____
ROOT
ATOM      1  C   UNL     1      -2.546  14.973  23.824  0.00  0.00    +0.000 C 
ATOM      2  C   UNL     1      -2.064  13.987  22.825  0.00  0.00    +0.000 A 
ATOM      3  C   UNL     1      -0.969  13.097  22.920  0.00  0.00    +0.000 A 
ATOM      4  C   UNL     1      -0.934  12.450  21.705  0.00  0.00    +0.000 A 
ATOM      5  N   UNL     1      -2.078  12.855  21.028  0.00  0.00    +0.000 N 
ATOM      6  N   UNL     1      -2.670  13.903  21.645  0.00  0.00    +0.000 NA
ENDROOT
BRANCH   5   7
ATOM      7  C   UNL     1      -2.713  12.271  19.905  0.00  0.00    +0.000 A 
ATOM      8  C   UNL     1      -4.084  12.453  19.714  0.00  0.00    +0.000 A 
ATOM      9  C   UNL     1      -4.677  11.993  18.537  0.00  0.00    +0.000 A 
ATOM     10  C   UNL     1      -3.921  11.279  17.593  0.00  0.00    +0.000 A 
ATOM     11  C   UNL     1      -4.420  10.975  16.320  0.00  0.00    +0.000 A 
ATOM     12  C   UNL     1      -3.622  10.281  15.412  0.00  0.00    +0.000 A 
ATOM     13 CL   UNL     1      -4.024  10.295  13.738  0.00  0.00    +0.000 Cl
ATOM     14  C   UNL     1      -2.427   9.699  15.816  0.00  0.00    +0.000 A 
ATOM     15  C   UNL     1      -1.897  10.040  17.056  0.00  0.00    +0.000 A 
ATOM     16  C   UNL     1      -2.591  10.918  17.899  0.00  0.00    +0.000 A 
ATOM     17  C   UNL     1      -1.972  11.480  19.020  0.00  0.00    +0.000 A 
ENDBRANCH   5   7
BRANCH   4  18
ATOM     18  C   UNL     1       0.080  11.641  21.093  0.00  0.00    +0.000 C 
ATOM     19  O   UNL     1       1.136  12.149  20.725  0.00  0.00    +0.000 OA
ATOM     20  N   UNL     1      -0.221  10.294  20.932  0.00  0.00    +0.000 N 
ATOM     21  H   UNL     1      -1.180  10.021  21.084  0.00  0.00    +0.000 HD
BRANCH  20  22
ATOM     22  C   UNL     1       0.652   9.300  20.422  0.00  0.00    +0.000 A 
ATOM     23  C   UNL     1       1.069   8.193  21.170  0.00  0.00    +0.000 A 
ATOM     24  C   UNL     1       1.940   7.240  20.630  0.00  0.00    +0.000 A 
ATOM     25  C   UNL     1       2.408   7.379  19.323  0.00  0.00    +0.000 A 
ATOM     26  C   UNL     1       1.989   8.473  18.555  0.00  0.00    +0.000 A 
ATOM     27  C   UNL     1       1.102   9.418  19.101  0.00  0.00    +0.000 A 
BRANCH  25  28
ATOM     28  N   UNL     1       3.296   6.406  18.794  0.00  0.00    +0.000 N 
ATOM     29  N   UNL     1       3.536   5.228  19.436  0.00  0.00    +0.000 NA
ATOM     30  C   UNL     1       4.391   4.622  18.611  0.00  0.00    +0.000 A 
ATOM     31  C   UNL     1       4.655   5.446  17.515  0.00  0.00    +0.000 A 
ATOM     32  N   UNL     1       3.957   6.581  17.615  0.00  0.00    +0.000 NA
ENDBRANCH  25  28
ENDBRANCH  20  22
ENDBRANCH   4  18
TORSDOF 4
ENDMDL
MODEL 6
REMARK VINA RESULT:      -7.8      5.629      9.410
REMARK  Name = 
REMARK  5 active torsions:
REMARK  status: ('A' for Active; 'I' for Inactive)
REMARK    1  A    between atoms: C_1  and  C_2
REMARK    2  A    between atoms: C_4  and  C_5
REMARK    3  A    between atoms: N_7  and  C_8
REMARK    4  A    between atoms: C_11  and  N_12
REMARK    5  A    between atoms: N_19  and  C_20
REMARK                            x       y       z     vdW  Elec       q    Type
REMARK                         _______ _______ _______ _____ _____    ______ ____
ROOT
ATOM      1  C   UNL     1       2.863  15.199  17.920  0.00  0.00    +0.000 C 
ATOM      2  C   UNL     1       2.158  13.970  18.360  0.00  0.00    +0.000 A 
ATOM      3  C   UNL     1       2.564  12.622  18.225  0.00  0.00    +0.000 A 
ATOM      4  C   UNL     1       1.527  11.886  18.751  0.00  0.00    +0.000 A 
ATOM      5  N   UNL     1       0.652  12.810  19.309  0.00  0.00    +0.000 N 
ATOM      6  N   UNL     1       0.961  14.071  18.928  0.00  0.00    +0.000 NA
ENDROOT
BRANCH   5   7
ATOM      7  C   UNL     1      -0.386  12.611  20.250  0.00  0.00    +0.000 A 
ATOM      8  C   UNL     1      -0.076  12.182  21.542  0.00  0.00    +0.000 A 
ATOM      9  C   UNL     1      -1.086  12.121  22.503  0.00  0.00    +0.000 A 
ATOM     10  C   UNL     1      -2.416  12.407  22.154  0.00  0.00    +0.000 A 
ATOM     11  C   UNL     1      -3.422  12.552  23.120  0.00  0.00    +0.000 A 
ATOM     12  C   UNL     1      -4.723  12.856  22.723  0.00  0.00    +0.000 A 
ATOM     13 CL   UNL     1      -5.844  13.473  23.874  0.00  0.00    +0.000 Cl
ATOM     14  C   UNL     1      -5.088  12.806  21.383  0.00  0.00    +0.000 A 
ATOM     15  C   UNL     1      -4.091  12.718  20.416  0.00  0.00    +0.000 A 
ATOM     16  C   UNL     1      -2.746  12.631  20.800  0.00  0.00    +0.000 A 
ATOM     17  C   UNL     1      -1.718  12.806  19.868  0.00  0.00    +0.000 A 
ENDBRANCH   5   7
BRANCH   4  18
ATOM     18  C   UNL     1       1.221  10.487  18.666  0.00  0.00    +0.000 C 
ATOM     19  O   UNL     1       0.182  10.115  18.126  0.00  0.00    +0.000 OA
ATOM     20  N   UNL     1       2.142   9.619  19.240  0.00  0.00    +0.000 N 
ATOM     21  H   UNL     1       2.852  10.033  19.825  0.00  0.00    +0.000 HD
BRANCH  20  22
ATOM     22  C   UNL     1       2.082   8.203  19.212  0.00  0.00    +0.000 A 
ATOM     23  C   UNL     1       1.829   7.427  20.348  0.00  0.00    +0.000 A 
ATOM     24  C   UNL     1       1.788   6.029  20.277  0.00  0.00    +0.000 A 
ATOM     25  C   UNL     1       2.000   5.383  19.058  0.00  0.00    +0.000 A 
ATOM     26  C   UNL     1       2.241   6.146  17.908  0.00  0.00    +0.000 A 
ATOM     27  C   UNL     1       2.264   7.550  17.987  0.00  0.00    +0.000 A 
BRANCH  25  28
ATOM     28  N   UNL     1       1.962   3.965  19.006  0.00  0.00    +0.000 N 
ATOM     29  N   UNL     1       1.806   3.294  17.829  0.00  0.00    +0.000 NA
ATOM     30  C   UNL     1       1.841   2.020  18.221  0.00  0.00    +0.000 A 
ATOM     31  C   UNL     1       1.997   1.955  19.607  0.00  0.00    +0.000 A 
ATOM     32  N   UNL     1       2.084   3.186  20.117  0.00  0.00    +0.000 NA
ENDBRANCH  25  28
ENDBRANCH  20  22
ENDBRANCH   4  18
TORSDOF 4
ENDMDL
MODEL 7
REMARK VINA RESULT:      -7.8      4.602      6.783
REMARK  Name = 
REMARK  5 active torsions:
REMARK  status: ('A' for Active; 'I' for Inactive)
REMARK    1  A    between atoms: C_1  and  C_2
REMARK    2  A    between atoms: C_4  and  C_5
REMARK    3  A    between atoms: N_7  and  C_8
REMARK    4  A    between atoms: C_11  and  N_12
REMARK    5  A    between atoms: N_19  and  C_20
REMARK                            x       y       z     vdW  Elec       q    Type
REMARK                         _______ _______ _______ _____ _____    ______ ____
ROOT
ATOM      1  C   UNL     1      -3.747  11.691  18.512  0.00  0.00    +0.000 C 
ATOM      2  C   UNL     1      -2.334  11.644  18.959  0.00  0.00    +0.000 A 
ATOM      3  C   UNL     1      -1.596  12.626  19.660  0.00  0.00    +0.000 A 
ATOM      4  C   UNL     1      -0.329  12.101  19.776  0.00  0.00    +0.000 A 
ATOM      5  N   UNL     1      -0.414  10.799  19.299  0.00  0.00    +0.000 N 
ATOM      6  N   UNL     1      -1.588  10.585  18.662  0.00  0.00    +0.000 NA
ENDROOT
BRANCH   5   7
ATOM      7  C   UNL     1       0.475   9.712  19.484  0.00  0.00    +0.000 A 
ATOM      8  C   UNL     1       0.514   9.052  20.713  0.00  0.00    +0.000 A 
ATOM      9  C   UNL     1       1.290   7.899  20.846  0.00  0.00    +0.000 A 
ATOM     10  C   UNL     1       2.088   7.454  19.779  0.00  0.00    +0.000 A 
ATOM     11  C   UNL     1       2.722   6.205  19.797  0.00  0.00    +0.000 A 
ATOM     12  C   UNL     1       3.488   5.802  18.705  0.00  0.00    +0.000 A 
ATOM     13 CL   UNL     1       3.888   4.139  18.510  0.00  0.00    +0.000 Cl
ATOM     14  C   UNL     1       3.812   6.699  17.694  0.00  0.00    +0.000 A 
ATOM     15  C   UNL     1       3.147   7.919  17.638  0.00  0.00    +0.000 A 
ATOM     16  C   UNL     1       2.203   8.251  18.619  0.00  0.00    +0.000 A 
ATOM     17  C   UNL     1       1.337   9.336  18.448  0.00  0.00    +0.000 A 
ENDBRANCH   5   7
BRANCH   4  18
ATOM     18  C   UNL     1       0.919  12.708  20.140  0.00  0.00    +0.000 C 
ATOM     19  O   UNL     1       1.313  12.658  21.302  0.00  0.00    +0.000 OA
ATOM     20  N   UNL     1       1.611  13.353  19.122  0.00  0.00    +0.000 N 
ATOM     21  H   UNL     1       1.111  13.505  18.259  0.00  0.00    +0.000 HD
BRANCH  20  22
ATOM     22  C   UNL     1       2.888  13.955  19.234  0.00  0.00    +0.000 A 
ATOM     23  C   UNL     1       3.452  14.328  20.461  0.00  0.00    +0.000 A 
ATOM     24  C   UNL     1       4.714  14.929  20.525  0.00  0.00    +0.000 A 
ATOM     25  C   UNL     1       5.438  15.166  19.356  0.00  0.00    +0.000 A 
ATOM     26  C   UNL     1       4.896  14.787  18.122  0.00  0.00    +0.000 A 
ATOM     27  C   UNL     1       3.633  14.169  18.068  0.00  0.00    +0.000 A 
BRANCH  25  28
ATOM     28  N   UNL     1       6.714  15.784  19.440  0.00  0.00    +0.000 N 
ATOM     29  N   UNL     1       7.580  15.508  20.457  0.00  0.00    +0.000 NA
ATOM     30  C   UNL     1       8.632  16.268  20.150  0.00  0.00    +0.000 A 
ATOM     31  C   UNL     1       8.372  16.986  18.981  0.00  0.00    +0.000 A 
ATOM     32  N   UNL     1       7.158  16.680  18.514  0.00  0.00    +0.000 NA
ENDBRANCH  25  28
ENDBRANCH  20  22
ENDBRANCH   4  18
TORSDOF 4
ENDMDL
MODEL 8
REMARK VINA RESULT:      -7.7      5.524      7.791
REMARK  Name = 
REMARK  5 active torsions:
REMARK  status: ('A' for Active; 'I' for Inactive)
REMARK    1  A    between atoms: C_1  and  C_2
REMARK    2  A    between atoms: C_4  and  C_5
REMARK    3  A    between atoms: N_7  and  C_8
REMARK    4  A    between atoms: C_11  and  N_12
REMARK    5  A    between atoms: N_19  and  C_20
REMARK                            x       y       z     vdW  Elec       q    Type
REMARK                         _______ _______ _______ _____ _____    ______ ____
ROOT
ATOM      1  C   UNL     1       4.702   0.875  21.604  0.00  0.00    +0.000 C 
ATOM      2  C   UNL     1       4.333   2.077  20.816  0.00  0.00    +0.000 A 
ATOM      3  C   UNL     1       3.394   3.086  21.131  0.00  0.00    +0.000 A 
ATOM      4  C   UNL     1       3.405   3.931  20.045  0.00  0.00    +0.000 A 
ATOM      5  N   UNL     1       4.440   3.488  19.231  0.00  0.00    +0.000 N 
ATOM      6  N   UNL     1       4.890   2.275  19.626  0.00  0.00    +0.000 NA
ENDROOT
BRANCH   5   7
ATOM      7  C   UNL     1       5.106   4.158  18.177  0.00  0.00    +0.000 A 
ATOM      8  C   UNL     1       5.899   5.273  18.458  0.00  0.00    +0.000 A 
ATOM      9  C   UNL     1       6.661   5.845  17.438  0.00  0.00    +0.000 A 
ATOM     10  C   UNL     1       6.568   5.357  16.124  0.00  0.00    +0.000 A 
ATOM     11  C   UNL     1       7.454   5.764  15.117  0.00  0.00    +0.000 A 
ATOM     12  C   UNL     1       7.332   5.235  13.833  0.00  0.00    +0.000 A 
ATOM     13 CL   UNL     1       8.646   5.363  12.729  0.00  0.00    +0.000 Cl
ATOM     14  C   UNL     1       6.221   4.479  13.478  0.00  0.00    +0.000 A 
ATOM     15  C   UNL     1       5.368   4.024  14.479  0.00  0.00    +0.000 A 
ATOM     16  C   UNL     1       5.605   4.372  15.816  0.00  0.00    +0.000 A 
ATOM     17  C   UNL     1       4.933   3.725  16.858  0.00  0.00    +0.000 A 
ENDBRANCH   5   7
BRANCH   4  18
ATOM     18  C   UNL     1       2.501   4.972  19.646  0.00  0.00    +0.000 C 
ATOM     19  O   UNL     1       1.430   4.689  19.115  0.00  0.00    +0.000 OA
ATOM     20  N   UNL     1       2.923   6.276  19.876  0.00  0.00    +0.000 N 
ATOM     21  H   UNL     1       3.891   6.401  20.131  0.00  0.00    +0.000 HD
BRANCH  20  22
ATOM     22  C   UNL     1       2.170   7.451  19.632  0.00  0.00    +0.000 A 
ATOM     23  C   UNL     1       1.423   8.099  20.623  0.00  0.00    +0.000 A 
ATOM     24  C   UNL     1       0.685   9.253  20.335  0.00  0.00    +0.000 A 
ATOM     25  C   UNL     1       0.685   9.781  19.044  0.00  0.00    +0.000 A 
ATOM     26  C   UNL     1       1.439   9.154  18.043  0.00  0.00    +0.000 A 
ATOM     27  C   UNL     1       2.189   8.003  18.345  0.00  0.00    +0.000 A 
BRANCH  25  28
ATOM     28  N   UNL     1      -0.075  10.949  18.769  0.00  0.00    +0.000 N 
ATOM     29  N   UNL     1      -1.327  10.881  18.235  0.00  0.00    +0.000 NA
ATOM     30  C   UNL     1      -1.674  12.166  18.157  0.00  0.00    +0.000 A 
ATOM     31  C   UNL     1      -0.630  12.967  18.623  0.00  0.00    +0.000 A 
ATOM     32  N   UNL     1       0.391  12.204  19.024  0.00  0.00    +0.000 NA
ENDBRANCH  25  28
ENDBRANCH  20  22
ENDBRANCH   4  18
TORSDOF 4
ENDMDL
MODEL 9
REMARK VINA RESULT:      -7.6      5.862      9.571
REMARK  Name = 
REMARK  5 active torsions:
REMARK  status: ('A' for Active; 'I' for Inactive)
REMARK    1  A    between atoms: C_1  and  C_2
REMARK    2  A    between atoms: C_4  and  C_5
REMARK    3  A    between atoms: N_7  and  C_8
REMARK    4  A    between atoms: C_11  and  N_12
REMARK    5  A    between atoms: N_19  and  C_20
REMARK                            x       y       z     vdW  Elec       q    Type
REMARK                         _______ _______ _______ _____ _____    ______ ____
ROOT
ATOM      1  C   UNL     1       1.855  15.658  19.540  0.00  0.00    +0.000 C 
ATOM      2  C   UNL     1       1.231  14.313  19.570  0.00  0.00    +0.000 A 
ATOM      3  C   UNL     1       1.659  13.156  20.261  0.00  0.00    +0.000 A 
ATOM      4  C   UNL     1       0.757  12.179  19.907  0.00  0.00    +0.000 A 
ATOM      5  N   UNL     1      -0.231  12.824  19.174  0.00  0.00    +0.000 N 
ATOM      6  N   UNL     1       0.145  14.080  18.841  0.00  0.00    +0.000 NA
ENDROOT
BRANCH   5   7
ATOM      7  C   UNL     1      -1.540  12.390  18.851  0.00  0.00    +0.000 A 
ATOM      8  C   UNL     1      -1.780  11.775  17.620  0.00  0.00    +0.000 A 
ATOM      9  C   UNL     1      -3.038  11.227  17.364  0.00  0.00    +0.000 A 
ATOM     10  C   UNL     1      -4.077  11.366  18.299  0.00  0.00    +0.000 A 
ATOM     11  C   UNL     1      -5.285  10.668  18.175  0.00  0.00    +0.000 A 
ATOM     12  C   UNL     1      -6.278  10.826  19.141  0.00  0.00    +0.000 A 
ATOM     13 CL   UNL     1      -7.548   9.670  19.256  0.00  0.00    +0.000 Cl
ATOM     14  C   UNL     1      -6.179  11.822  20.105  0.00  0.00    +0.000 A 
ATOM     15  C   UNL     1      -4.965  12.481  20.272  0.00  0.00    +0.000 A 
ATOM     16  C   UNL     1      -3.880  12.174  19.441  0.00  0.00    +0.000 A 
ATOM     17  C   UNL     1      -2.590  12.618  19.747  0.00  0.00    +0.000 A 
ENDBRANCH   5   7
BRANCH   4  18
ATOM     18  C   UNL     1       0.798  10.753  20.060  0.00  0.00    +0.000 C 
ATOM     19  O   UNL     1       0.043  10.196  20.852  0.00  0.00    +0.000 OA
ATOM     20  N   UNL     1       1.736  10.077  19.288  0.00  0.00    +0.000 N 
ATOM     21  H   UNL     1       2.432  10.640  18.824  0.00  0.00    +0.000 HD
BRANCH  20  22
ATOM     22  C   UNL     1       1.903   8.671  19.222  0.00  0.00    +0.000 A 
ATOM     23  C   UNL     1       1.780   7.834  20.337  0.00  0.00    +0.000 A 
ATOM     24  C   UNL     1       1.963   6.451  20.229  0.00  0.00    +0.000 A 
ATOM     25  C   UNL     1       2.271   5.879  18.994  0.00  0.00    +0.000 A 
ATOM     26  C   UNL     1       2.384   6.700  17.864  0.00  0.00    +0.000 A 
ATOM     27  C   UNL     1       2.183   8.088  17.980  0.00  0.00    +0.000 A 
BRANCH  25  28
ATOM     28  N   UNL     1       2.460   4.475  18.903  0.00  0.00    +0.000 N 
ATOM     29  N   UNL     1       2.840   3.730  19.980  0.00  0.00    +0.000 NA
ATOM     30  C   UNL     1       2.883   2.498  19.475  0.00  0.00    +0.000 A 
ATOM     31  C   UNL     1       2.550   2.531  18.119  0.00  0.00    +0.000 A 
ATOM     32  N   UNL     1       2.269   3.782  17.745  0.00  0.00    +0.000 NA
ENDBRANCH  25  28
ENDBRANCH  20  22
ENDBRANCH   4  18
TORSDOF 4
ENDMDL
