MODEL 1
REMARK VINA RESULT:      -8.3      0.000      0.000
REMARK  Name = 
REMARK  7 active torsions:
REMARK  status: ('A' for Active; 'I' for Inactive)
REMARK    1  A    between atoms: C_2  and  C_3
REMARK    2  A    between atoms: C_8  and  C_9
REMARK    3  A    between atoms: C_9  and  C_10
REMARK    4  A    between atoms: C_10  and  N_11
REMARK    5  A    between atoms: C_13  and  C_14
REMARK    6  A    between atoms: C_17  and  O_18
REMARK    7  A    between atoms: O_18  and  C_19
REMARK                            x       y       z     vdW  Elec       q    Type
REMARK                         _______ _______ _______ _____ _____    ______ ____
ROOT
ATOM      1  N   UNL     1      -0.361  11.893  21.116  0.00  0.00    +0.000 N 
ATOM      2  C   UNL     1       0.607  10.949  20.902  0.00  0.00    +0.000 A 
ATOM      3  C   UNL     1       0.308  10.259  19.746  0.00  0.00    +0.000 A 
ATOM      4  C   UNL     1      -0.942  10.777  19.255  0.00  0.00    +0.000 A 
ATOM      5  C   UNL     1      -1.815  10.549  18.174  0.00  0.00    +0.000 A 
ATOM      6  N   UNL     1      -1.643   9.625  17.169  0.00  0.00    +0.000 N 
ATOM      7  N   UNL     1      -2.959  11.263  18.095  0.00  0.00    +0.000 NA
ATOM      8  C   UNL     1      -3.196  12.197  19.034  0.00  0.00    +0.000 A 
ATOM      9  N   UNL     1      -2.432  12.527  20.082  0.00  0.00    +0.000 NA
ATOM     10  C   UNL     1      -1.318  11.778  20.150  0.00  0.00    +0.000 A 
ATOM     11  H   UNL     1      -0.769   9.151  17.020  0.00  0.00    +0.000 HD
ATOM     12  H   UNL     1      -2.400   9.531  16.514  0.00  0.00    +0.000 HD
ENDROOT
BRANCH   3  13
ATOM     13  C   UNL     1       1.181   9.193  19.276  0.00  0.00    +0.000 A 
ATOM     14  C   UNL     1       1.556   8.145  20.122  0.00  0.00    +0.000 A 
ATOM     15  C   UNL     1       2.322   7.086  19.641  0.00  0.00    +0.000 A 
ATOM     16  C   UNL     1       2.813   7.114  18.338  0.00  0.00    +0.000 A 
ATOM     17  C   UNL     1       2.556   8.218  17.524  0.00  0.00    +0.000 A 
ATOM     18  C   UNL     1       1.706   9.223  17.974  0.00  0.00    +0.000 A 
BRANCH  16  19
ATOM     19  O   UNL     1       3.602   6.048  17.980  0.00  0.00    +0.000 OA
BRANCH  19  20
ATOM     20  C   UNL     1       4.967   6.140  18.094  0.00  0.00    +0.000 A 
ATOM     21  C   UNL     1       5.531   5.446  19.167  0.00  0.00    +0.000 A 
ATOM     22  C   UNL     1       6.909   5.466  19.363  0.00  0.00    +0.000 A 
ATOM     23  C   UNL     1       7.719   6.185  18.488  0.00  0.00    +0.000 A 
ATOM     24  C   UNL     1       7.170   6.859  17.406  0.00  0.00    +0.000 A 
ATOM     25  C   UNL     1       5.796   6.811  17.190  0.00  0.00    +0.000 A 
ENDBRANCH  19  20
ENDBRANCH  16  19
ENDBRANCH   3  13
BRANCH   1  26
ATOM     26  C   UNL     1      -0.375  12.852  22.219  0.00  0.00    +0.000 C 
BRANCH  26  27
ATOM     27  C   UNL     1      -0.229  14.305  21.757  0.00  0.00    +0.000 C 
BRANCH  27  33
ATOM     28  C   UNL     1       3.063  16.205  18.412  0.00  0.00    +0.000 C 
ATOM     29  O   UNL     1       3.218  17.423  18.330  0.00  0.00    +0.000 OA
ATOM     30  N   UNL     1       2.121  15.615  19.240  0.00  0.00    +0.000 N 
ATOM     31  C   UNL     1       1.156  16.477  19.925  0.00  0.00    +0.000 C 
ATOM     32  C   UNL     1       1.303  16.355  21.440  0.00  0.00    +0.000 C 
ATOM     33  C   UNL     1       1.181  14.899  21.909  0.00  0.00    +0.000 C 
ATOM     34  C   UNL     1       2.198  14.032  21.135  0.00  0.00    +0.000 C 
ATOM     35  C   UNL     1       2.075  14.200  19.616  0.00  0.00    +0.000 C 
BRANCH  28  37
ATOM     36  C   UNL     1       5.186  15.107  17.855  0.00  0.00    +0.000 C 
ATOM     37  C   UNL     1       3.889  15.296  17.578  0.00  0.00    +0.000 C 
ENDBRANCH  28  37
ENDBRANCH  27  33
ENDBRANCH  26  27
ENDBRANCH   1  26
TORSDOF 7
ENDMDL
MODEL 2
REMARK VINA RESULT:      -8.3      3.656      9.782
REMARK  Name = 
REMARK  7 active torsions:
REMARK  status: ('A' for Active; 'I' for Inactive)
REMARK    1  A    between atoms: C_2  and  C_3
REMARK    2  A    between atoms: C_8  and  C_9
REMARK    3  A    between atoms: C_9  and  C_10
REMARK    4  A    between atoms: C_10  and  N_11
REMARK    5  A    between atoms: C_13  and  C_14
REMARK    6  A    between atoms: C_17  and  O_18
REMARK    7  A    between atoms: O_18  and  C_19
REMARK                            x       y       z     vdW  Elec       q    Type
REMARK                         _______ _______ _______ _____ _____    ______ ____
ROOT
ATOM      1  N   UNL     1       2.058   6.642  20.347  0.00  0.00    +0.000 N 
ATOM      2  C   UNL     1       1.348   7.427  21.216  0.00  0.00    +0.000 A 
ATOM      3  C   UNL     1       1.087   8.638  20.612  0.00  0.00    +0.000 A 
ATOM      4  C   UNL     1       1.720   8.610  19.318  0.00  0.00    +0.000 A 
ATOM      5  C   UNL     1       1.870   9.467  18.211  0.00  0.00    +0.000 A 
ATOM      6  N   UNL     1       1.360  10.740  18.090  0.00  0.00    +0.000 N 
ATOM      7  N   UNL     1       2.605   9.050  17.157  0.00  0.00    +0.000 NA
ATOM      8  C   UNL     1       3.129   7.810  17.192  0.00  0.00    +0.000 A 
ATOM      9  N   UNL     1       3.027   6.899  18.166  0.00  0.00    +0.000 NA
ATOM     10  C   UNL     1       2.317   7.355  19.212  0.00  0.00    +0.000 A 
ATOM     11  H   UNL     1       0.669  11.102  18.722  0.00  0.00    +0.000 HD
ATOM     12  H   UNL     1       1.628  11.251  17.266  0.00  0.00    +0.000 HD
ENDROOT
BRANCH   3  13
ATOM     13  C   UNL     1       0.338   9.669  21.316  0.00  0.00    +0.000 A 
ATOM     14  C   UNL     1      -0.473   9.347  22.408  0.00  0.00    +0.000 A 
ATOM     15  C   UNL     1      -1.120  10.348  23.128  0.00  0.00    +0.000 A 
ATOM     16  C   UNL     1      -1.052  11.672  22.701  0.00  0.00    +0.000 A 
ATOM     17  C   UNL     1      -0.353  11.989  21.535  0.00  0.00    +0.000 A 
ATOM     18  C   UNL     1       0.376  11.002  20.879  0.00  0.00    +0.000 A 
BRANCH  16  19
ATOM     19  O   UNL     1      -1.769  12.574  23.449  0.00  0.00    +0.000 OA
BRANCH  19  20
ATOM     20  C   UNL     1      -3.127  12.676  23.278  0.00  0.00    +0.000 A 
ATOM     21  C   UNL     1      -3.893  12.548  24.438  0.00  0.00    +0.000 A 
ATOM     22  C   UNL     1      -5.280  12.649  24.373  0.00  0.00    +0.000 A 
ATOM     23  C   UNL     1      -5.898  12.872  23.145  0.00  0.00    +0.000 A 
ATOM     24  C   UNL     1      -5.143  13.024  21.990  0.00  0.00    +0.000 A 
ATOM     25  C   UNL     1      -3.754  12.957  22.061  0.00  0.00    +0.000 A 
ENDBRANCH  19  20
ENDBRANCH  16  19
ENDBRANCH   3  13
BRANCH   1  26
ATOM     26  C   UNL     1       2.486   5.269  20.606  0.00  0.00    +0.000 C 
BRANCH  26  27
ATOM     27  C   UNL     1       2.375   4.360  19.380  0.00  0.00    +0.000 C 
BRANCH  27  33
ATOM     28  C   UNL     1       6.610   4.271  16.603  0.00  0.00    +0.000 C 
ATOM     29  O   UNL     1       7.697   4.480  17.139  0.00  0.00    +0.000 OA
ATOM     30  N   UNL     1       5.402   4.363  17.278  0.00  0.00    +0.000 N 
ATOM     31  C   UNL     1       5.404   4.891  18.643  0.00  0.00    +0.000 C 
ATOM     32  C   UNL     1       4.890   3.843  19.629  0.00  0.00    +0.000 C 
ATOM     33  C   UNL     1       3.501   3.322  19.234  0.00  0.00    +0.000 C 
ATOM     34  C   UNL     1       3.549   2.807  17.779  0.00  0.00    +0.000 C 
ATOM     35  C   UNL     1       4.114   3.850  16.806  0.00  0.00    +0.000 C 
BRANCH  28  37
ATOM     36  C   UNL     1       6.203   4.853  14.254  0.00  0.00    +0.000 C 
ATOM     37  C   UNL     1       6.549   3.928  15.160  0.00  0.00    +0.000 C 
ENDBRANCH  28  37
ENDBRANCH  27  33
ENDBRANCH  26  27
ENDBRANCH   1  26
TORSDOF 7
ENDMDL
MODEL 3
REMARK VINA RESULT:      -8.2      1.511      2.263
REMARK  Name = 
REMARK  7 active torsions:
REMARK  status: ('A' for Active; 'I' for Inactive)
REMARK    1  A    between atoms: C_2  and  C_3
REMARK    2  A    between atoms: C_8  and  C_9
REMARK    3  A    between atoms: C_9  and  C_10
REMARK    4  A    between atoms: C_10  and  N_11
REMARK    5  A    between atoms: C_13  and  C_14
REMARK    6  A    between atoms: C_17  and  O_18
REMARK    7  A    between atoms: O_18  and  C_19
REMARK                            x       y       z     vdW  Elec       q    Type
REMARK                         _______ _______ _______ _____ _____    ______ ____
ROOT
ATOM      1  N   UNL     1      -0.132  12.209  21.031  0.00  0.00    +0.000 N 
ATOM      2  C   UNL     1       0.796  11.227  20.811  0.00  0.00    +0.000 A 
ATOM      3  C   UNL     1       0.368  10.436  19.766  0.00  0.00    +0.000 A 
ATOM      4  C   UNL     1      -0.921  10.933  19.359  0.00  0.00    +0.000 A 
ATOM      5  C   UNL     1      -1.906  10.622  18.402  0.00  0.00    +0.000 A 
ATOM      6  N   UNL     1      -1.853   9.601  17.480  0.00  0.00    +0.000 N 
ATOM      7  N   UNL     1      -3.043  11.351  18.373  0.00  0.00    +0.000 NA
ATOM      8  C   UNL     1      -3.168  12.377  19.236  0.00  0.00    +0.000 A 
ATOM      9  N   UNL     1      -2.293  12.788  20.160  0.00  0.00    +0.000 NA
ATOM     10  C   UNL     1      -1.187  12.024  20.185  0.00  0.00    +0.000 A 
ATOM     11  H   UNL     1      -1.007   9.096  17.289  0.00  0.00    +0.000 HD
ATOM     12  H   UNL     1      -2.677   9.462  16.921  0.00  0.00    +0.000 HD
ENDROOT
BRANCH   3  13
ATOM     13  C   UNL     1       1.173   9.310  19.314  0.00  0.00    +0.000 A 
ATOM     14  C   UNL     1       1.602   9.220  17.987  0.00  0.00    +0.000 A 
ATOM     15  C   UNL     1       2.441   8.184  17.583  0.00  0.00    +0.000 A 
ATOM     16  C   UNL     1       2.773   7.166  18.474  0.00  0.00    +0.000 A 
ATOM     17  C   UNL     1       2.244   7.175  19.765  0.00  0.00    +0.000 A 
ATOM     18  C   UNL     1       1.491   8.264  20.195  0.00  0.00    +0.000 A 
BRANCH  16  19
ATOM     19  O   UNL     1       3.561   6.165  17.961  0.00  0.00    +0.000 OA
BRANCH  19  20
ATOM     20  C   UNL     1       3.316   4.859  18.307  0.00  0.00    +0.000 A 
ATOM     21  C   UNL     1       2.161   4.296  17.759  0.00  0.00    +0.000 A 
ATOM     22  C   UNL     1       1.830   2.974  18.038  0.00  0.00    +0.000 A 
ATOM     23  C   UNL     1       2.653   2.218  18.869  0.00  0.00    +0.000 A 
ATOM     24  C   UNL     1       3.815   2.762  19.400  0.00  0.00    +0.000 A 
ATOM     25  C   UNL     1       4.164   4.074  19.093  0.00  0.00    +0.000 A 
ENDBRANCH  19  20
ENDBRANCH  16  19
ENDBRANCH   3  13
BRANCH   1  26
ATOM     26  C   UNL     1      -0.017  13.271  22.029  0.00  0.00    +0.000 C 
BRANCH  26  27
ATOM     27  C   UNL     1       0.487  14.595  21.448  0.00  0.00    +0.000 C 
BRANCH  27  33
ATOM     28  C   UNL     1       4.400  15.995  18.556  0.00  0.00    +0.000 C 
ATOM     29  O   UNL     1       4.764  17.170  18.546  0.00  0.00    +0.000 OA
ATOM     30  N   UNL     1       3.287  15.552  19.253  0.00  0.00    +0.000 N 
ATOM     31  C   UNL     1       2.410  16.547  19.871  0.00  0.00    +0.000 C 
ATOM     32  C   UNL     1       2.365  16.360  21.387  0.00  0.00    +0.000 C 
ATOM     33  C   UNL     1       1.951  14.934  21.773  0.00  0.00    +0.000 C 
ATOM     34  C   UNL     1       2.888  13.928  21.071  0.00  0.00    +0.000 C 
ATOM     35  C   UNL     1       2.964  14.156  19.556  0.00  0.00    +0.000 C 
BRANCH  28  37
ATOM     36  C   UNL     1       6.455  14.775  17.996  0.00  0.00    +0.000 C 
ATOM     37  C   UNL     1       5.150  14.981  17.771  0.00  0.00    +0.000 C 
ENDBRANCH  28  37
ENDBRANCH  27  33
ENDBRANCH  26  27
ENDBRANCH   1  26
TORSDOF 7
ENDMDL
MODEL 4
REMARK VINA RESULT:      -8.2      3.607      5.527
REMARK  Name = 
REMARK  7 active torsions:
REMARK  status: ('A' for Active; 'I' for Inactive)
REMARK    1  A    between atoms: C_2  and  C_3
REMARK    2  A    between atoms: C_8  and  C_9
REMARK    3  A    between atoms: C_9  and  C_10
REMARK    4  A    between atoms: C_10  and  N_11
REMARK    5  A    between atoms: C_13  and  C_14
REMARK    6  A    between atoms: C_17  and  O_18
REMARK    7  A    between atoms: O_18  and  C_19
REMARK                            x       y       z     vdW  Elec       q    Type
REMARK                         _______ _______ _______ _____ _____    ______ ____
ROOT
ATOM      1  N   UNL     1      -0.899  11.750  21.141  0.00  0.00    +0.000 N 
ATOM      2  C   UNL     1       0.127  10.851  21.019  0.00  0.00    +0.000 A 
ATOM      3  C   UNL     1       0.029  10.227  19.794  0.00  0.00    +0.000 A 
ATOM      4  C   UNL     1      -1.155  10.737  19.153  0.00  0.00    +0.000 A 
ATOM      5  C   UNL     1      -1.850  10.551  17.942  0.00  0.00    +0.000 A 
ATOM      6  N   UNL     1      -1.495   9.698  16.922  0.00  0.00    +0.000 N 
ATOM      7  N   UNL     1      -2.997  11.234  17.735  0.00  0.00    +0.000 NA
ATOM      8  C   UNL     1      -3.406  12.099  18.680  0.00  0.00    +0.000 A 
ATOM      9  N   UNL     1      -2.818  12.386  19.847  0.00  0.00    +0.000 NA
ATOM     10  C   UNL     1      -1.697  11.668  20.038  0.00  0.00    +0.000 A 
ATOM     11  H   UNL     1      -0.592   9.261  16.878  0.00  0.00    +0.000 HD
ATOM     12  H   UNL     1      -2.144   9.623  16.157  0.00  0.00    +0.000 HD
ENDROOT
BRANCH   3  13
ATOM     13  C   UNL     1       1.003   9.219  19.398  0.00  0.00    +0.000 A 
ATOM     14  C   UNL     1       1.417   8.230  20.294  0.00  0.00    +0.000 A 
ATOM     15  C   UNL     1       2.284   7.220  19.883  0.00  0.00    +0.000 A 
ATOM     16  C   UNL     1       2.833   7.248  18.603  0.00  0.00    +0.000 A 
ATOM     17  C   UNL     1       2.530   8.304  17.743  0.00  0.00    +0.000 A 
ATOM     18  C   UNL     1       1.584   9.253  18.121  0.00  0.00    +0.000 A 
BRANCH  16  19
ATOM     19  O   UNL     1       3.717   6.238  18.315  0.00  0.00    +0.000 OA
BRANCH  19  20
ATOM     20  C   UNL     1       3.301   4.931  18.365  0.00  0.00    +0.000 A 
ATOM     21  C   UNL     1       4.080   4.079  19.151  0.00  0.00    +0.000 A 
ATOM     22  C   UNL     1       3.734   2.737  19.277  0.00  0.00    +0.000 A 
ATOM     23  C   UNL     1       2.612   2.248  18.612  0.00  0.00    +0.000 A 
ATOM     24  C   UNL     1       1.820   3.093  17.846  0.00  0.00    +0.000 A 
ATOM     25  C   UNL     1       2.146   4.442  17.748  0.00  0.00    +0.000 A 
ENDBRANCH  19  20
ENDBRANCH  16  19
ENDBRANCH   3  13
BRANCH   1  26
ATOM     26  C   UNL     1      -1.112  12.637  22.283  0.00  0.00    +0.000 C 
BRANCH  26  27
ATOM     27  C   UNL     1      -2.297  12.221  23.158  0.00  0.00    +0.000 C 
BRANCH  27  33
ATOM     28  C   UNL     1      -6.789  14.549  23.384  0.00  0.00    +0.000 C 
ATOM     29  O   UNL     1      -7.587  14.253  24.272  0.00  0.00    +0.000 OA
ATOM     30  N   UNL     1      -5.578  13.897  23.205  0.00  0.00    +0.000 N 
ATOM     31  C   UNL     1      -5.307  12.699  24.001  0.00  0.00    +0.000 C 
ATOM     32  C   UNL     1      -4.082  12.905  24.889  0.00  0.00    +0.000 C 
ATOM     33  C   UNL     1      -2.851  13.325  24.074  0.00  0.00    +0.000 C 
ATOM     34  C   UNL     1      -3.202  14.572  23.234  0.00  0.00    +0.000 C 
ATOM     35  C   UNL     1      -4.462  14.371  22.383  0.00  0.00    +0.000 C 
BRANCH  28  37
ATOM     36  C   UNL     1      -7.909  15.391  21.370  0.00  0.00    +0.000 C 
ATOM     37  C   UNL     1      -7.118  15.632  22.424  0.00  0.00    +0.000 C 
ENDBRANCH  28  37
ENDBRANCH  27  33
ENDBRANCH  26  27
ENDBRANCH   1  26
TORSDOF 7
ENDMDL
MODEL 5
REMARK VINA RESULT:      -8.2      3.668      9.865
REMARK  Name = 
REMARK  7 active torsions:
REMARK  status: ('A' for Active; 'I' for Inactive)
REMARK    1  A    between atoms: C_2  and  C_3
REMARK    2  A    between atoms: C_8  and  C_9
REMARK    3  A    between atoms: C_9  and  C_10
REMARK    4  A    between atoms: C_10  and  N_11
REMARK    5  A    between atoms: C_13  and  C_14
REMARK    6  A    between atoms: C_17  and  O_18
REMARK    7  A    between atoms: O_18  and  C_19
REMARK                            x       y       z     vdW  Elec       q    Type
REMARK                         _______ _______ _______ _____ _____    ______ ____
ROOT
ATOM      1  N   UNL     1       1.903   6.823  20.438  0.00  0.00    +0.000 N 
ATOM      2  C   UNL     1       1.210   7.598  21.329  0.00  0.00    +0.000 A 
ATOM      3  C   UNL     1       0.931   8.813  20.741  0.00  0.00    +0.000 A 
ATOM      4  C   UNL     1       1.535   8.798  19.433  0.00  0.00    +0.000 A 
ATOM      5  C   UNL     1       1.659   9.665  18.330  0.00  0.00    +0.000 A 
ATOM      6  N   UNL     1       1.142  10.937  18.231  0.00  0.00    +0.000 N 
ATOM      7  N   UNL     1       2.372   9.259  17.257  0.00  0.00    +0.000 NA
ATOM      8  C   UNL     1       2.901   8.022  17.270  0.00  0.00    +0.000 A 
ATOM      9  N   UNL     1       2.823   7.102  18.238  0.00  0.00    +0.000 NA
ATOM     10  C   UNL     1       2.134   7.546  19.303  0.00  0.00    +0.000 A 
ATOM     11  H   UNL     1       0.463  11.291  18.881  0.00  0.00    +0.000 HD
ATOM     12  H   UNL     1       1.390  11.456  17.406  0.00  0.00    +0.000 HD
ENDROOT
BRANCH   3  13
ATOM     13  C   UNL     1       0.193   9.835  21.469  0.00  0.00    +0.000 A 
ATOM     14  C   UNL     1       0.244  11.175  21.077  0.00  0.00    +0.000 A 
ATOM     15  C   UNL     1      -0.530  12.133  21.726  0.00  0.00    +0.000 A 
ATOM     16  C   UNL     1      -1.282  11.783  22.845  0.00  0.00    +0.000 A 
ATOM     17  C   UNL     1      -1.238  10.474  23.327  0.00  0.00    +0.000 A 
ATOM     18  C   UNL     1      -0.546   9.499  22.615  0.00  0.00    +0.000 A 
BRANCH  16  19
ATOM     19  O   UNL     1      -1.966  12.811  23.445  0.00  0.00    +0.000 OA
BRANCH  19  20
ATOM     20  C   UNL     1      -3.339  12.805  23.452  0.00  0.00    +0.000 A 
ATOM     21  C   UNL     1      -3.950  13.074  22.225  0.00  0.00    +0.000 A 
ATOM     22  C   UNL     1      -5.338  13.078  22.124  0.00  0.00    +0.000 A 
ATOM     23  C   UNL     1      -6.112  12.820  23.252  0.00  0.00    +0.000 A 
ATOM     24  C   UNL     1      -5.513  12.530  24.471  0.00  0.00    +0.000 A 
ATOM     25  C   UNL     1      -4.125  12.491  24.564  0.00  0.00    +0.000 A 
ENDBRANCH  19  20
ENDBRANCH  16  19
ENDBRANCH   3  13
BRANCH   1  26
ATOM     26  C   UNL     1       2.342   5.450  20.676  0.00  0.00    +0.000 C 
BRANCH  26  27
ATOM     27  C   UNL     1       1.796   4.454  19.649  0.00  0.00    +0.000 C 
BRANCH  27  33
ATOM     28  C   UNL     1       5.716   4.212  16.453  0.00  0.00    +0.000 C 
ATOM     29  O   UNL     1       6.865   4.221  16.892  0.00  0.00    +0.000 OA
ATOM     30  N   UNL     1       4.596   4.361  17.256  0.00  0.00    +0.000 N 
ATOM     31  C   UNL     1       4.790   4.709  18.665  0.00  0.00    +0.000 C 
ATOM     32  C   UNL     1       4.233   3.614  19.573  0.00  0.00    +0.000 C 
ATOM     33  C   UNL     1       2.759   3.316  19.269  0.00  0.00    +0.000 C 
ATOM     34  C   UNL     1       2.608   2.987  17.768  0.00  0.00    +0.000 C 
ATOM     35  C   UNL     1       3.215   4.069  16.866  0.00  0.00    +0.000 C 
BRANCH  28  37
ATOM     36  C   UNL     1       6.514   4.017  14.139  0.00  0.00    +0.000 C 
ATOM     37  C   UNL     1       5.482   4.064  14.994  0.00  0.00    +0.000 C 
ENDBRANCH  28  37
ENDBRANCH  27  33
ENDBRANCH  26  27
ENDBRANCH   1  26
TORSDOF 7
ENDMDL
MODEL 6
REMARK VINA RESULT:      -8.2      4.158      6.442
REMARK  Name = 
REMARK  7 active torsions:
REMARK  status: ('A' for Active; 'I' for Inactive)
REMARK    1  A    between atoms: C_2  and  C_3
REMARK    2  A    between atoms: C_8  and  C_9
REMARK    3  A    between atoms: C_9  and  C_10
REMARK    4  A    between atoms: C_10  and  N_11
REMARK    5  A    between atoms: C_13  and  C_14
REMARK    6  A    between atoms: C_17  and  O_18
REMARK    7  A    between atoms: O_18  and  C_19
REMARK                            x       y       z     vdW  Elec       q    Type
REMARK                         _______ _______ _______ _____ _____    ______ ____
ROOT
ATOM      1  N   UNL     1       2.035   6.242  20.422  0.00  0.00    +0.000 N 
ATOM      2  C   UNL     1       2.920   6.596  19.440  0.00  0.00    +0.000 A 
ATOM      3  C   UNL     1       3.613   5.474  19.038  0.00  0.00    +0.000 A 
ATOM      4  C   UNL     1       3.160   4.381  19.860  0.00  0.00    +0.000 A 
ATOM      5  C   UNL     1       3.425   3.006  20.007  0.00  0.00    +0.000 A 
ATOM      6  N   UNL     1       4.327   2.266  19.276  0.00  0.00    +0.000 N 
ATOM      7  N   UNL     1       2.776   2.314  20.969  0.00  0.00    +0.000 NA
ATOM      8  C   UNL     1       1.867   2.963  21.721  0.00  0.00    +0.000 A 
ATOM      9  N   UNL     1       1.506   4.249  21.652  0.00  0.00    +0.000 NA
ATOM     10  C   UNL     1       2.192   4.916  20.708  0.00  0.00    +0.000 A 
ATOM     11  H   UNL     1       4.749   2.616  18.435  0.00  0.00    +0.000 HD
ATOM     12  H   UNL     1       4.456   1.311  19.562  0.00  0.00    +0.000 HD
ENDROOT
BRANCH   3  13
ATOM     13  C   UNL     1       4.623   5.563  17.993  0.00  0.00    +0.000 A 
ATOM     14  C   UNL     1       5.912   5.061  18.195  0.00  0.00    +0.000 A 
ATOM     15  C   UNL     1       6.846   5.074  17.163  0.00  0.00    +0.000 A 
ATOM     16  C   UNL     1       6.540   5.688  15.950  0.00  0.00    +0.000 A 
ATOM     17  C   UNL     1       5.302   6.310  15.782  0.00  0.00    +0.000 A 
ATOM     18  C   UNL     1       4.335   6.203  16.778  0.00  0.00    +0.000 A 
BRANCH  16  19
ATOM     19  O   UNL     1       7.548   5.695  15.018  0.00  0.00    +0.000 OA
BRANCH  19  20
ATOM     20  C   UNL     1       7.363   5.075  13.807  0.00  0.00    +0.000 A 
ATOM     21  C   UNL     1       6.455   4.013  13.805  0.00  0.00    +0.000 A 
ATOM     22  C   UNL     1       6.187   3.327  12.624  0.00  0.00    +0.000 A 
ATOM     23  C   UNL     1       6.833   3.701  11.448  0.00  0.00    +0.000 A 
ATOM     24  C   UNL     1       7.720   4.770  11.436  0.00  0.00    +0.000 A 
ATOM     25  C   UNL     1       7.961   5.477  12.610  0.00  0.00    +0.000 A 
ENDBRANCH  19  20
ENDBRANCH  16  19
ENDBRANCH   3  13
BRANCH   1  26
ATOM     26  C   UNL     1       1.090   7.147  21.074  0.00  0.00    +0.000 C 
BRANCH  26  27
ATOM     27  C   UNL     1       1.371   8.624  20.784  0.00  0.00    +0.000 C 
BRANCH  27  33
ATOM     28  C   UNL     1       0.020  12.932  18.491  0.00  0.00    +0.000 C 
ATOM     29  O   UNL     1      -0.883  12.923  17.656  0.00  0.00    +0.000 OA
ATOM     30  N   UNL     1       0.503  11.782  19.097  0.00  0.00    +0.000 N 
ATOM     31  C   UNL     1       0.036  10.486  18.605  0.00  0.00    +0.000 C 
ATOM     32  C   UNL     1      -0.698   9.723  19.706  0.00  0.00    +0.000 C 
ATOM     33  C   UNL     1       0.167   9.564  20.964  0.00  0.00    +0.000 C 
ATOM     34  C   UNL     1       0.656  10.955  21.420  0.00  0.00    +0.000 C 
ATOM     35  C   UNL     1       1.348  11.733  20.293  0.00  0.00    +0.000 C 
BRANCH  28  37
ATOM     36  C   UNL     1      -0.009  15.133  19.577  0.00  0.00    +0.000 C 
ATOM     37  C   UNL     1       0.664  14.215  18.871  0.00  0.00    +0.000 C 
ENDBRANCH  28  37
ENDBRANCH  27  33
ENDBRANCH  26  27
ENDBRANCH   1  26
TORSDOF 7
ENDMDL
MODEL 7
REMARK VINA RESULT:      -8.1      4.452      6.735
REMARK  Name = 
REMARK  7 active torsions:
REMARK  status: ('A' for Active; 'I' for Inactive)
REMARK    1  A    between atoms: C_2  and  C_3
REMARK    2  A    between atoms: C_8  and  C_9
REMARK    3  A    between atoms: C_9  and  C_10
REMARK    4  A    between atoms: C_10  and  N_11
REMARK    5  A    between atoms: C_13  and  C_14
REMARK    6  A    between atoms: C_17  and  O_18
REMARK    7  A    between atoms: O_18  and  C_19
REMARK                            x       y       z     vdW  Elec       q    Type
REMARK                         _______ _______ _______ _____ _____    ______ ____
ROOT
ATOM      1  N   UNL     1       2.375   6.286  19.995  0.00  0.00    +0.000 N 
ATOM      2  C   UNL     1       3.085   6.479  18.840  0.00  0.00    +0.000 A 
ATOM      3  C   UNL     1       3.644   5.278  18.456  0.00  0.00    +0.000 A 
ATOM      4  C   UNL     1       3.297   4.308  19.463  0.00  0.00    +0.000 A 
ATOM      5  C   UNL     1       3.522   2.942  19.718  0.00  0.00    +0.000 A 
ATOM      6  N   UNL     1       4.245   2.074  18.931  0.00  0.00    +0.000 N 
ATOM      7  N   UNL     1       3.025   2.398  20.850  0.00  0.00    +0.000 NA
ATOM      8  C   UNL     1       2.295   3.179  21.668  0.00  0.00    +0.000 A 
ATOM      9  N   UNL     1       1.986   4.471  21.517  0.00  0.00    +0.000 NA
ATOM     10  C   UNL     1       2.521   4.991  20.399  0.00  0.00    +0.000 A 
ATOM     11  H   UNL     1       4.524   2.306  17.995  0.00  0.00    +0.000 HD
ATOM     12  H   UNL     1       4.380   1.147  19.298  0.00  0.00    +0.000 HD
ENDROOT
BRANCH   3  13
ATOM     13  C   UNL     1       4.454   5.193  17.249  0.00  0.00    +0.000 A 
ATOM     14  C   UNL     1       5.033   3.983  16.856  0.00  0.00    +0.000 A 
ATOM     15  C   UNL     1       5.735   3.891  15.658  0.00  0.00    +0.000 A 
ATOM     16  C   UNL     1       5.961   5.031  14.890  0.00  0.00    +0.000 A 
ATOM     17  C   UNL     1       5.501   6.270  15.338  0.00  0.00    +0.000 A 
ATOM     18  C   UNL     1       4.711   6.340  16.482  0.00  0.00    +0.000 A 
BRANCH  16  19
ATOM     19  O   UNL     1       6.710   4.842  13.754  0.00  0.00    +0.000 OA
BRANCH  19  20
ATOM     20  C   UNL     1       6.340   3.885  12.843  0.00  0.00    +0.000 A 
ATOM     21  C   UNL     1       4.981   3.851  12.520  0.00  0.00    +0.000 A 
ATOM     22  C   UNL     1       4.507   2.926  11.596  0.00  0.00    +0.000 A 
ATOM     23  C   UNL     1       5.391   2.030  11.001  0.00  0.00    +0.000 A 
ATOM     24  C   UNL     1       6.747   2.070  11.299  0.00  0.00    +0.000 A 
ATOM     25  C   UNL     1       7.227   3.019  12.197  0.00  0.00    +0.000 A 
ENDBRANCH  19  20
ENDBRANCH  16  19
ENDBRANCH   3  13
BRANCH   1  26
ATOM     26  C   UNL     1       1.603   7.313  20.692  0.00  0.00    +0.000 C 
BRANCH  26  27
ATOM     27  C   UNL     1       1.502   8.626  19.911  0.00  0.00    +0.000 C 
BRANCH  27  33
ATOM     28  C   UNL     1       0.265  13.511  19.403  0.00  0.00    +0.000 C 
ATOM     29  O   UNL     1      -0.350  13.885  18.405  0.00  0.00    +0.000 OA
ATOM     30  N   UNL     1       0.713  12.210  19.573  0.00  0.00    +0.000 N 
ATOM     31  C   UNL     1       0.595  11.280  18.449  0.00  0.00    +0.000 C 
ATOM     32  C   UNL     1      -0.307  10.102  18.814  0.00  0.00    +0.000 C 
ATOM     33  C   UNL     1       0.176   9.387  20.083  0.00  0.00    +0.000 C 
ATOM     34  C   UNL     1       0.310  10.417  21.225  0.00  0.00    +0.000 C 
ATOM     35  C   UNL     1       1.178  11.619  20.830  0.00  0.00    +0.000 C 
BRANCH  28  37
ATOM     36  C   UNL     1       0.922  15.741  20.188  0.00  0.00    +0.000 C 
ATOM     37  C   UNL     1       0.584  14.478  20.483  0.00  0.00    +0.000 C 
ENDBRANCH  28  37
ENDBRANCH  27  33
ENDBRANCH  26  27
ENDBRANCH   1  26
TORSDOF 7
ENDMDL
MODEL 8
REMARK VINA RESULT:      -8.1      2.187      3.323
REMARK  Name = 
REMARK  7 active torsions:
REMARK  status: ('A' for Active; 'I' for Inactive)
REMARK    1  A    between atoms: C_2  and  C_3
REMARK    2  A    between atoms: C_8  and  C_9
REMARK    3  A    between atoms: C_9  and  C_10
REMARK    4  A    between atoms: C_10  and  N_11
REMARK    5  A    between atoms: C_13  and  C_14
REMARK    6  A    between atoms: C_17  and  O_18
REMARK    7  A    between atoms: O_18  and  C_19
REMARK                            x       y       z     vdW  Elec       q    Type
REMARK                         _______ _______ _______ _____ _____    ______ ____
ROOT
ATOM      1  N   UNL     1      -0.318  12.487  19.511  0.00  0.00    +0.000 N 
ATOM      2  C   UNL     1       0.378  11.475  18.907  0.00  0.00    +0.000 A 
ATOM      3  C   UNL     1       0.557  10.453  19.816  0.00  0.00    +0.000 A 
ATOM      4  C   UNL     1      -0.020  10.890  21.062  0.00  0.00    +0.000 A 
ATOM      5  C   UNL     1      -0.187  10.390  22.368  0.00  0.00    +0.000 A 
ATOM      6  N   UNL     1       0.230   9.162  22.830  0.00  0.00    +0.000 N 
ATOM      7  N   UNL     1      -0.781  11.171  23.296  0.00  0.00    +0.000 NA
ATOM      8  C   UNL     1      -1.229  12.383  22.920  0.00  0.00    +0.000 A 
ATOM      9  N   UNL     1      -1.159  12.951  21.711  0.00  0.00    +0.000 NA
ATOM     10  C   UNL     1      -0.536  12.162  20.818  0.00  0.00    +0.000 A 
ATOM     11  H   UNL     1       0.533   8.432  22.210  0.00  0.00    +0.000 HD
ATOM     12  H   UNL     1       0.107   8.990  23.812  0.00  0.00    +0.000 HD
ENDROOT
BRANCH   3  13
ATOM     13  C   UNL     1       1.268   9.241  19.435  0.00  0.00    +0.000 A 
ATOM     14  C   UNL     1       1.710   9.050  18.124  0.00  0.00    +0.000 A 
ATOM     15  C   UNL     1       2.462   7.928  17.786  0.00  0.00    +0.000 A 
ATOM     16  C   UNL     1       2.689   6.929  18.730  0.00  0.00    +0.000 A 
ATOM     17  C   UNL     1       2.140   7.046  20.008  0.00  0.00    +0.000 A 
ATOM     18  C   UNL     1       1.479   8.216  20.370  0.00  0.00    +0.000 A 
BRANCH  16  19
ATOM     19  O   UNL     1       3.395   5.840  18.282  0.00  0.00    +0.000 OA
BRANCH  19  20
ATOM     20  C   UNL     1       3.007   4.576  18.652  0.00  0.00    +0.000 A 
ATOM     21  C   UNL     1       1.882   4.073  17.995  0.00  0.00    +0.000 A 
ATOM     22  C   UNL     1       1.416   2.795  18.290  0.00  0.00    +0.000 A 
ATOM     23  C   UNL     1       2.074   2.025  19.245  0.00  0.00    +0.000 A 
ATOM     24  C   UNL     1       3.207   2.508  19.887  0.00  0.00    +0.000 A 
ATOM     25  C   UNL     1       3.693   3.772  19.567  0.00  0.00    +0.000 A 
ENDBRANCH  19  20
ENDBRANCH  16  19
ENDBRANCH   3  13
BRANCH   1  26
ATOM     26  C   UNL     1      -0.740  13.726  18.860  0.00  0.00    +0.000 C 
BRANCH  26  27
ATOM     27  C   UNL     1       0.430  14.639  18.483  0.00  0.00    +0.000 C 
BRANCH  27  33
ATOM     28  C   UNL     1       5.206  16.289  18.813  0.00  0.00    +0.000 C 
ATOM     29  O   UNL     1       5.431  17.492  18.937  0.00  0.00    +0.000 OA
ATOM     30  N   UNL     1       3.934  15.770  18.631  0.00  0.00    +0.000 N 
ATOM     31  C   UNL     1       2.826  16.701  18.411  0.00  0.00    +0.000 C 
ATOM     32  C   UNL     1       1.784  16.573  19.521  0.00  0.00    +0.000 C 
ATOM     33  C   UNL     1       1.281  15.130  19.667  0.00  0.00    +0.000 C 
ATOM     34  C   UNL     1       2.490  14.191  19.865  0.00  0.00    +0.000 C 
ATOM     35  C   UNL     1       3.552  14.363  18.772  0.00  0.00    +0.000 C 
BRANCH  28  37
ATOM     36  C   UNL     1       7.095  15.147  17.739  0.00  0.00    +0.000 C 
ATOM     37  C   UNL     1       6.332  15.321  18.827  0.00  0.00    +0.000 C 
ENDBRANCH  28  37
ENDBRANCH  27  33
ENDBRANCH  26  27
ENDBRANCH   1  26
TORSDOF 7
ENDMDL
MODEL 9
REMARK VINA RESULT:      -8.1      4.547      7.135
REMARK  Name = 
REMARK  7 active torsions:
REMARK  status: ('A' for Active; 'I' for Inactive)
REMARK    1  A    between atoms: C_2  and  C_3
REMARK    2  A    between atoms: C_8  and  C_9
REMARK    3  A    between atoms: C_9  and  C_10
REMARK    4  A    between atoms: C_10  and  N_11
REMARK    5  A    between atoms: C_13  and  C_14
REMARK    6  A    between atoms: C_17  and  O_18
REMARK    7  A    between atoms: O_18  and  C_19
REMARK                            x       y       z     vdW  Elec       q    Type
REMARK                         _______ _______ _______ _____ _____    ______ ____
ROOT
ATOM      1  N   UNL     1       2.569   6.144  19.906  0.00  0.00    +0.000 N 
ATOM      2  C   UNL     1       3.446   6.310  18.869  0.00  0.00    +0.000 A 
ATOM      3  C   UNL     1       3.539   5.124  18.170  0.00  0.00    +0.000 A 
ATOM      4  C   UNL     1       2.709   4.165  18.852  0.00  0.00    +0.000 A 
ATOM      5  C   UNL     1       2.347   2.812  18.713  0.00  0.00    +0.000 A 
ATOM      6  N   UNL     1       2.772   1.952  17.727  0.00  0.00    +0.000 N 
ATOM      7  N   UNL     1       1.529   2.256  19.634  0.00  0.00    +0.000 NA
ATOM      8  C   UNL     1       1.058   3.035  20.625  0.00  0.00    +0.000 A 
ATOM      9  N   UNL     1       1.301   4.333  20.842  0.00  0.00    +0.000 NA
ATOM     10  C   UNL     1       2.142   4.848  19.928  0.00  0.00    +0.000 A 
ATOM     11  H   UNL     1       3.244   2.275  16.901  0.00  0.00    +0.000 HD
ATOM     12  H   UNL     1       2.484   0.992  17.817  0.00  0.00    +0.000 HD
ENDROOT
BRANCH   3  13
ATOM     13  C   UNL     1       4.406   5.019  17.005  0.00  0.00    +0.000 A 
ATOM     14  C   UNL     1       5.020   3.808  16.674  0.00  0.00    +0.000 A 
ATOM     15  C   UNL     1       5.780   3.694  15.513  0.00  0.00    +0.000 A 
ATOM     16  C   UNL     1       6.025   4.816  14.724  0.00  0.00    +0.000 A 
ATOM     17  C   UNL     1       5.526   6.060  15.115  0.00  0.00    +0.000 A 
ATOM     18  C   UNL     1       4.683   6.149  16.219  0.00  0.00    +0.000 A 
BRANCH  16  19
ATOM     19  O   UNL     1       6.830   4.609  13.631  0.00  0.00    +0.000 OA
BRANCH  19  20
ATOM     20  C   UNL     1       6.491   3.652  12.706  0.00  0.00    +0.000 A 
ATOM     21  C   UNL     1       5.133   3.571  12.390  0.00  0.00    +0.000 A 
ATOM     22  C   UNL     1       4.690   2.643  11.454  0.00  0.00    +0.000 A 
ATOM     23  C   UNL     1       5.605   1.792  10.839  0.00  0.00    +0.000 A 
ATOM     24  C   UNL     1       6.960   1.881  11.130  0.00  0.00    +0.000 A 
ATOM     25  C   UNL     1       7.408   2.833  12.041  0.00  0.00    +0.000 A 
ENDBRANCH  19  20
ENDBRANCH  16  19
ENDBRANCH   3  13
BRANCH   1  26
ATOM     26  C   UNL     1       2.172   7.187  20.851  0.00  0.00    +0.000 C 
BRANCH  26  27
ATOM     27  C   UNL     1       0.977   8.014  20.371  0.00  0.00    +0.000 C 
BRANCH  27  33
ATOM     28  C   UNL     1      -1.852  11.721  18.396  0.00  0.00    +0.000 C 
ATOM     29  O   UNL     1      -2.058  12.745  19.046  0.00  0.00    +0.000 OA
ATOM     30  N   UNL     1      -1.162  10.629  18.901  0.00  0.00    +0.000 N 
ATOM     31  C   UNL     1      -0.804  10.627  20.320  0.00  0.00    +0.000 C 
ATOM     32  C   UNL     1       0.713  10.576  20.494  0.00  0.00    +0.000 C 
ATOM     33  C   UNL     1       1.332   9.379  19.759  0.00  0.00    +0.000 C 
ATOM     34  C   UNL     1       0.898   9.416  18.278  0.00  0.00    +0.000 C 
ATOM     35  C   UNL     1      -0.624   9.516  18.116  0.00  0.00    +0.000 C 
BRANCH  28  37
ATOM     36  C   UNL     1      -3.659  11.273  16.797  0.00  0.00    +0.000 C 
ATOM     37  C   UNL     1      -2.378  11.603  17.013  0.00  0.00    +0.000 C 
ENDBRANCH  28  37
ENDBRANCH  27  33
ENDBRANCH  26  27
ENDBRANCH   1  26
TORSDOF 7
ENDMDL
