MODEL 1
REMARK VINA RESULT:      -8.1      0.000      0.000
REMARK  Name = 
REMARK  5 active torsions:
REMARK  status: ('A' for Active; 'I' for Inactive)
REMARK    1  A    between atoms: N_2  and  C_4
REMARK    2  A    between atoms: C_5  and  N_6
REMARK    3  A    between atoms: N_6  and  C_7
REMARK    4  A    between atoms: C_12  and  O_13
REMARK    5  A    between atoms: C_15  and  N_16
REMARK                            x       y       z     vdW  Elec       q    Type
REMARK                         _______ _______ _______ _____ _____    ______ ____
ROOT
ATOM      1  C   UNL     1       3.904   3.166  19.443  0.00  0.00    +0.000 A 
ATOM      2  C   UNL     1       4.635   4.254  18.939  0.00  0.00    +0.000 A 
ATOM      3  C   UNL     1       4.003   5.537  18.924  0.00  0.00    +0.000 A 
ATOM      4  C   UNL     1       2.728   5.870  19.459  0.00  0.00    +0.000 A 
ATOM      5  C   UNL     1       2.042   4.739  19.981  0.00  0.00    +0.000 A 
ATOM      6  N   UNL     1       0.830   4.653  20.544  0.00  0.00    +0.000 NA
ATOM      7  O   UNL     1       0.646   3.326  20.877  0.00  0.00    +0.000 OA
ATOM      8  N   UNL     1       1.738   2.557  20.540  0.00  0.00    +0.000 NA
ATOM      9  C   UNL     1       2.623   3.393  19.972  0.00  0.00    +0.000 A 
ENDROOT
BRANCH   4  10
ATOM     10  N   UNL     1       2.279   7.176  19.350  0.00  0.00    +0.000 N 
ATOM     11  C   UNL     1       1.909   7.972  20.523  0.00  0.00    +0.000 C 
ATOM     12  C   UNL     1       0.780   8.930  20.088  0.00  0.00    +0.000 C 
ATOM     13  O   UNL     1       1.188   9.767  18.989  0.00  0.00    +0.000 OA
ATOM     14  C   UNL     1       1.571   8.968  17.854  0.00  0.00    +0.000 C 
ATOM     15  C   UNL     1       2.712   8.001  18.205  0.00  0.00    +0.000 C 
ENDBRANCH   4  10
BRANCH   1  17
ATOM     16  O   UNL     1       3.968   1.058  18.591  0.00  0.00    +0.000 OA
ATOM     17  N   UNL     1       4.418   1.833  19.444  0.00  0.00    +0.000 N 
ATOM     18  O   UNL     1       5.207   1.525  20.347  0.00  0.00    +0.000 OA
ENDBRANCH   1  17
BRANCH   2  19
ATOM     19  N   UNL     1       5.910   4.112  18.330  0.00  0.00    +0.000 N 
ATOM     20  H   UNL     1       6.682   4.440  18.915  0.00  0.00    +0.000 HD
BRANCH  19  21
ATOM     21  C   UNL     1       6.236   4.379  16.973  0.00  0.00    +0.000 A 
ATOM     22  C   UNL     1       5.687   3.534  15.999  0.00  0.00    +0.000 A 
ATOM     23  C   UNL     1       5.941   3.740  14.641  0.00  0.00    +0.000 A 
ATOM     24  C   UNL     1       6.774   4.782  14.239  0.00  0.00    +0.000 A 
ATOM     25  C   UNL     1       7.380   5.598  15.193  0.00  0.00    +0.000 A 
ATOM     26  C   UNL     1       7.127   5.384  16.548  0.00  0.00    +0.000 A 
BRANCH  26  27
ATOM     27  O   UNL     1       7.776   6.162  17.473  0.00  0.00    +0.000 OA
ATOM     28  H   UNL     1       7.134   6.470  18.132  0.00  0.00    +0.000 HD
ENDBRANCH  26  27
ENDBRANCH  19  21
ENDBRANCH   2  19
TORSDOF 5
ENDMDL
MODEL 2
REMARK VINA RESULT:      -8.0      1.479      1.896
REMARK  Name = 
REMARK  5 active torsions:
REMARK  status: ('A' for Active; 'I' for Inactive)
REMARK    1  A    between atoms: N_2  and  C_4
REMARK    2  A    between atoms: C_5  and  N_6
REMARK    3  A    between atoms: N_6  and  C_7
REMARK    4  A    between atoms: C_12  and  O_13
REMARK    5  A    between atoms: C_15  and  N_16
REMARK                            x       y       z     vdW  Elec       q    Type
REMARK                         _______ _______ _______ _____ _____    ______ ____
ROOT
ATOM      1  C   UNL     1       3.806   3.259  19.618  0.00  0.00    +0.000 A 
ATOM      2  C   UNL     1       4.533   4.428  19.342  0.00  0.00    +0.000 A 
ATOM      3  C   UNL     1       3.839   5.678  19.392  0.00  0.00    +0.000 A 
ATOM      4  C   UNL     1       2.490   5.893  19.790  0.00  0.00    +0.000 A 
ATOM      5  C   UNL     1       1.808   4.681  20.084  0.00  0.00    +0.000 A 
ATOM      6  N   UNL     1       0.541   4.480  20.469  0.00  0.00    +0.000 NA
ATOM      7  O   UNL     1       0.389   3.116  20.621  0.00  0.00    +0.000 OA
ATOM      8  N   UNL     1       1.556   2.437  20.344  0.00  0.00    +0.000 NA
ATOM      9  C   UNL     1       2.458   3.370  19.997  0.00  0.00    +0.000 A 
ENDROOT
BRANCH   4  10
ATOM     10  N   UNL     1       1.989   7.184  19.773  0.00  0.00    +0.000 N 
ATOM     11  C   UNL     1       1.631   7.895  21.003  0.00  0.00    +0.000 C 
ATOM     12  C   UNL     1       0.451   8.830  20.664  0.00  0.00    +0.000 C 
ATOM     13  O   UNL     1       0.787   9.745  19.603  0.00  0.00    +0.000 OA
ATOM     14  C   UNL     1       1.159   9.029  18.410  0.00  0.00    +0.000 C 
ATOM     15  C   UNL     1       2.348   8.090  18.666  0.00  0.00    +0.000 C 
ENDBRANCH   4  10
BRANCH   1  17
ATOM     16  O   UNL     1       3.988   1.222  18.622  0.00  0.00    +0.000 OA
ATOM     17  N   UNL     1       4.387   1.957  19.534  0.00  0.00    +0.000 N 
ATOM     18  O   UNL     1       5.181   1.627  20.424  0.00  0.00    +0.000 OA
ENDBRANCH   1  17
BRANCH   2  19
ATOM     19  N   UNL     1       5.881   4.412  18.894  0.00  0.00    +0.000 N 
ATOM     20  H   UNL     1       6.476   3.758  19.408  0.00  0.00    +0.000 HD
BRANCH  19  21
ATOM     21  C   UNL     1       6.667   5.538  18.531  0.00  0.00    +0.000 A 
ATOM     22  C   UNL     1       6.420   6.121  17.281  0.00  0.00    +0.000 A 
ATOM     23  C   UNL     1       7.135   7.244  16.857  0.00  0.00    +0.000 A 
ATOM     24  C   UNL     1       8.130   7.784  17.668  0.00  0.00    +0.000 A 
ATOM     25  C   UNL     1       8.435   7.185  18.889  0.00  0.00    +0.000 A 
ATOM     26  C   UNL     1       7.722   6.060  19.305  0.00  0.00    +0.000 A 
BRANCH  26  27
ATOM     27  O   UNL     1       8.074   5.452  20.483  0.00  0.00    +0.000 OA
ATOM     28  H   UNL     1       8.347   6.131  21.120  0.00  0.00    +0.000 HD
ENDBRANCH  26  27
ENDBRANCH  19  21
ENDBRANCH   2  19
TORSDOF 5
ENDMDL
MODEL 3
REMARK VINA RESULT:      -7.8      0.939      1.327
REMARK  Name = 
REMARK  5 active torsions:
REMARK  status: ('A' for Active; 'I' for Inactive)
REMARK    1  A    between atoms: N_2  and  C_4
REMARK    2  A    between atoms: C_5  and  N_6
REMARK    3  A    between atoms: N_6  and  C_7
REMARK    4  A    between atoms: C_12  and  O_13
REMARK    5  A    between atoms: C_15  and  N_16
REMARK                            x       y       z     vdW  Elec       q    Type
REMARK                         _______ _______ _______ _____ _____    ______ ____
ROOT
ATOM      1  C   UNL     1       3.942   3.209  19.555  0.00  0.00    +0.000 A 
ATOM      2  C   UNL     1       4.666   4.311  19.072  0.00  0.00    +0.000 A 
ATOM      3  C   UNL     1       4.014   5.584  19.048  0.00  0.00    +0.000 A 
ATOM      4  C   UNL     1       2.722   5.894  19.556  0.00  0.00    +0.000 A 
ATOM      5  C   UNL     1       2.043   4.750  20.058  0.00  0.00    +0.000 A 
ATOM      6  N   UNL     1       0.820   4.642  20.593  0.00  0.00    +0.000 NA
ATOM      7  O   UNL     1       0.650   3.310  20.916  0.00  0.00    +0.000 OA
ATOM      8  N   UNL     1       1.762   2.561  20.601  0.00  0.00    +0.000 NA
ATOM      9  C   UNL     1       2.646   3.413  20.056  0.00  0.00    +0.000 A 
ENDROOT
BRANCH   4  10
ATOM     10  N   UNL     1       2.255   7.193  19.442  0.00  0.00    +0.000 N 
ATOM     11  C   UNL     1       1.877   7.989  20.612  0.00  0.00    +0.000 C 
ATOM     12  C   UNL     1       0.734   8.929  20.176  0.00  0.00    +0.000 C 
ATOM     13  O   UNL     1       1.127   9.767  19.072  0.00  0.00    +0.000 OA
ATOM     14  C   UNL     1       1.518   8.968  17.939  0.00  0.00    +0.000 C 
ATOM     15  C   UNL     1       2.673   8.018  18.292  0.00  0.00    +0.000 C 
ENDBRANCH   4  10
BRANCH   1  17
ATOM     16  O   UNL     1       4.060   1.106  18.696  0.00  0.00    +0.000 OA
ATOM     17  N   UNL     1       4.477   1.885  19.563  0.00  0.00    +0.000 N 
ATOM     18  O   UNL     1       5.251   1.586  20.482  0.00  0.00    +0.000 OA
ENDBRANCH   1  17
BRANCH   2  19
ATOM     19  N   UNL     1       5.957   4.193  18.492  0.00  0.00    +0.000 N 
ATOM     20  H   UNL     1       6.705   4.572  19.076  0.00  0.00    +0.000 HD
BRANCH  19  21
ATOM     21  C   UNL     1       6.298   4.417  17.130  0.00  0.00    +0.000 A 
ATOM     22  C   UNL     1       7.016   5.583  16.829  0.00  0.00    +0.000 A 
ATOM     23  C   UNL     1       7.408   5.867  15.519  0.00  0.00    +0.000 A 
ATOM     24  C   UNL     1       7.064   5.000  14.485  0.00  0.00    +0.000 A 
ATOM     25  C   UNL     1       6.299   3.865  14.752  0.00  0.00    +0.000 A 
ATOM     26  C   UNL     1       5.904   3.589  16.061  0.00  0.00    +0.000 A 
BRANCH  26  27
ATOM     27  O   UNL     1       5.107   2.499  16.296  0.00  0.00    +0.000 OA
ATOM     28  H   UNL     1       5.011   2.376  17.253  0.00  0.00    +0.000 HD
ENDBRANCH  26  27
ENDBRANCH  19  21
ENDBRANCH   2  19
TORSDOF 5
ENDMDL
MODEL 4
REMARK VINA RESULT:      -7.6      1.442      2.092
REMARK  Name = 
REMARK  5 active torsions:
REMARK  status: ('A' for Active; 'I' for Inactive)
REMARK    1  A    between atoms: N_2  and  C_4
REMARK    2  A    between atoms: C_5  and  N_6
REMARK    3  A    between atoms: N_6  and  C_7
REMARK    4  A    between atoms: C_12  and  O_13
REMARK    5  A    between atoms: C_15  and  N_16
REMARK                            x       y       z     vdW  Elec       q    Type
REMARK                         _______ _______ _______ _____ _____    ______ ____
ROOT
ATOM      1  C   UNL     1       3.890   3.093  19.607  0.00  0.00    +0.000 A 
ATOM      2  C   UNL     1       4.592   4.273  19.311  0.00  0.00    +0.000 A 
ATOM      3  C   UNL     1       3.875   5.509  19.357  0.00  0.00    +0.000 A 
ATOM      4  C   UNL     1       2.527   5.704  19.770  0.00  0.00    +0.000 A 
ATOM      5  C   UNL     1       1.871   4.482  20.084  0.00  0.00    +0.000 A 
ATOM      6  N   UNL     1       0.613   4.261  20.486  0.00  0.00    +0.000 NA
ATOM      7  O   UNL     1       0.489   2.896  20.653  0.00  0.00    +0.000 OA
ATOM      8  N   UNL     1       1.665   2.237  20.368  0.00  0.00    +0.000 NA
ATOM      9  C   UNL     1       2.545   3.182  20.001  0.00  0.00    +0.000 A 
ENDROOT
BRANCH   4  10
ATOM     10  N   UNL     1       2.001   6.984  19.747  0.00  0.00    +0.000 N 
ATOM     11  C   UNL     1       1.688   7.673  18.492  0.00  0.00    +0.000 C 
ATOM     12  C   UNL     1       1.917   9.181  18.729  0.00  0.00    +0.000 C 
ATOM     13  O   UNL     1       1.114   9.676  19.818  0.00  0.00    +0.000 OA
ATOM     14  C   UNL     1       1.417   8.971  21.037  0.00  0.00    +0.000 C 
ATOM     15  C   UNL     1       1.189   7.458  20.884  0.00  0.00    +0.000 C 
ENDBRANCH   4  10
BRANCH   1  17
ATOM     16  O   UNL     1       4.118   1.060  18.612  0.00  0.00    +0.000 OA
ATOM     17  N   UNL     1       4.495   1.801  19.528  0.00  0.00    +0.000 N 
ATOM     18  O   UNL     1       5.285   1.485  20.426  0.00  0.00    +0.000 OA
ENDBRANCH   1  17
BRANCH   2  19
ATOM     19  N   UNL     1       5.934   4.277  18.847  0.00  0.00    +0.000 N 
ATOM     20  H   UNL     1       6.546   3.638  19.357  0.00  0.00    +0.000 HD
BRANCH  19  21
ATOM     21  C   UNL     1       6.696   5.415  18.466  0.00  0.00    +0.000 A 
ATOM     22  C   UNL     1       6.490   5.928  17.178  0.00  0.00    +0.000 A 
ATOM     23  C   UNL     1       7.184   7.056  16.734  0.00  0.00    +0.000 A 
ATOM     24  C   UNL     1       8.116   7.673  17.565  0.00  0.00    +0.000 A 
ATOM     25  C   UNL     1       8.381   7.145  18.828  0.00  0.00    +0.000 A 
ATOM     26  C   UNL     1       7.690   6.014  19.264  0.00  0.00    +0.000 A 
BRANCH  26  27
ATOM     27  O   UNL     1       8.004   5.477  20.487  0.00  0.00    +0.000 OA
ATOM     28  H   UNL     1       8.008   6.184  21.151  0.00  0.00    +0.000 HD
ENDBRANCH  26  27
ENDBRANCH  19  21
ENDBRANCH   2  19
TORSDOF 5
ENDMDL
MODEL 5
REMARK VINA RESULT:      -7.5      1.472      5.926
REMARK  Name = 
REMARK  5 active torsions:
REMARK  status: ('A' for Active; 'I' for Inactive)
REMARK    1  A    between atoms: N_2  and  C_4
REMARK    2  A    between atoms: C_5  and  N_6
REMARK    3  A    between atoms: N_6  and  C_7
REMARK    4  A    between atoms: C_12  and  O_13
REMARK    5  A    between atoms: C_15  and  N_16
REMARK                            x       y       z     vdW  Elec       q    Type
REMARK                         _______ _______ _______ _____ _____    ______ ____
ROOT
ATOM      1  C   UNL     1       2.639   4.301  19.795  0.00  0.00    +0.000 A 
ATOM      2  C   UNL     1       3.145   5.559  19.430  0.00  0.00    +0.000 A 
ATOM      3  C   UNL     1       4.083   5.617  18.352  0.00  0.00    +0.000 A 
ATOM      4  C   UNL     1       4.504   4.540  17.523  0.00  0.00    +0.000 A 
ATOM      5  C   UNL     1       3.942   3.295  17.918  0.00  0.00    +0.000 A 
ATOM      6  N   UNL     1       4.113   2.072  17.400  0.00  0.00    +0.000 NA
ATOM      7  O   UNL     1       3.339   1.214  18.157  0.00  0.00    +0.000 OA
ATOM      8  N   UNL     1       2.662   1.881  19.155  0.00  0.00    +0.000 NA
ATOM      9  C   UNL     1       3.016   3.173  19.050  0.00  0.00    +0.000 A 
ENDROOT
BRANCH   4  10
ATOM     10  N   UNL     1       5.429   4.790  16.523  0.00  0.00    +0.000 N 
ATOM     11  C   UNL     1       5.123   4.565  15.108  0.00  0.00    +0.000 C 
ATOM     12  C   UNL     1       6.439   4.151  14.417  0.00  0.00    +0.000 C 
ATOM     13  O   UNL     1       7.464   5.150  14.583  0.00  0.00    +0.000 OA
ATOM     14  C   UNL     1       7.734   5.375  15.979  0.00  0.00    +0.000 C 
ATOM     15  C   UNL     1       6.469   5.815  16.733  0.00  0.00    +0.000 C 
ENDBRANCH   4  10
BRANCH   1  17
ATOM     16  O   UNL     1       0.577   4.497  20.736  0.00  0.00    +0.000 OA
ATOM     17  N   UNL     1       1.746   4.125  20.896  0.00  0.00    +0.000 N 
ATOM     18  O   UNL     1       2.222   3.694  21.955  0.00  0.00    +0.000 OA
ENDBRANCH   1  17
BRANCH   2  19
ATOM     19  N   UNL     1       2.868   6.745  20.160  0.00  0.00    +0.000 N 
ATOM     20  H   UNL     1       2.688   6.582  21.153  0.00  0.00    +0.000 HD
BRANCH  19  21
ATOM     21  C   UNL     1       2.059   7.834  19.734  0.00  0.00    +0.000 A 
ATOM     22  C   UNL     1       2.084   8.161  18.371  0.00  0.00    +0.000 A 
ATOM     23  C   UNL     1       1.303   9.204  17.868  0.00  0.00    +0.000 A 
ATOM     24  C   UNL     1       0.505   9.955  18.728  0.00  0.00    +0.000 A 
ATOM     25  C   UNL     1       0.510   9.686  20.096  0.00  0.00    +0.000 A 
ATOM     26  C   UNL     1       1.297   8.647  20.595  0.00  0.00    +0.000 A 
BRANCH  26  27
ATOM     27  O   UNL     1       1.331   8.434  21.949  0.00  0.00    +0.000 OA
ATOM     28  H   UNL     1       1.020   7.535  22.136  0.00  0.00    +0.000 HD
ENDBRANCH  26  27
ENDBRANCH  19  21
ENDBRANCH   2  19
TORSDOF 5
ENDMDL
MODEL 6
REMARK VINA RESULT:      -7.5      1.339      5.795
REMARK  Name = 
REMARK  5 active torsions:
REMARK  status: ('A' for Active; 'I' for Inactive)
REMARK    1  A    between atoms: N_2  and  C_4
REMARK    2  A    between atoms: C_5  and  N_6
REMARK    3  A    between atoms: N_6  and  C_7
REMARK    4  A    between atoms: C_12  and  O_13
REMARK    5  A    between atoms: C_15  and  N_16
REMARK                            x       y       z     vdW  Elec       q    Type
REMARK                         _______ _______ _______ _____ _____    ______ ____
ROOT
ATOM      1  C   UNL     1       2.596   4.099  19.890  0.00  0.00    +0.000 A 
ATOM      2  C   UNL     1       3.123   5.368  19.605  0.00  0.00    +0.000 A 
ATOM      3  C   UNL     1       4.171   5.457  18.635  0.00  0.00    +0.000 A 
ATOM      4  C   UNL     1       4.689   4.400  17.835  0.00  0.00    +0.000 A 
ATOM      5  C   UNL     1       4.103   3.143  18.145  0.00  0.00    +0.000 A 
ATOM      6  N   UNL     1       4.341   1.932  17.625  0.00  0.00    +0.000 NA
ATOM      7  O   UNL     1       3.501   1.052  18.279  0.00  0.00    +0.000 OA
ATOM      8  N   UNL     1       2.714   1.693  19.211  0.00  0.00    +0.000 NA
ATOM      9  C   UNL     1       3.063   2.989  19.168  0.00  0.00    +0.000 A 
ENDROOT
BRANCH   4  10
ATOM     10  N   UNL     1       5.712   4.679  16.944  0.00  0.00    +0.000 N 
ATOM     11  C   UNL     1       6.979   5.275  17.377  0.00  0.00    +0.000 C 
ATOM     12  C   UNL     1       7.492   6.151  16.215  0.00  0.00    +0.000 C 
ATOM     13  O   UNL     1       7.654   5.386  15.004  0.00  0.00    +0.000 OA
ATOM     14  C   UNL     1       6.405   4.788  14.608  0.00  0.00    +0.000 C 
ATOM     15  C   UNL     1       5.841   3.879  15.711  0.00  0.00    +0.000 C 
ENDBRANCH   4  10
BRANCH   1  17
ATOM     16  O   UNL     1       0.448   4.279  20.618  0.00  0.00    +0.000 OA
ATOM     17  N   UNL     1       1.593   3.893  20.887  0.00  0.00    +0.000 N 
ATOM     18  O   UNL     1       1.955   3.424  21.974  0.00  0.00    +0.000 OA
ENDBRANCH   1  17
BRANCH   2  19
ATOM     19  N   UNL     1       2.757   6.537  20.324  0.00  0.00    +0.000 N 
ATOM     20  H   UNL     1       2.381   6.344  21.255  0.00  0.00    +0.000 HD
BRANCH  19  21
ATOM     21  C   UNL     1       2.091   7.680  19.802  0.00  0.00    +0.000 A 
ATOM     22  C   UNL     1       2.192   7.911  18.424  0.00  0.00    +0.000 A 
ATOM     23  C   UNL     1       1.550   9.000  17.829  0.00  0.00    +0.000 A 
ATOM     24  C   UNL     1       0.820   9.891  18.612  0.00  0.00    +0.000 A 
ATOM     25  C   UNL     1       0.756   9.715  19.993  0.00  0.00    +0.000 A 
ATOM     26  C   UNL     1       1.404   8.629  20.583  0.00  0.00    +0.000 A 
BRANCH  26  27
ATOM     27  O   UNL     1       1.375   8.503  21.948  0.00  0.00    +0.000 OA
ATOM     28  H   UNL     1       0.545   8.076  22.210  0.00  0.00    +0.000 HD
ENDBRANCH  26  27
ENDBRANCH  19  21
ENDBRANCH   2  19
TORSDOF 5
ENDMDL
MODEL 7
REMARK VINA RESULT:      -7.3      1.390      2.029
REMARK  Name = 
REMARK  5 active torsions:
REMARK  status: ('A' for Active; 'I' for Inactive)
REMARK    1  A    between atoms: N_2  and  C_4
REMARK    2  A    between atoms: C_5  and  N_6
REMARK    3  A    between atoms: N_6  and  C_7
REMARK    4  A    between atoms: C_12  and  O_13
REMARK    5  A    between atoms: C_15  and  N_16
REMARK                            x       y       z     vdW  Elec       q    Type
REMARK                         _______ _______ _______ _____ _____    ______ ____
ROOT
ATOM      1  C   UNL     1       3.791   3.176  19.532  0.00  0.00    +0.000 A 
ATOM      2  C   UNL     1       4.517   4.340  19.231  0.00  0.00    +0.000 A 
ATOM      3  C   UNL     1       3.836   5.595  19.310  0.00  0.00    +0.000 A 
ATOM      4  C   UNL     1       2.505   5.820  19.759  0.00  0.00    +0.000 A 
ATOM      5  C   UNL     1       1.824   4.613  20.077  0.00  0.00    +0.000 A 
ATOM      6  N   UNL     1       0.571   4.421  20.510  0.00  0.00    +0.000 NA
ATOM      7  O   UNL     1       0.414   3.058  20.664  0.00  0.00    +0.000 OA
ATOM      8  N   UNL     1       1.564   2.371  20.342  0.00  0.00    +0.000 NA
ATOM      9  C   UNL     1       2.460   3.296  19.962  0.00  0.00    +0.000 A 
ENDROOT
BRANCH   4  10
ATOM     10  N   UNL     1       2.013   7.115  19.764  0.00  0.00    +0.000 N 
ATOM     11  C   UNL     1       1.666   7.810  21.006  0.00  0.00    +0.000 C 
ATOM     12  C   UNL     1       0.492   8.759  20.685  0.00  0.00    +0.000 C 
ATOM     13  O   UNL     1       0.831   9.688  19.637  0.00  0.00    +0.000 OA
ATOM     14  C   UNL     1       1.192   8.987  18.432  0.00  0.00    +0.000 C 
ATOM     15  C   UNL     1       2.375   8.035  18.668  0.00  0.00    +0.000 C 
ENDBRANCH   4  10
BRANCH   1  17
ATOM     16  O   UNL     1       5.232   1.567  20.246  0.00  0.00    +0.000 OA
ATOM     17  N   UNL     1       4.358   1.869  19.423  0.00  0.00    +0.000 N 
ATOM     18  O   UNL     1       4.001   1.168  18.468  0.00  0.00    +0.000 OA
ENDBRANCH   1  17
BRANCH   2  19
ATOM     19  N   UNL     1       5.846   4.313  18.731  0.00  0.00    +0.000 N 
ATOM     20  H   UNL     1       6.456   3.657  19.224  0.00  0.00    +0.000 HD
BRANCH  19  21
ATOM     21  C   UNL     1       6.625   5.434  18.335  0.00  0.00    +0.000 A 
ATOM     22  C   UNL     1       7.550   5.936  19.260  0.00  0.00    +0.000 A 
ATOM     23  C   UNL     1       8.369   7.022  18.941  0.00  0.00    +0.000 A 
ATOM     24  C   UNL     1       8.255   7.640  17.698  0.00  0.00    +0.000 A 
ATOM     25  C   UNL     1       7.300   7.195  16.784  0.00  0.00    +0.000 A 
ATOM     26  C   UNL     1       6.480   6.114  17.110  0.00  0.00    +0.000 A 
BRANCH  26  27
ATOM     27  O   UNL     1       5.511   5.728  16.221  0.00  0.00    +0.000 OA
ATOM     28  H   UNL     1       4.883   5.142  16.672  0.00  0.00    +0.000 HD
ENDBRANCH  26  27
ENDBRANCH  19  21
ENDBRANCH   2  19
TORSDOF 5
ENDMDL
MODEL 8
REMARK VINA RESULT:      -7.2      9.942     12.377
REMARK  Name = 
REMARK  5 active torsions:
REMARK  status: ('A' for Active; 'I' for Inactive)
REMARK    1  A    between atoms: N_2  and  C_4
REMARK    2  A    between atoms: C_5  and  N_6
REMARK    3  A    between atoms: N_6  and  C_7
REMARK    4  A    between atoms: C_12  and  O_13
REMARK    5  A    between atoms: C_15  and  N_16
REMARK                            x       y       z     vdW  Elec       q    Type
REMARK                         _______ _______ _______ _____ _____    ______ ____
ROOT
ATOM      1  C   UNL     1      -6.315  12.067  20.623  0.00  0.00    +0.000 A 
ATOM      2  C   UNL     1      -5.148  12.781  20.307  0.00  0.00    +0.000 A 
ATOM      3  C   UNL     1      -4.578  13.617  21.318  0.00  0.00    +0.000 A 
ATOM      4  C   UNL     1      -5.007  13.740  22.669  0.00  0.00    +0.000 A 
ATOM      5  C   UNL     1      -6.174  12.976  22.944  0.00  0.00    +0.000 A 
ATOM      6  N   UNL     1      -6.873  12.853  24.079  0.00  0.00    +0.000 NA
ATOM      7  O   UNL     1      -7.917  11.990  23.805  0.00  0.00    +0.000 OA
ATOM      8  N   UNL     1      -7.887  11.550  22.501  0.00  0.00    +0.000 NA
ATOM      9  C   UNL     1      -6.828  12.145  21.927  0.00  0.00    +0.000 A 
ENDROOT
BRANCH   4  10
ATOM     10  N   UNL     1      -4.327  14.607  23.508  0.00  0.00    +0.000 N 
ATOM     11  C   UNL     1      -2.972  14.322  23.987  0.00  0.00    +0.000 C 
ATOM     12  C   UNL     1      -2.844  14.942  25.394  0.00  0.00    +0.000 C 
ATOM     13  O   UNL     1      -3.111  16.358  25.376  0.00  0.00    +0.000 OA
ATOM     14  C   UNL     1      -4.437  16.621  24.881  0.00  0.00    +0.000 C 
ATOM     15  C   UNL     1      -4.633  16.050  23.467  0.00  0.00    +0.000 C 
ENDBRANCH   4  10
BRANCH   1  17
ATOM     16  O   UNL     1      -6.979  10.031  19.855  0.00  0.00    +0.000 OA
ATOM     17  N   UNL     1      -6.998  11.254  19.667  0.00  0.00    +0.000 N 
ATOM     18  O   UNL     1      -7.485  11.820  18.680  0.00  0.00    +0.000 OA
ENDBRANCH   1  17
BRANCH   2  19
ATOM     19  N   UNL     1      -4.591  12.811  19.001  0.00  0.00    +0.000 N 
ATOM     20  H   UNL     1      -5.238  13.151  18.287  0.00  0.00    +0.000 HD
BRANCH  19  21
ATOM     21  C   UNL     1      -3.757  11.822  18.412  0.00  0.00    +0.000 A 
ATOM     22  C   UNL     1      -2.461  11.681  18.927  0.00  0.00    +0.000 A 
ATOM     23  C   UNL     1      -1.586  10.718  18.418  0.00  0.00    +0.000 A 
ATOM     24  C   UNL     1      -1.987   9.900  17.364  0.00  0.00    +0.000 A 
ATOM     25  C   UNL     1      -3.249  10.063  16.796  0.00  0.00    +0.000 A 
ATOM     26  C   UNL     1      -4.117  11.031  17.304  0.00  0.00    +0.000 A 
BRANCH  26  27
ATOM     27  O   UNL     1      -5.333  11.213  16.696  0.00  0.00    +0.000 OA
ATOM     28  H   UNL     1      -6.032  11.172  17.368  0.00  0.00    +0.000 HD
ENDBRANCH  26  27
ENDBRANCH  19  21
ENDBRANCH   2  19
TORSDOF 5
ENDMDL
MODEL 9
REMARK VINA RESULT:      -7.1      1.015      1.782
REMARK  Name = 
REMARK  5 active torsions:
REMARK  status: ('A' for Active; 'I' for Inactive)
REMARK    1  A    between atoms: N_2  and  C_4
REMARK    2  A    between atoms: C_5  and  N_6
REMARK    3  A    between atoms: N_6  and  C_7
REMARK    4  A    between atoms: C_12  and  O_13
REMARK    5  A    between atoms: C_15  and  N_16
REMARK                            x       y       z     vdW  Elec       q    Type
REMARK                         _______ _______ _______ _____ _____    ______ ____
ROOT
ATOM      1  C   UNL     1       4.011   3.131  19.695  0.00  0.00    +0.000 A 
ATOM      2  C   UNL     1       4.691   4.240  19.167  0.00  0.00    +0.000 A 
ATOM      3  C   UNL     1       3.996   5.489  19.111  0.00  0.00    +0.000 A 
ATOM      4  C   UNL     1       2.701   5.772  19.626  0.00  0.00    +0.000 A 
ATOM      5  C   UNL     1       2.068   4.623  20.174  0.00  0.00    +0.000 A 
ATOM      6  N   UNL     1       0.856   4.492  20.729  0.00  0.00    +0.000 NA
ATOM      7  O   UNL     1       0.735   3.167  21.098  0.00  0.00    +0.000 OA
ATOM      8  N   UNL     1       1.868   2.445  20.792  0.00  0.00    +0.000 NA
ATOM      9  C   UNL     1       2.716   3.308  20.208  0.00  0.00    +0.000 A 
ENDROOT
BRANCH   4  10
ATOM     10  N   UNL     1       2.189   7.050  19.476  0.00  0.00    +0.000 N 
ATOM     11  C   UNL     1       1.936   7.636  18.157  0.00  0.00    +0.000 C 
ATOM     12  C   UNL     1       2.170   9.156  18.281  0.00  0.00    +0.000 C 
ATOM     13  O   UNL     1       1.326   9.744  19.290  0.00  0.00    +0.000 OA
ATOM     14  C   UNL     1       1.570   9.139  20.574  0.00  0.00    +0.000 C 
ATOM     15  C   UNL     1       1.335   7.621  20.535  0.00  0.00    +0.000 C 
ENDBRANCH   4  10
BRANCH   1  17
ATOM     16  O   UNL     1       5.340   1.576  20.691  0.00  0.00    +0.000 OA
ATOM     17  N   UNL     1       4.591   1.826  19.739  0.00  0.00    +0.000 N 
ATOM     18  O   UNL     1       4.372   1.071  18.782  0.00  0.00    +0.000 OA
ENDBRANCH   1  17
BRANCH   2  19
ATOM     19  N   UNL     1       5.977   4.146  18.573  0.00  0.00    +0.000 N 
ATOM     20  H   UNL     1       6.725   4.537  19.150  0.00  0.00    +0.000 HD
BRANCH  19  21
ATOM     21  C   UNL     1       6.301   4.378  17.208  0.00  0.00    +0.000 A 
ATOM     22  C   UNL     1       7.066   5.513  16.911  0.00  0.00    +0.000 A 
ATOM     23  C   UNL     1       7.444   5.802  15.597  0.00  0.00    +0.000 A 
ATOM     24  C   UNL     1       7.037   4.970  14.556  0.00  0.00    +0.000 A 
ATOM     25  C   UNL     1       6.225   3.869  14.821  0.00  0.00    +0.000 A 
ATOM     26  C   UNL     1       5.845   3.588  16.134  0.00  0.00    +0.000 A 
BRANCH  26  27
ATOM     27  O   UNL     1       5.001   2.533  16.368  0.00  0.00    +0.000 OA
ATOM     28  H   UNL     1       5.130   1.866  15.676  0.00  0.00    +0.000 HD
ENDBRANCH  26  27
ENDBRANCH  19  21
ENDBRANCH   2  19
TORSDOF 5
ENDMDL
