MODEL 1
REMARK VINA RESULT:      -6.5      0.000      0.000
REMARK  Name = 
REMARK  4 active torsions:
REMARK  status: ('A' for Active; 'I' for Inactive)
REMARK    1  A    between atoms: N_1  and  C_2
REMARK    2  A    between atoms: C_7  and  N_8
REMARK    3  A    between atoms: C_11  and  C_12
REMARK    4  A    between atoms: C_12  and  O_13
REMARK                            x       y       z     vdW  Elec       q    Type
REMARK                         _______ _______ _______ _____ _____    ______ ____
ROOT
ATOM      1  C   UNL     1       5.689   6.383  17.421  0.00  0.00    +0.000 A 
ATOM      2  C   UNL     1       6.958   6.971  17.426  0.00  0.00    +0.000 A 
ATOM      3  C   UNL     1       7.881   6.632  18.405  0.00  0.00    +0.000 A 
ATOM      4  C   UNL     1       7.501   5.711  19.361  0.00  0.00    +0.000 A 
ATOM      5  N   UNL     1       6.295   5.100  19.384  0.00  0.00    +0.000 NA
ATOM      6  C   UNL     1       5.401   5.402  18.410  0.00  0.00    +0.000 A 
ENDROOT
BRANCH   6   7
ATOM      7  N   UNL     1       4.226   4.649  18.325  0.00  0.00    +0.000 N 
ATOM      8  C   UNL     1       4.392   3.207  18.548  0.00  0.00    +0.000 C 
ATOM      9  C   UNL     1       3.242   2.497  17.826  0.00  0.00    +0.000 C 
ATOM     10  C   UNL     1       1.853   3.040  18.229  0.00  0.00    +0.000 C 
ATOM     11  C   UNL     1       1.835   4.581  18.202  0.00  0.00    +0.000 C 
ATOM     12  C   UNL     1       3.023   5.184  18.964  0.00  0.00    +0.000 C 
BRANCH  10  13
ATOM     13  C   UNL     1       1.401   2.514  19.598  0.00  0.00    +0.000 C 
BRANCH  13  14
ATOM     14  O   UNL     1       0.351   3.313  20.125  0.00  0.00    +0.000 OA
ATOM     15  H   UNL     1      -0.462   3.092  19.639  0.00  0.00    +0.000 HD
ENDBRANCH  13  14
ENDBRANCH  10  13
ENDBRANCH   6   7
BRANCH   1  16
ATOM     16  N   UNL     1       4.880   6.591  16.280  0.00  0.00    +0.000 N 
ATOM     17  H   UNL     1       3.893   6.693  16.490  0.00  0.00    +0.000 HD
ATOM     18  H   UNL     1       5.080   5.932  15.538  0.00  0.00    +0.000 HD
ENDBRANCH   1  16
TORSDOF 4
ENDMDL
MODEL 2
REMARK VINA RESULT:      -6.4      2.663      5.377
REMARK  Name = 
REMARK  4 active torsions:
REMARK  status: ('A' for Active; 'I' for Inactive)
REMARK    1  A    between atoms: N_1  and  C_2
REMARK    2  A    between atoms: C_7  and  N_8
REMARK    3  A    between atoms: C_11  and  C_12
REMARK    4  A    between atoms: C_12  and  O_13
REMARK                            x       y       z     vdW  Elec       q    Type
REMARK                         _______ _______ _______ _____ _____    ______ ____
ROOT
ATOM      1  C   UNL     1       2.084   4.860  19.867  0.00  0.00    +0.000 A 
ATOM      2  C   UNL     1       1.007   4.171  20.436  0.00  0.00    +0.000 A 
ATOM      3  C   UNL     1       0.668   2.905  19.980  0.00  0.00    +0.000 A 
ATOM      4  C   UNL     1       1.419   2.364  18.956  0.00  0.00    +0.000 A 
ATOM      5  N   UNL     1       2.481   2.981  18.390  0.00  0.00    +0.000 NA
ATOM      6  C   UNL     1       2.838   4.204  18.854  0.00  0.00    +0.000 A 
ENDROOT
BRANCH   6   7
ATOM      7  N   UNL     1       4.033   4.769  18.399  0.00  0.00    +0.000 N 
ATOM      8  C   UNL     1       5.251   4.239  19.024  0.00  0.00    +0.000 C 
ATOM      9  C   UNL     1       6.328   5.323  18.920  0.00  0.00    +0.000 C 
ATOM     10  C   UNL     1       6.532   5.830  17.475  0.00  0.00    +0.000 C 
ATOM     11  C   UNL     1       5.180   6.137  16.802  0.00  0.00    +0.000 C 
ATOM     12  C   UNL     1       4.184   4.979  16.959  0.00  0.00    +0.000 C 
BRANCH  10  13
ATOM     13  C   UNL     1       7.352   4.848  16.627  0.00  0.00    +0.000 C 
BRANCH  13  14
ATOM     14  O   UNL     1       8.210   4.066  17.446  0.00  0.00    +0.000 OA
ATOM     15  H   UNL     1       7.813   3.182  17.532  0.00  0.00    +0.000 HD
ENDBRANCH  13  14
ENDBRANCH  10  13
ENDBRANCH   6   7
BRANCH   1  16
ATOM     16  N   UNL     1       2.521   6.035  20.518  0.00  0.00    +0.000 N 
ATOM     17  H   UNL     1       2.060   6.209  21.404  0.00  0.00    +0.000 HD
ATOM     18  H   UNL     1       2.543   6.835  19.899  0.00  0.00    +0.000 HD
ENDBRANCH   1  16
TORSDOF 4
ENDMDL
MODEL 3
REMARK VINA RESULT:      -6.4      1.417      1.465
REMARK  Name = 
REMARK  4 active torsions:
REMARK  status: ('A' for Active; 'I' for Inactive)
REMARK    1  A    between atoms: N_1  and  C_2
REMARK    2  A    between atoms: C_7  and  N_8
REMARK    3  A    between atoms: C_11  and  C_12
REMARK    4  A    between atoms: C_12  and  O_13
REMARK                            x       y       z     vdW  Elec       q    Type
REMARK                         _______ _______ _______ _____ _____    ______ ____
ROOT
ATOM      1  C   UNL     1       6.089   4.335  17.276  0.00  0.00    +0.000 A 
ATOM      2  C   UNL     1       7.441   4.693  17.298  0.00  0.00    +0.000 A 
ATOM      3  C   UNL     1       7.973   5.346  18.401  0.00  0.00    +0.000 A 
ATOM      4  C   UNL     1       7.127   5.631  19.454  0.00  0.00    +0.000 A 
ATOM      5  N   UNL     1       5.820   5.286  19.488  0.00  0.00    +0.000 NA
ATOM      6  C   UNL     1       5.303   4.616  18.428  0.00  0.00    +0.000 A 
ENDROOT
BRANCH   6   7
ATOM      7  N   UNL     1       4.006   4.104  18.530  0.00  0.00    +0.000 N 
ATOM      8  C   UNL     1       3.796   3.153  19.628  0.00  0.00    +0.000 C 
ATOM      9  C   UNL     1       2.619   2.254  19.236  0.00  0.00    +0.000 C 
ATOM     10  C   UNL     1       1.356   3.053  18.847  0.00  0.00    +0.000 C 
ATOM     11  C   UNL     1       1.705   4.193  17.870  0.00  0.00    +0.000 C 
ATOM     12  C   UNL     1       2.889   5.035  18.368  0.00  0.00    +0.000 C 
BRANCH  10  13
ATOM     13  C   UNL     1       0.613   3.596  20.074  0.00  0.00    +0.000 C 
BRANCH  13  14
ATOM     14  O   UNL     1       0.840   2.772  21.209  0.00  0.00    +0.000 OA
ATOM     15  H   UNL     1       0.271   1.988  21.125  0.00  0.00    +0.000 HD
ENDBRANCH  13  14
ENDBRANCH  10  13
ENDBRANCH   6   7
BRANCH   1  16
ATOM     16  N   UNL     1       5.660   3.477  16.238  0.00  0.00    +0.000 N 
ATOM     17  H   UNL     1       4.680   3.222  16.295  0.00  0.00    +0.000 HD
ATOM     18  H   UNL     1       6.285   2.692  16.102  0.00  0.00    +0.000 HD
ENDBRANCH   1  16
TORSDOF 4
ENDMDL
MODEL 4
REMARK VINA RESULT:      -6.4      2.782      5.644
REMARK  Name = 
REMARK  4 active torsions:
REMARK  status: ('A' for Active; 'I' for Inactive)
REMARK    1  A    between atoms: N_1  and  C_2
REMARK    2  A    between atoms: C_7  and  N_8
REMARK    3  A    between atoms: C_11  and  C_12
REMARK    4  A    between atoms: C_12  and  O_13
REMARK                            x       y       z     vdW  Elec       q    Type
REMARK                         _______ _______ _______ _____ _____    ______ ____
ROOT
ATOM      1  C   UNL     1       3.681   2.646  19.268  0.00  0.00    +0.000 A 
ATOM      2  C   UNL     1       2.450   1.980  19.249  0.00  0.00    +0.000 A 
ATOM      3  C   UNL     1       1.375   2.518  18.558  0.00  0.00    +0.000 A 
ATOM      4  C   UNL     1       1.562   3.721  17.906  0.00  0.00    +0.000 A 
ATOM      5  N   UNL     1       2.736   4.390  17.877  0.00  0.00    +0.000 NA
ATOM      6  C   UNL     1       3.801   3.851  18.523  0.00  0.00    +0.000 A 
ENDROOT
BRANCH   6   7
ATOM      7  N   UNL     1       5.056   4.444  18.351  0.00  0.00    +0.000 N 
ATOM      8  C   UNL     1       5.426   4.727  16.959  0.00  0.00    +0.000 C 
ATOM      9  C   UNL     1       6.956   4.753  16.888  0.00  0.00    +0.000 C 
ATOM     10  C   UNL     1       7.589   5.716  17.917  0.00  0.00    +0.000 C 
ATOM     11  C   UNL     1       6.968   5.517  19.313  0.00  0.00    +0.000 C 
ATOM     12  C   UNL     1       5.434   5.521  19.266  0.00  0.00    +0.000 C 
BRANCH  10  13
ATOM     13  C   UNL     1       7.483   7.183  17.478  0.00  0.00    +0.000 C 
BRANCH  13  14
ATOM     14  O   UNL     1       8.294   8.016  18.294  0.00  0.00    +0.000 OA
ATOM     15  H   UNL     1       7.719   8.697  18.685  0.00  0.00    +0.000 HD
ENDBRANCH  13  14
ENDBRANCH  10  13
ENDBRANCH   6   7
BRANCH   1  16
ATOM     16  N   UNL     1       4.792   1.945  19.789  0.00  0.00    +0.000 N 
ATOM     17  H   UNL     1       4.543   1.193  20.421  0.00  0.00    +0.000 HD
ATOM     18  H   UNL     1       5.508   2.566  20.146  0.00  0.00    +0.000 HD
ENDBRANCH   1  16
TORSDOF 4
ENDMDL
MODEL 5
REMARK VINA RESULT:      -6.3      2.223      2.527
REMARK  Name = 
REMARK  4 active torsions:
REMARK  status: ('A' for Active; 'I' for Inactive)
REMARK    1  A    between atoms: N_1  and  C_2
REMARK    2  A    between atoms: C_7  and  N_8
REMARK    3  A    between atoms: C_11  and  C_12
REMARK    4  A    between atoms: C_12  and  O_13
REMARK                            x       y       z     vdW  Elec       q    Type
REMARK                         _______ _______ _______ _____ _____    ______ ____
ROOT
ATOM      1  C   UNL     1       4.378   6.220  17.032  0.00  0.00    +0.000 A 
ATOM      2  C   UNL     1       5.216   6.473  15.940  0.00  0.00    +0.000 A 
ATOM      3  C   UNL     1       5.790   5.420  15.241  0.00  0.00    +0.000 A 
ATOM      4  C   UNL     1       5.513   4.136  15.664  0.00  0.00    +0.000 A 
ATOM      5  N   UNL     1       4.694   3.841  16.699  0.00  0.00    +0.000 NA
ATOM      6  C   UNL     1       4.102   4.865  17.364  0.00  0.00    +0.000 A 
ENDROOT
BRANCH   6   7
ATOM      7  N   UNL     1       3.123   4.565  18.316  0.00  0.00    +0.000 N 
ATOM      8  C   UNL     1       2.367   3.332  18.065  0.00  0.00    +0.000 C 
ATOM      9  C   UNL     1       1.009   3.478  18.760  0.00  0.00    +0.000 C 
ATOM     10  C   UNL     1       1.136   3.845  20.255  0.00  0.00    +0.000 C 
ATOM     11  C   UNL     1       2.138   4.999  20.455  0.00  0.00    +0.000 C 
ATOM     12  C   UNL     1       3.465   4.741  19.727  0.00  0.00    +0.000 C 
BRANCH  10  13
ATOM     13  C   UNL     1       1.516   2.636  21.119  0.00  0.00    +0.000 C 
BRANCH  13  14
ATOM     14  O   UNL     1       2.077   3.053  22.356  0.00  0.00    +0.000 OA
ATOM     15  H   UNL     1       2.861   3.594  22.158  0.00  0.00    +0.000 HD
ENDBRANCH  13  14
ENDBRANCH  10  13
ENDBRANCH   6   7
BRANCH   1  16
ATOM     16  N   UNL     1       3.647   7.309  17.556  0.00  0.00    +0.000 N 
ATOM     17  H   UNL     1       3.174   7.864  16.851  0.00  0.00    +0.000 HD
ATOM     18  H   UNL     1       4.185   7.853  18.219  0.00  0.00    +0.000 HD
ENDBRANCH   1  16
TORSDOF 4
ENDMDL
MODEL 6
REMARK VINA RESULT:      -6.2      3.011      5.395
REMARK  Name = 
REMARK  4 active torsions:
REMARK  status: ('A' for Active; 'I' for Inactive)
REMARK    1  A    between atoms: N_1  and  C_2
REMARK    2  A    between atoms: C_7  and  N_8
REMARK    3  A    between atoms: C_11  and  C_12
REMARK    4  A    between atoms: C_12  and  O_13
REMARK                            x       y       z     vdW  Elec       q    Type
REMARK                         _______ _______ _______ _____ _____    ______ ____
ROOT
ATOM      1  C   UNL     1       3.895   2.795  20.333  0.00  0.00    +0.000 A 
ATOM      2  C   UNL     1       2.796   2.531  21.157  0.00  0.00    +0.000 A 
ATOM      3  C   UNL     1       1.720   3.407  21.189  0.00  0.00    +0.000 A 
ATOM      4  C   UNL     1       1.781   4.534  20.394  0.00  0.00    +0.000 A 
ATOM      5  N   UNL     1       2.810   4.820  19.566  0.00  0.00    +0.000 NA
ATOM      6  C   UNL     1       3.849   3.950  19.505  0.00  0.00    +0.000 A 
ENDROOT
BRANCH   6   7
ATOM      7  N   UNL     1       4.829   4.147  18.527  0.00  0.00    +0.000 N 
ATOM      8  C   UNL     1       4.327   4.235  17.150  0.00  0.00    +0.000 C 
ATOM      9  C   UNL     1       5.469   3.817  16.218  0.00  0.00    +0.000 C 
ATOM     10  C   UNL     1       6.769   4.614  16.467  0.00  0.00    +0.000 C 
ATOM     11  C   UNL     1       7.097   4.679  17.971  0.00  0.00    +0.000 C 
ATOM     12  C   UNL     1       5.886   5.119  18.806  0.00  0.00    +0.000 C 
BRANCH  10  13
ATOM     13  C   UNL     1       6.709   6.023  15.861  0.00  0.00    +0.000 C 
BRANCH  13  14
ATOM     14  O   UNL     1       7.698   6.864  16.437  0.00  0.00    +0.000 OA
ATOM     15  H   UNL     1       7.810   6.596  17.366  0.00  0.00    +0.000 HD
ENDBRANCH  13  14
ENDBRANCH  10  13
ENDBRANCH   6   7
BRANCH   1  16
ATOM     16  N   UNL     1       4.848   1.763  20.169  0.00  0.00    +0.000 N 
ATOM     17  H   UNL     1       5.264   1.448  21.038  0.00  0.00    +0.000 HD
ATOM     18  H   UNL     1       5.519   1.969  19.440  0.00  0.00    +0.000 HD
ENDBRANCH   1  16
TORSDOF 4
ENDMDL
MODEL 7
REMARK VINA RESULT:      -6.1      1.233      1.284
REMARK  Name = 
REMARK  4 active torsions:
REMARK  status: ('A' for Active; 'I' for Inactive)
REMARK    1  A    between atoms: N_1  and  C_2
REMARK    2  A    between atoms: C_7  and  N_8
REMARK    3  A    between atoms: C_11  and  C_12
REMARK    4  A    between atoms: C_12  and  O_13
REMARK                            x       y       z     vdW  Elec       q    Type
REMARK                         _______ _______ _______ _____ _____    ______ ____
ROOT
ATOM      1  C   UNL     1       5.457   6.228  17.739  0.00  0.00    +0.000 A 
ATOM      2  C   UNL     1       6.692   6.779  17.379  0.00  0.00    +0.000 A 
ATOM      3  C   UNL     1       7.812   6.558  18.168  0.00  0.00    +0.000 A 
ATOM      4  C   UNL     1       7.660   5.792  19.306  0.00  0.00    +0.000 A 
ATOM      5  N   UNL     1       6.493   5.220  19.683  0.00  0.00    +0.000 NA
ATOM      6  C   UNL     1       5.403   5.405  18.897  0.00  0.00    +0.000 A 
ENDROOT
BRANCH   6   7
ATOM      7  N   UNL     1       4.244   4.676  19.183  0.00  0.00    +0.000 N 
ATOM      8  C   UNL     1       4.469   3.342  19.750  0.00  0.00    +0.000 C 
ATOM      9  C   UNL     1       3.243   2.487  19.414  0.00  0.00    +0.000 C 
ATOM     10  C   UNL     1       1.916   3.142  19.855  0.00  0.00    +0.000 C 
ATOM     11  C   UNL     1       1.862   4.622  19.426  0.00  0.00    +0.000 C 
ATOM     12  C   UNL     1       3.134   5.383  19.825  0.00  0.00    +0.000 C 
BRANCH  10  13
ATOM     13  C   UNL     1       1.675   3.003  21.364  0.00  0.00    +0.000 C 
BRANCH  13  14
ATOM     14  O   UNL     1       2.774   2.362  21.995  0.00  0.00    +0.000 OA
ATOM     15  H   UNL     1       2.734   1.416  21.770  0.00  0.00    +0.000 HD
ENDBRANCH  13  14
ENDBRANCH  10  13
ENDBRANCH   6   7
BRANCH   1  16
ATOM     16  N   UNL     1       4.414   6.293  16.787  0.00  0.00    +0.000 N 
ATOM     17  H   UNL     1       4.262   7.221  16.407  0.00  0.00    +0.000 HD
ATOM     18  H   UNL     1       3.570   5.833  17.106  0.00  0.00    +0.000 HD
ENDBRANCH   1  16
TORSDOF 4
ENDMDL
MODEL 8
REMARK VINA RESULT:      -6.1      2.772      5.494
REMARK  Name = 
REMARK  4 active torsions:
REMARK  status: ('A' for Active; 'I' for Inactive)
REMARK    1  A    between atoms: N_1  and  C_2
REMARK    2  A    between atoms: C_7  and  N_8
REMARK    3  A    between atoms: C_11  and  C_12
REMARK    4  A    between atoms: C_12  and  O_13
REMARK                            x       y       z     vdW  Elec       q    Type
REMARK                         _______ _______ _______ _____ _____    ______ ____
ROOT
ATOM      1  C   UNL     1       3.330   2.973  19.492  0.00  0.00    +0.000 A 
ATOM      2  C   UNL     1       2.143   2.526  20.082  0.00  0.00    +0.000 A 
ATOM      3  C   UNL     1       1.214   3.439  20.560  0.00  0.00    +0.000 A 
ATOM      4  C   UNL     1       1.506   4.783  20.438  0.00  0.00    +0.000 A 
ATOM      5  N   UNL     1       2.629   5.262  19.856  0.00  0.00    +0.000 NA
ATOM      6  C   UNL     1       3.525   4.375  19.357  0.00  0.00    +0.000 A 
ENDROOT
BRANCH   6   7
ATOM      7  N   UNL     1       4.596   4.862  18.601  0.00  0.00    +0.000 N 
ATOM      8  C   UNL     1       4.252   5.910  17.634  0.00  0.00    +0.000 C 
ATOM      9  C   UNL     1       5.302   5.869  16.520  0.00  0.00    +0.000 C 
ATOM     10  C   UNL     1       6.749   5.958  17.055  0.00  0.00    +0.000 C 
ATOM     11  C   UNL     1       6.960   4.990  18.236  0.00  0.00    +0.000 C 
ATOM     12  C   UNL     1       5.857   5.126  19.295  0.00  0.00    +0.000 C 
BRANCH  10  13
ATOM     13  C   UNL     1       7.134   7.390  17.449  0.00  0.00    +0.000 C 
BRANCH  13  14
ATOM     14  O   UNL     1       8.208   7.388  18.379  0.00  0.00    +0.000 OA
ATOM     15  H   UNL     1       8.015   6.713  19.053  0.00  0.00    +0.000 HD
ENDBRANCH  13  14
ENDBRANCH  10  13
ENDBRANCH   6   7
BRANCH   1  16
ATOM     16  N   UNL     1       4.125   2.014  18.823  0.00  0.00    +0.000 N 
ATOM     17  H   UNL     1       4.453   1.264  19.422  0.00  0.00    +0.000 HD
ATOM     18  H   UNL     1       4.849   2.439  18.257  0.00  0.00    +0.000 HD
ENDBRANCH   1  16
TORSDOF 4
ENDMDL
MODEL 9
REMARK VINA RESULT:      -6.1      2.804      5.096
REMARK  Name = 
REMARK  4 active torsions:
REMARK  status: ('A' for Active; 'I' for Inactive)
REMARK    1  A    between atoms: N_1  and  C_2
REMARK    2  A    between atoms: C_7  and  N_8
REMARK    3  A    between atoms: C_11  and  C_12
REMARK    4  A    between atoms: C_12  and  O_13
REMARK                            x       y       z     vdW  Elec       q    Type
REMARK                         _______ _______ _______ _____ _____    ______ ____
ROOT
ATOM      1  C   UNL     1       2.623   5.202  20.121  0.00  0.00    +0.000 A 
ATOM      2  C   UNL     1       1.864   4.680  21.174  0.00  0.00    +0.000 A 
ATOM      3  C   UNL     1       1.945   3.332  21.492  0.00  0.00    +0.000 A 
ATOM      4  C   UNL     1       2.785   2.539  20.737  0.00  0.00    +0.000 A 
ATOM      5  N   UNL     1       3.555   3.001  19.726  0.00  0.00    +0.000 NA
ATOM      6  C   UNL     1       3.505   4.324  19.432  0.00  0.00    +0.000 A 
ENDROOT
BRANCH   6   7
ATOM      7  N   UNL     1       4.423   4.838  18.510  0.00  0.00    +0.000 N 
ATOM      8  C   UNL     1       5.821   4.839  18.956  0.00  0.00    +0.000 C 
ATOM      9  C   UNL     1       6.548   5.943  18.184  0.00  0.00    +0.000 C 
ATOM     10  C   UNL     1       6.376   5.819  16.654  0.00  0.00    +0.000 C 
ATOM     11  C   UNL     1       4.900   5.578  16.283  0.00  0.00    +0.000 C 
ATOM     12  C   UNL     1       4.277   4.443  17.109  0.00  0.00    +0.000 C 
BRANCH  10  13
ATOM     13  C   UNL     1       7.273   4.727  16.057  0.00  0.00    +0.000 C 
BRANCH  13  14
ATOM     14  O   UNL     1       8.082   4.131  17.061  0.00  0.00    +0.000 OA
ATOM     15  H   UNL     1       8.093   3.171  16.902  0.00  0.00    +0.000 HD
ENDBRANCH  13  14
ENDBRANCH  10  13
ENDBRANCH   6   7
BRANCH   1  16
ATOM     16  N   UNL     1       2.674   6.608  19.991  0.00  0.00    +0.000 N 
ATOM     17  H   UNL     1       1.775   7.036  19.802  0.00  0.00    +0.000 HD
ATOM     18  H   UNL     1       3.415   6.913  19.372  0.00  0.00    +0.000 HD
ENDBRANCH   1  16
TORSDOF 4
ENDMDL
