MODEL 1
REMARK VINA RESULT:      -9.0      0.000      0.000
REMARK  Name = 
REMARK  6 active torsions:
REMARK  status: ('A' for Active; 'I' for Inactive)
REMARK    1  A    between atoms: C_1  and  C_2
REMARK    2  A    between atoms: C_3  and  C_4
REMARK    3  A    between atoms: C_4  and  C_5
REMARK    4  A    between atoms: N_7  and  C_8
REMARK    5  A    between atoms: C_11  and  O_12
REMARK    6  A    between atoms: C_19  and  C_20
REMARK                            x       y       z     vdW  Elec       q    Type
REMARK                         _______ _______ _______ _____ _____    ______ ____
ROOT
ATOM      1  C   UNL     1       1.894  10.058  17.866  0.00  0.00    +0.000 C 
ATOM      2  C   UNL     1       1.579   9.159  19.040  0.00  0.00    +0.000 A 
ATOM      3  C   UNL     1       0.631   9.417  19.951  0.00  0.00    +0.000 A 
ATOM      4  C   UNL     1       0.423   8.500  21.106  0.00  0.00    +0.000 A 
ATOM      5  O   UNL     1      -0.276   8.853  22.054  0.00  0.00    +0.000 OA
ATOM      6  O   UNL     1       1.044   7.251  21.074  0.00  0.00    +0.000 OA
ATOM      7  C   UNL     1       1.977   6.895  20.063  0.00  0.00    +0.000 A 
ATOM      8  C   UNL     1       2.540   5.575  20.052  0.00  0.00    +0.000 A 
ATOM      9  C   UNL     1       2.259   4.560  21.120  0.00  0.00    +0.000 C 
ATOM     10  C   UNL     1       3.377   5.316  18.942  0.00  0.00    +0.000 A 
ATOM     11  O   UNL     1       3.985   4.131  18.541  0.00  0.00    +0.000 OA
ATOM     12  C   UNL     1       4.637   4.403  17.361  0.00  0.00    +0.000 A 
ATOM     13  C   UNL     1       4.496   5.719  17.021  0.00  0.00    +0.000 A 
ATOM     14  C   UNL     1       3.711   6.297  18.020  0.00  0.00    +0.000 A 
ATOM     15  C   UNL     1       3.224   7.589  18.145  0.00  0.00    +0.000 A 
ATOM     16  C   UNL     1       2.290   7.875  19.119  0.00  0.00    +0.000 A 
ATOM     17  C   UNL     1       4.995   6.368  15.806  0.00  0.00    +0.000 C 
ATOM     18  C   UNL     1       5.631   5.409  14.818  0.00  0.00    +0.000 C 
ATOM     19  C   UNL     1       5.994   3.981  15.294  0.00  0.00    +0.000 C 
ATOM     20  C   UNL     1       5.322   3.370  16.558  0.00  0.00    +0.000 C 
ENDROOT
BRANCH   3  21
ATOM     21  C   UNL     1      -0.320  10.591  19.858  0.00  0.00    +0.000 C 
BRANCH  21  22
ATOM     22  C   UNL     1       0.376  11.933  20.058  0.00  0.00    +0.000 C 
ATOM     23  O   UNL     1       0.986  12.191  21.091  0.00  0.00    +0.000 OA
ATOM     24  N   UNL     1       0.202  12.792  18.993  0.00  0.00    +0.000 N 
ATOM     25  H   UNL     1      -0.602  12.613  18.394  0.00  0.00    +0.000 HD
BRANCH  24  26
ATOM     26  C   UNL     1       0.759  14.078  18.937  0.00  0.00    +0.000 A 
ATOM     27  C   UNL     1       2.096  14.311  18.577  0.00  0.00    +0.000 A 
ATOM     28  C   UNL     1       2.591  15.619  18.519  0.00  0.00    +0.000 A 
ATOM     29  C   UNL     1       1.758  16.679  18.863  0.00  0.00    +0.000 A 
ATOM     30  C   UNL     1       0.440  16.456  19.239  0.00  0.00    +0.000 A 
ATOM     31  C   UNL     1      -0.069  15.157  19.244  0.00  0.00    +0.000 A 
BRANCH  29  32
ATOM     32  O   UNL     1       2.196  17.970  18.839  0.00  0.00    +0.000 OA
ATOM     33  H   UNL     1       3.112  17.980  18.515  0.00  0.00    +0.000 HD
ENDBRANCH  29  32
ENDBRANCH  24  26
ENDBRANCH  21  22
ENDBRANCH   3  21
TORSDOF 4
ENDMDL
MODEL 2
REMARK VINA RESULT:      -8.9      2.900      3.838
REMARK  Name = 
REMARK  6 active torsions:
REMARK  status: ('A' for Active; 'I' for Inactive)
REMARK    1  A    between atoms: C_1  and  C_2
REMARK    2  A    between atoms: C_3  and  C_4
REMARK    3  A    between atoms: C_4  and  C_5
REMARK    4  A    between atoms: N_7  and  C_8
REMARK    5  A    between atoms: C_11  and  O_12
REMARK    6  A    between atoms: C_19  and  C_20
REMARK                            x       y       z     vdW  Elec       q    Type
REMARK                         _______ _______ _______ _____ _____    ______ ____
ROOT
ATOM      1  C   UNL     1       2.193  10.247  18.113  0.00  0.00    +0.000 C 
ATOM      2  C   UNL     1       1.751   9.305  19.210  0.00  0.00    +0.000 A 
ATOM      3  C   UNL     1       0.802   9.592  20.111  0.00  0.00    +0.000 A 
ATOM      4  C   UNL     1       0.466   8.622  21.190  0.00  0.00    +0.000 A 
ATOM      5  O   UNL     1      -0.227   8.975  22.142  0.00  0.00    +0.000 OA
ATOM      6  O   UNL     1       0.964   7.323  21.085  0.00  0.00    +0.000 OA
ATOM      7  C   UNL     1       1.893   6.947  20.076  0.00  0.00    +0.000 A 
ATOM      8  C   UNL     1       2.325   5.582  19.985  0.00  0.00    +0.000 A 
ATOM      9  C   UNL     1       1.911   4.528  20.969  0.00  0.00    +0.000 C 
ATOM     10  C   UNL     1       3.172   5.319  18.884  0.00  0.00    +0.000 A 
ATOM     11  O   UNL     1       3.676   4.111  18.415  0.00  0.00    +0.000 OA
ATOM     12  C   UNL     1       4.391   4.398  17.276  0.00  0.00    +0.000 A 
ATOM     13  C   UNL     1       4.390   5.742  17.029  0.00  0.00    +0.000 A 
ATOM     14  C   UNL     1       3.631   6.323  18.044  0.00  0.00    +0.000 A 
ATOM     15  C   UNL     1       3.267   7.645  18.249  0.00  0.00    +0.000 A 
ATOM     16  C   UNL     1       2.331   7.954  19.215  0.00  0.00    +0.000 A 
ATOM     17  C   UNL     1       4.992   6.421  15.878  0.00  0.00    +0.000 C 
ATOM     18  C   UNL     1       5.565   5.474  14.841  0.00  0.00    +0.000 C 
ATOM     19  C   UNL     1       5.771   3.987  15.222  0.00  0.00    +0.000 C 
ATOM     20  C   UNL     1       5.001   3.360  16.419  0.00  0.00    +0.000 C 
ENDROOT
BRANCH   3  21
ATOM     21  C   UNL     1      -0.027  10.858  20.077  0.00  0.00    +0.000 C 
BRANCH  21  22
ATOM     22  C   UNL     1      -1.298  10.712  19.249  0.00  0.00    +0.000 C 
ATOM     23  O   UNL     1      -1.483   9.738  18.525  0.00  0.00    +0.000 OA
ATOM     24  N   UNL     1      -2.154  11.785  19.385  0.00  0.00    +0.000 N 
ATOM     25  H   UNL     1      -1.736  12.659  19.700  0.00  0.00    +0.000 HD
BRANCH  24  26
ATOM     26  C   UNL     1      -3.394  11.873  18.735  0.00  0.00    +0.000 A 
ATOM     27  C   UNL     1      -3.570  11.528  17.386  0.00  0.00    +0.000 A 
ATOM     28  C   UNL     1      -4.836  11.618  16.796  0.00  0.00    +0.000 A 
ATOM     29  C   UNL     1      -5.906  12.093  17.548  0.00  0.00    +0.000 A 
ATOM     30  C   UNL     1      -5.737  12.455  18.878  0.00  0.00    +0.000 A 
ATOM     31  C   UNL     1      -4.486  12.314  19.480  0.00  0.00    +0.000 A 
BRANCH  29  32
ATOM     32  O   UNL     1      -7.155  12.216  17.016  0.00  0.00    +0.000 OA
ATOM     33  H   UNL     1      -7.797  12.269  17.743  0.00  0.00    +0.000 HD
ENDBRANCH  29  32
ENDBRANCH  24  26
ENDBRANCH  21  22
ENDBRANCH   3  21
TORSDOF 4
ENDMDL
MODEL 3
REMARK VINA RESULT:      -8.8      4.008      9.962
REMARK  Name = 
REMARK  6 active torsions:
REMARK  status: ('A' for Active; 'I' for Inactive)
REMARK    1  A    between atoms: C_1  and  C_2
REMARK    2  A    between atoms: C_3  and  C_4
REMARK    3  A    between atoms: C_4  and  C_5
REMARK    4  A    between atoms: N_7  and  C_8
REMARK    5  A    between atoms: C_11  and  O_12
REMARK    6  A    between atoms: C_19  and  C_20
REMARK                            x       y       z     vdW  Elec       q    Type
REMARK                         _______ _______ _______ _____ _____    ______ ____
ROOT
ATOM      1  C   UNL     1      -0.487  10.906  21.525  0.00  0.00    +0.000 C 
ATOM      2  C   UNL     1      -0.356  10.567  20.057  0.00  0.00    +0.000 A 
ATOM      3  C   UNL     1       0.639   9.834  19.540  0.00  0.00    +0.000 A 
ATOM      4  C   UNL     1       0.717   9.592  18.073  0.00  0.00    +0.000 A 
ATOM      5  O   UNL     1       1.742   9.126  17.579  0.00  0.00    +0.000 OA
ATOM      6  O   UNL     1      -0.395   9.914  17.294  0.00  0.00    +0.000 OA
ATOM      7  C   UNL     1      -1.522  10.598  17.827  0.00  0.00    +0.000 A 
ATOM      8  C   UNL     1      -2.658  10.850  16.989  0.00  0.00    +0.000 A 
ATOM      9  C   UNL     1      -2.688  10.505  15.530  0.00  0.00    +0.000 C 
ATOM     10  C   UNL     1      -3.748  11.449  17.663  0.00  0.00    +0.000 A 
ATOM     11  O   UNL     1      -5.034  11.721  17.211  0.00  0.00    +0.000 OA
ATOM     12  C   UNL     1      -5.724  12.247  18.280  0.00  0.00    +0.000 A 
ATOM     13  C   UNL     1      -4.913  12.352  19.375  0.00  0.00    +0.000 A 
ATOM     14  C   UNL     1      -3.668  11.859  18.986  0.00  0.00    +0.000 A 
ATOM     15  C   UNL     1      -2.501  11.689  19.715  0.00  0.00    +0.000 A 
ATOM     16  C   UNL     1      -1.450  10.983  19.167  0.00  0.00    +0.000 A 
ATOM     17  C   UNL     1      -5.303  12.808  20.712  0.00  0.00    +0.000 C 
ATOM     18  C   UNL     1      -6.789  13.076  20.857  0.00  0.00    +0.000 C 
ATOM     19  C   UNL     1      -7.656  13.179  19.578  0.00  0.00    +0.000 C 
ATOM     20  C   UNL     1      -7.164  12.572  18.233  0.00  0.00    +0.000 C 
ENDROOT
BRANCH   3  21
ATOM     21  C   UNL     1       1.703   9.160  20.380  0.00  0.00    +0.000 C 
BRANCH  21  22
ATOM     22  C   UNL     1       1.555   7.644  20.419  0.00  0.00    +0.000 C 
ATOM     23  O   UNL     1       0.792   7.094  21.207  0.00  0.00    +0.000 OA
ATOM     24  N   UNL     1       2.383   7.001  19.522  0.00  0.00    +0.000 N 
ATOM     25  H   UNL     1       3.203   7.519  19.211  0.00  0.00    +0.000 HD
BRANCH  24  26
ATOM     26  C   UNL     1       2.416   5.607  19.361  0.00  0.00    +0.000 A 
ATOM     27  C   UNL     1       2.792   4.733  20.393  0.00  0.00    +0.000 A 
ATOM     28  C   UNL     1       2.788   3.350  20.180  0.00  0.00    +0.000 A 
ATOM     29  C   UNL     1       2.449   2.855  18.925  0.00  0.00    +0.000 A 
ATOM     30  C   UNL     1       2.093   3.714  17.893  0.00  0.00    +0.000 A 
ATOM     31  C   UNL     1       2.046   5.089  18.121  0.00  0.00    +0.000 A 
BRANCH  29  32
ATOM     32  O   UNL     1       2.445   1.517  18.661  0.00  0.00    +0.000 OA
ATOM     33  H   UNL     1       2.593   1.037  19.492  0.00  0.00    +0.000 HD
ENDBRANCH  29  32
ENDBRANCH  24  26
ENDBRANCH  21  22
ENDBRANCH   3  21
TORSDOF 4
ENDMDL
MODEL 4
REMARK VINA RESULT:      -8.8      2.858      4.069
REMARK  Name = 
REMARK  6 active torsions:
REMARK  status: ('A' for Active; 'I' for Inactive)
REMARK    1  A    between atoms: C_1  and  C_2
REMARK    2  A    between atoms: C_3  and  C_4
REMARK    3  A    between atoms: C_4  and  C_5
REMARK    4  A    between atoms: N_7  and  C_8
REMARK    5  A    between atoms: C_11  and  O_12
REMARK    6  A    between atoms: C_19  and  C_20
REMARK                            x       y       z     vdW  Elec       q    Type
REMARK                         _______ _______ _______ _____ _____    ______ ____
ROOT
ATOM      1  C   UNL     1       2.088  10.408  18.384  0.00  0.00    +0.000 C 
ATOM      2  C   UNL     1       1.609   9.426  19.428  0.00  0.00    +0.000 A 
ATOM      3  C   UNL     1       0.644   9.688  20.321  0.00  0.00    +0.000 A 
ATOM      4  C   UNL     1       0.271   8.677  21.348  0.00  0.00    +0.000 A 
ATOM      5  O   UNL     1      -0.438   8.999  22.300  0.00  0.00    +0.000 OA
ATOM      6  O   UNL     1       0.751   7.376  21.195  0.00  0.00    +0.000 OA
ATOM      7  C   UNL     1       1.695   7.029  20.191  0.00  0.00    +0.000 A 
ATOM      8  C   UNL     1       2.108   5.663  20.048  0.00  0.00    +0.000 A 
ATOM      9  C   UNL     1       1.656   4.573  20.974  0.00  0.00    +0.000 C 
ATOM     10  C   UNL     1       2.974   5.435  18.953  0.00  0.00    +0.000 A 
ATOM     11  O   UNL     1       3.469   4.241  18.442  0.00  0.00    +0.000 OA
ATOM     12  C   UNL     1       4.213   4.567  17.331  0.00  0.00    +0.000 A 
ATOM     13  C   UNL     1       4.238   5.920  17.145  0.00  0.00    +0.000 A 
ATOM     14  C   UNL     1       3.466   6.468  18.169  0.00  0.00    +0.000 A 
ATOM     15  C   UNL     1       3.119   7.786  18.426  0.00  0.00    +0.000 A 
ATOM     16  C   UNL     1       2.167   8.067  19.384  0.00  0.00    +0.000 A 
ATOM     17  C   UNL     1       4.875   6.639  16.038  0.00  0.00    +0.000 C 
ATOM     18  C   UNL     1       5.456   5.730  14.972  0.00  0.00    +0.000 C 
ATOM     19  C   UNL     1       5.631   4.225  15.291  0.00  0.00    +0.000 C 
ATOM     20  C   UNL     1       4.825   3.558  16.442  0.00  0.00    +0.000 C 
ENDROOT
BRANCH   3  21
ATOM     21  C   UNL     1      -0.163  10.968  20.326  0.00  0.00    +0.000 C 
BRANCH  21  22
ATOM     22  C   UNL     1      -0.850  11.240  18.993  0.00  0.00    +0.000 C 
ATOM     23  O   UNL     1      -0.620  12.261  18.351  0.00  0.00    +0.000 OA
ATOM     24  N   UNL     1      -1.750  10.256  18.641  0.00  0.00    +0.000 N 
ATOM     25  H   UNL     1      -2.114   9.683  19.400  0.00  0.00    +0.000 HD
BRANCH  24  26
ATOM     26  C   UNL     1      -2.493  10.276  17.450  0.00  0.00    +0.000 A 
ATOM     27  C   UNL     1      -3.736  10.919  17.343  0.00  0.00    +0.000 A 
ATOM     28  C   UNL     1      -4.422  10.923  16.124  0.00  0.00    +0.000 A 
ATOM     29  C   UNL     1      -3.881  10.248  15.034  0.00  0.00    +0.000 A 
ATOM     30  C   UNL     1      -2.660   9.593  15.137  0.00  0.00    +0.000 A 
ATOM     31  C   UNL     1      -1.951   9.635  16.337  0.00  0.00    +0.000 A 
BRANCH  29  32
ATOM     32  O   UNL     1      -4.518  10.207  13.829  0.00  0.00    +0.000 OA
ATOM     33  H   UNL     1      -5.348   9.715  13.935  0.00  0.00    +0.000 HD
ENDBRANCH  29  32
ENDBRANCH  24  26
ENDBRANCH  21  22
ENDBRANCH   3  21
TORSDOF 4
ENDMDL
MODEL 5
REMARK VINA RESULT:      -8.6      2.078      2.428
REMARK  Name = 
REMARK  6 active torsions:
REMARK  status: ('A' for Active; 'I' for Inactive)
REMARK    1  A    between atoms: C_1  and  C_2
REMARK    2  A    between atoms: C_3  and  C_4
REMARK    3  A    between atoms: C_4  and  C_5
REMARK    4  A    between atoms: N_7  and  C_8
REMARK    5  A    between atoms: C_11  and  O_12
REMARK    6  A    between atoms: C_19  and  C_20
REMARK                            x       y       z     vdW  Elec       q    Type
REMARK                         _______ _______ _______ _____ _____    ______ ____
ROOT
ATOM      1  C   UNL     1       1.858  10.096  17.977  0.00  0.00    +0.000 C 
ATOM      2  C   UNL     1       1.528   9.171  19.126  0.00  0.00    +0.000 A 
ATOM      3  C   UNL     1       0.572   9.409  20.034  0.00  0.00    +0.000 A 
ATOM      4  C   UNL     1       0.350   8.466  21.165  0.00  0.00    +0.000 A 
ATOM      5  O   UNL     1      -0.356   8.798  22.114  0.00  0.00    +0.000 OA
ATOM      6  O   UNL     1       0.969   7.216  21.108  0.00  0.00    +0.000 OA
ATOM      7  C   UNL     1       1.911   6.881  20.098  0.00  0.00    +0.000 A 
ATOM      8  C   UNL     1       2.470   5.560  20.061  0.00  0.00    +0.000 A 
ATOM      9  C   UNL     1       2.176   4.521  21.102  0.00  0.00    +0.000 C 
ATOM     10  C   UNL     1       3.318   5.326  18.954  0.00  0.00    +0.000 A 
ATOM     11  O   UNL     1       3.926   4.150  18.531  0.00  0.00    +0.000 OA
ATOM     12  C   UNL     1       4.590   4.448  17.363  0.00  0.00    +0.000 A 
ATOM     13  C   UNL     1       4.456   5.772  17.054  0.00  0.00    +0.000 A 
ATOM     14  C   UNL     1       3.663   6.328  18.058  0.00  0.00    +0.000 A 
ATOM     15  C   UNL     1       3.178   7.618  18.210  0.00  0.00    +0.000 A 
ATOM     16  C   UNL     1       2.235   7.883  19.181  0.00  0.00    +0.000 A 
ATOM     17  C   UNL     1       4.969   6.448  15.859  0.00  0.00    +0.000 C 
ATOM     18  C   UNL     1       5.612   5.511  14.855  0.00  0.00    +0.000 C 
ATOM     19  C   UNL     1       5.966   4.071  15.300  0.00  0.00    +0.000 C 
ATOM     20  C   UNL     1       5.281   3.432  16.543  0.00  0.00    +0.000 C 
ENDROOT
BRANCH   3  21
ATOM     21  C   UNL     1      -0.374  10.588  19.960  0.00  0.00    +0.000 C 
BRANCH  21  22
ATOM     22  C   UNL     1       0.034  11.734  20.878  0.00  0.00    +0.000 C 
ATOM     23  O   UNL     1       1.185  11.848  21.288  0.00  0.00    +0.000 OA
ATOM     24  N   UNL     1      -1.019  12.562  21.205  0.00  0.00    +0.000 N 
ATOM     25  H   UNL     1      -1.953  12.163  21.116  0.00  0.00    +0.000 HD
BRANCH  24  26
ATOM     26  C   UNL     1      -0.890  13.694  22.024  0.00  0.00    +0.000 A 
ATOM     27  C   UNL     1      -0.313  14.892  21.577  0.00  0.00    +0.000 A 
ATOM     28  C   UNL     1      -0.229  15.995  22.433  0.00  0.00    +0.000 A 
ATOM     29  C   UNL     1      -0.683  15.877  23.743  0.00  0.00    +0.000 A 
ATOM     30  C   UNL     1      -1.238  14.689  24.200  0.00  0.00    +0.000 A 
ATOM     31  C   UNL     1      -1.371  13.607  23.330  0.00  0.00    +0.000 A 
BRANCH  29  32
ATOM     32  O   UNL     1      -0.609  16.917  24.623  0.00  0.00    +0.000 OA
ATOM     33  H   UNL     1       0.305  16.985  24.944  0.00  0.00    +0.000 HD
ENDBRANCH  29  32
ENDBRANCH  24  26
ENDBRANCH  21  22
ENDBRANCH   3  21
TORSDOF 4
ENDMDL
MODEL 6
REMARK VINA RESULT:      -8.6      2.589      3.346
REMARK  Name = 
REMARK  6 active torsions:
REMARK  status: ('A' for Active; 'I' for Inactive)
REMARK    1  A    between atoms: C_1  and  C_2
REMARK    2  A    between atoms: C_3  and  C_4
REMARK    3  A    between atoms: C_4  and  C_5
REMARK    4  A    between atoms: N_7  and  C_8
REMARK    5  A    between atoms: C_11  and  O_12
REMARK    6  A    between atoms: C_19  and  C_20
REMARK                            x       y       z     vdW  Elec       q    Type
REMARK                         _______ _______ _______ _____ _____    ______ ____
ROOT
ATOM      1  C   UNL     1       1.817  10.126  17.857  0.00  0.00    +0.000 C 
ATOM      2  C   UNL     1       1.473   9.231  19.026  0.00  0.00    +0.000 A 
ATOM      3  C   UNL     1       0.495   9.485  19.906  0.00  0.00    +0.000 A 
ATOM      4  C   UNL     1       0.259   8.573  21.059  0.00  0.00    +0.000 A 
ATOM      5  O   UNL     1      -0.471   8.925  21.983  0.00  0.00    +0.000 OA
ATOM      6  O   UNL     1       0.891   7.329  21.052  0.00  0.00    +0.000 OA
ATOM      7  C   UNL     1       1.858   6.975  20.072  0.00  0.00    +0.000 A 
ATOM      8  C   UNL     1       2.431   5.659  20.085  0.00  0.00    +0.000 A 
ATOM      9  C   UNL     1       2.125   4.648  21.150  0.00  0.00    +0.000 C 
ATOM     10  C   UNL     1       3.304   5.402  19.003  0.00  0.00    +0.000 A 
ATOM     11  O   UNL     1       3.933   4.220  18.628  0.00  0.00    +0.000 OA
ATOM     12  C   UNL     1       4.618   4.491  17.466  0.00  0.00    +0.000 A 
ATOM     13  C   UNL     1       4.477   5.804  17.115  0.00  0.00    +0.000 A 
ATOM     14  C   UNL     1       3.658   6.380  18.086  0.00  0.00    +0.000 A 
ATOM     15  C   UNL     1       3.157   7.669  18.189  0.00  0.00    +0.000 A 
ATOM     16  C   UNL     1       2.191   7.952  19.133  0.00  0.00    +0.000 A 
ATOM     17  C   UNL     1       5.009   6.451  15.912  0.00  0.00    +0.000 C 
ATOM     18  C   UNL     1       5.682   5.491  14.949  0.00  0.00    +0.000 C 
ATOM     19  C   UNL     1       6.041   4.069  15.444  0.00  0.00    +0.000 C 
ATOM     20  C   UNL     1       5.336   3.459  16.690  0.00  0.00    +0.000 C 
ENDROOT
BRANCH   3  21
ATOM     21  C   UNL     1      -0.461  10.652  19.777  0.00  0.00    +0.000 C 
BRANCH  21  22
ATOM     22  C   UNL     1      -0.486  11.537  21.018  0.00  0.00    +0.000 C 
ATOM     23  O   UNL     1       0.549  11.875  21.585  0.00  0.00    +0.000 OA
ATOM     24  N   UNL     1      -1.765  11.858  21.423  0.00  0.00    +0.000 N 
ATOM     25  H   UNL     1      -2.508  11.235  21.112  0.00  0.00    +0.000 HD
BRANCH  24  26
ATOM     26  C   UNL     1      -2.044  12.674  22.530  0.00  0.00    +0.000 A 
ATOM     27  C   UNL     1      -1.169  13.677  22.974  0.00  0.00    +0.000 A 
ATOM     28  C   UNL     1      -1.510  14.473  24.072  0.00  0.00    +0.000 A 
ATOM     29  C   UNL     1      -2.704  14.232  24.744  0.00  0.00    +0.000 A 
ATOM     30  C   UNL     1      -3.568  13.229  24.323  0.00  0.00    +0.000 A 
ATOM     31  C   UNL     1      -3.252  12.471  23.195  0.00  0.00    +0.000 A 
BRANCH  29  32
ATOM     32  O   UNL     1      -3.076  14.968  25.830  0.00  0.00    +0.000 OA
ATOM     33  H   UNL     1      -2.319  15.506  26.113  0.00  0.00    +0.000 HD
ENDBRANCH  29  32
ENDBRANCH  24  26
ENDBRANCH  21  22
ENDBRANCH   3  21
TORSDOF 4
ENDMDL
MODEL 7
REMARK VINA RESULT:      -8.3      1.445      1.764
REMARK  Name = 
REMARK  6 active torsions:
REMARK  status: ('A' for Active; 'I' for Inactive)
REMARK    1  A    between atoms: C_1  and  C_2
REMARK    2  A    between atoms: C_3  and  C_4
REMARK    3  A    between atoms: C_4  and  C_5
REMARK    4  A    between atoms: N_7  and  C_8
REMARK    5  A    between atoms: C_11  and  O_12
REMARK    6  A    between atoms: C_19  and  C_20
REMARK                            x       y       z     vdW  Elec       q    Type
REMARK                         _______ _______ _______ _____ _____    ______ ____
ROOT
ATOM      1  C   UNL     1       1.893  10.071  17.956  0.00  0.00    +0.000 C 
ATOM      2  C   UNL     1       1.571   9.148  19.109  0.00  0.00    +0.000 A 
ATOM      3  C   UNL     1       0.621   9.389  20.022  0.00  0.00    +0.000 A 
ATOM      4  C   UNL     1       0.406   8.448  21.156  0.00  0.00    +0.000 A 
ATOM      5  O   UNL     1      -0.294   8.782  22.110  0.00  0.00    +0.000 OA
ATOM      6  O   UNL     1       1.023   7.198  21.099  0.00  0.00    +0.000 OA
ATOM      7  C   UNL     1       1.958   6.860  20.083  0.00  0.00    +0.000 A 
ATOM      8  C   UNL     1       2.516   5.539  20.044  0.00  0.00    +0.000 A 
ATOM      9  C   UNL     1       2.228   4.502  21.089  0.00  0.00    +0.000 C 
ATOM     10  C   UNL     1       3.357   5.301  18.932  0.00  0.00    +0.000 A 
ATOM     11  O   UNL     1       3.962   4.124  18.507  0.00  0.00    +0.000 OA
ATOM     12  C   UNL     1       4.618   4.419  17.335  0.00  0.00    +0.000 A 
ATOM     13  C   UNL     1       4.482   5.743  17.024  0.00  0.00    +0.000 A 
ATOM     14  C   UNL     1       3.697   6.301  18.033  0.00  0.00    +0.000 A 
ATOM     15  C   UNL     1       3.214   7.592  18.184  0.00  0.00    +0.000 A 
ATOM     16  C   UNL     1       2.277   7.859  19.161  0.00  0.00    +0.000 A 
ATOM     17  C   UNL     1       4.988   6.416  15.825  0.00  0.00    +0.000 C 
ATOM     18  C   UNL     1       5.624   5.476  14.818  0.00  0.00    +0.000 C 
ATOM     19  C   UNL     1       5.980   4.037  15.264  0.00  0.00    +0.000 C 
ATOM     20  C   UNL     1       5.302   3.402  16.512  0.00  0.00    +0.000 C 
ENDROOT
BRANCH   3  21
ATOM     21  C   UNL     1      -0.325  10.568  19.952  0.00  0.00    +0.000 C 
BRANCH  21  22
ATOM     22  C   UNL     1       0.198  11.792  20.695  0.00  0.00    +0.000 C 
ATOM     23  O   UNL     1       1.231  11.747  21.356  0.00  0.00    +0.000 OA
ATOM     24  N   UNL     1      -0.626  12.891  20.567  0.00  0.00    +0.000 N 
ATOM     25  H   UNL     1      -1.597  12.703  20.323  0.00  0.00    +0.000 HD
BRANCH  24  26
ATOM     26  C   UNL     1      -0.349  14.138  21.147  0.00  0.00    +0.000 A 
ATOM     27  C   UNL     1      -0.664  14.440  22.481  0.00  0.00    +0.000 A 
ATOM     28  C   UNL     1      -0.346  15.695  23.012  0.00  0.00    +0.000 A 
ATOM     29  C   UNL     1       0.245  16.652  22.193  0.00  0.00    +0.000 A 
ATOM     30  C   UNL     1       0.543  16.367  20.866  0.00  0.00    +0.000 A 
ATOM     31  C   UNL     1       0.275  15.099  20.353  0.00  0.00    +0.000 A 
BRANCH  29  32
ATOM     32  O   UNL     1       0.560  17.895  22.656  0.00  0.00    +0.000 OA
ATOM     33  H   UNL     1       1.436  17.857  23.073  0.00  0.00    +0.000 HD
ENDBRANCH  29  32
ENDBRANCH  24  26
ENDBRANCH  21  22
ENDBRANCH   3  21
TORSDOF 4
ENDMDL
MODEL 8
REMARK VINA RESULT:      -8.0      1.412      1.635
REMARK  Name = 
REMARK  6 active torsions:
REMARK  status: ('A' for Active; 'I' for Inactive)
REMARK    1  A    between atoms: C_1  and  C_2
REMARK    2  A    between atoms: C_3  and  C_4
REMARK    3  A    between atoms: C_4  and  C_5
REMARK    4  A    between atoms: N_7  and  C_8
REMARK    5  A    between atoms: C_11  and  O_12
REMARK    6  A    between atoms: C_19  and  C_20
REMARK                            x       y       z     vdW  Elec       q    Type
REMARK                         _______ _______ _______ _____ _____    ______ ____
ROOT
ATOM      1  C   UNL     1       1.711  10.120  17.823  0.00  0.00    +0.000 C 
ATOM      2  C   UNL     1       1.420   9.236  19.015  0.00  0.00    +0.000 A 
ATOM      3  C   UNL     1       0.460   9.481  19.916  0.00  0.00    +0.000 A 
ATOM      4  C   UNL     1       0.277   8.582  21.089  0.00  0.00    +0.000 A 
ATOM      5  O   UNL     1      -0.437   8.930  22.027  0.00  0.00    +0.000 OA
ATOM      6  O   UNL     1       0.940   7.354  21.085  0.00  0.00    +0.000 OA
ATOM      7  C   UNL     1       1.890   7.008  20.085  0.00  0.00    +0.000 A 
ATOM      8  C   UNL     1       2.496   5.708  20.104  0.00  0.00    +0.000 A 
ATOM      9  C   UNL     1       2.244   4.706  21.192  0.00  0.00    +0.000 C 
ATOM     10  C   UNL     1       3.347   5.454  19.003  0.00  0.00    +0.000 A 
ATOM     11  O   UNL     1       3.995   4.283  18.629  0.00  0.00    +0.000 OA
ATOM     12  C   UNL     1       4.643   4.552  17.446  0.00  0.00    +0.000 A 
ATOM     13  C   UNL     1       4.459   5.855  17.078  0.00  0.00    +0.000 A 
ATOM     14  C   UNL     1       3.652   6.427  18.062  0.00  0.00    +0.000 A 
ATOM     15  C   UNL     1       3.121   7.704  18.158  0.00  0.00    +0.000 A 
ATOM     16  C   UNL     1       2.173   7.978  19.122  0.00  0.00    +0.000 A 
ATOM     17  C   UNL     1       4.942   6.495  15.852  0.00  0.00    +0.000 C 
ATOM     18  C   UNL     1       5.614   5.537  14.886  0.00  0.00    +0.000 C 
ATOM     19  C   UNL     1       6.022   4.132  15.393  0.00  0.00    +0.000 C 
ATOM     20  C   UNL     1       5.366   3.526  16.667  0.00  0.00    +0.000 C 
ENDROOT
BRANCH   3  21
ATOM     21  C   UNL     1      -0.529  10.620  19.795  0.00  0.00    +0.000 C 
BRANCH  21  22
ATOM     22  C   UNL     1       0.147  11.983  19.695  0.00  0.00    +0.000 C 
ATOM     23  O   UNL     1      -0.048  12.726  18.737  0.00  0.00    +0.000 OA
ATOM     24  N   UNL     1       0.997  12.240  20.750  0.00  0.00    +0.000 N 
ATOM     25  H   UNL     1       1.348  11.428  21.256  0.00  0.00    +0.000 HD
BRANCH  24  26
ATOM     26  C   UNL     1       1.721  13.434  20.888  0.00  0.00    +0.000 A 
ATOM     27  C   UNL     1       1.313  14.474  21.736  0.00  0.00    +0.000 A 
ATOM     28  C   UNL     1       2.087  15.635  21.849  0.00  0.00    +0.000 A 
ATOM     29  C   UNL     1       3.239  15.763  21.080  0.00  0.00    +0.000 A 
ATOM     30  C   UNL     1       3.640  14.746  20.223  0.00  0.00    +0.000 A 
ATOM     31  C   UNL     1       2.898  13.567  20.152  0.00  0.00    +0.000 A 
BRANCH  29  32
ATOM     32  O   UNL     1       4.019  16.880  21.139  0.00  0.00    +0.000 OA
ATOM     33  H   UNL     1       3.672  17.463  21.834  0.00  0.00    +0.000 HD
ENDBRANCH  29  32
ENDBRANCH  24  26
ENDBRANCH  21  22
ENDBRANCH   3  21
TORSDOF 4
ENDMDL
MODEL 9
REMARK VINA RESULT:      -7.9      3.005      4.856
REMARK  Name = 
REMARK  6 active torsions:
REMARK  status: ('A' for Active; 'I' for Inactive)
REMARK    1  A    between atoms: C_1  and  C_2
REMARK    2  A    between atoms: C_3  and  C_4
REMARK    3  A    between atoms: C_4  and  C_5
REMARK    4  A    between atoms: N_7  and  C_8
REMARK    5  A    between atoms: C_11  and  O_12
REMARK    6  A    between atoms: C_19  and  C_20
REMARK                            x       y       z     vdW  Elec       q    Type
REMARK                         _______ _______ _______ _____ _____    ______ ____
ROOT
ATOM      1  C   UNL     1       0.148   8.920  21.174  0.00  0.00    +0.000 C 
ATOM      2  C   UNL     1       0.971   9.213  19.940  0.00  0.00    +0.000 A 
ATOM      3  C   UNL     1       1.140  10.437  19.421  0.00  0.00    +0.000 A 
ATOM      4  C   UNL     1       1.926  10.626  18.171  0.00  0.00    +0.000 A 
ATOM      5  O   UNL     1       1.885  11.699  17.574  0.00  0.00    +0.000 OA
ATOM      6  O   UNL     1       2.692   9.555  17.708  0.00  0.00    +0.000 OA
ATOM      7  C   UNL     1       2.624   8.263  18.298  0.00  0.00    +0.000 A 
ATOM      8  C   UNL     1       3.479   7.218  17.813  0.00  0.00    +0.000 A 
ATOM      9  C   UNL     1       4.394   7.392  16.638  0.00  0.00    +0.000 C 
ATOM     10  C   UNL     1       3.384   6.012  18.546  0.00  0.00    +0.000 A 
ATOM     11  O   UNL     1       4.135   4.846  18.445  0.00  0.00    +0.000 OA
ATOM     12  C   UNL     1       3.684   4.000  19.431  0.00  0.00    +0.000 A 
ATOM     13  C   UNL     1       2.654   4.571  20.125  0.00  0.00    +0.000 A 
ATOM     14  C   UNL     1       2.458   5.832  19.563  0.00  0.00    +0.000 A 
ATOM     15  C   UNL     1       1.579   6.845  19.914  0.00  0.00    +0.000 A 
ATOM     16  C   UNL     1       1.712   8.093  19.341  0.00  0.00    +0.000 A 
ATOM     17  C   UNL     1       1.958   4.002  21.282  0.00  0.00    +0.000 C 
ATOM     18  C   UNL     1       2.556   2.699  21.776  0.00  0.00    +0.000 C 
ATOM     19  C   UNL     1       3.558   1.947  20.866  0.00  0.00    +0.000 C 
ATOM     20  C   UNL     1       4.303   2.691  19.720  0.00  0.00    +0.000 C 
ENDROOT
BRANCH   3  21
ATOM     21  C   UNL     1       0.615  11.699  20.071  0.00  0.00    +0.000 C 
BRANCH  21  22
ATOM     22  C   UNL     1      -0.652  12.224  19.406  0.00  0.00    +0.000 C 
ATOM     23  O   UNL     1      -0.806  13.420  19.176  0.00  0.00    +0.000 OA
ATOM     24  N   UNL     1      -1.574  11.232  19.148  0.00  0.00    +0.000 N 
ATOM     25  H   UNL     1      -1.493  10.382  19.705  0.00  0.00    +0.000 HD
BRANCH  24  26
ATOM     26  C   UNL     1      -2.811  11.466  18.527  0.00  0.00    +0.000 A 
ATOM     27  C   UNL     1      -3.045  11.186  17.172  0.00  0.00    +0.000 A 
ATOM     28  C   UNL     1      -4.305  11.422  16.613  0.00  0.00    +0.000 A 
ATOM     29  C   UNL     1      -5.308  11.976  17.401  0.00  0.00    +0.000 A 
ATOM     30  C   UNL     1      -5.080  12.274  18.739  0.00  0.00    +0.000 A 
ATOM     31  C   UNL     1      -3.840  11.988  19.310  0.00  0.00    +0.000 A 
BRANCH  29  32
ATOM     32  O   UNL     1      -6.549  12.241  16.900  0.00  0.00    +0.000 OA
ATOM     33  H   UNL     1      -6.457  12.500  15.969  0.00  0.00    +0.000 HD
ENDBRANCH  29  32
ENDBRANCH  24  26
ENDBRANCH  21  22
ENDBRANCH   3  21
TORSDOF 4
ENDMDL
