MODEL 1
REMARK VINA RESULT:      -7.8      0.000      0.000
REMARK  Name = 
REMARK  5 active torsions:
REMARK  status: ('A' for Active; 'I' for Inactive)
REMARK    1  A    between atoms: C_1  and  C_2
REMARK    2  A    between atoms: C_5  and  N_6
REMARK    3  A    between atoms: C_14  and  C_15
REMARK    4  A    between atoms: C_15  and  N_16
REMARK    5  A    between atoms: C_24  and  C_25
REMARK                            x       y       z     vdW  Elec       q    Type
REMARK                         _______ _______ _______ _____ _____    ______ ____
ROOT
ATOM      1  N   UNL     1       9.333   9.647  18.789  0.00  0.00    +0.000 N 
ATOM      2  C   UNL     1       8.180   9.484  18.018  0.00  0.00    +0.000 C 
ATOM      3  O   UNL     1       7.627  10.359  17.363  0.00  0.00    +0.000 OA
ATOM      4  N   UNL     1       7.680   8.203  18.017  0.00  0.00    +0.000 N 
ATOM      5  C   UNL     1       6.684   7.604  17.130  0.00  0.00    +0.000 C 
ATOM      6  C   UNL     1       6.879   6.253  17.915  0.00  0.00    +0.000 C 
ATOM      7  C   UNL     1       7.461   4.919  17.458  0.00  0.00    +0.000 C 
ATOM      8  C   UNL     1       6.322   3.929  17.502  0.00  0.00    +0.000 C 
ATOM      9  C   UNL     1       5.287   4.513  18.451  0.00  0.00    +0.000 C 
ATOM     10  O   UNL     1       5.682   5.888  18.675  0.00  0.00    +0.000 OA
ATOM     11  C   UNL     1       8.111   6.953  18.580  0.00  0.00    +0.000 C 
ATOM     12  H   UNL     1       9.730   8.812  19.170  0.00  0.00    +0.000 HD
ENDROOT
BRANCH   1  17
ATOM     13  C   UNL     1      12.324  14.536  19.569  0.00  0.00    +0.000 C 
ATOM     14  C   UNL     1      11.549  13.266  19.334  0.00  0.00    +0.000 A 
ATOM     15  C   UNL     1      10.965  12.613  20.426  0.00  0.00    +0.000 A 
ATOM     16  C   UNL     1      10.235  11.429  20.259  0.00  0.00    +0.000 A 
ATOM     17  C   UNL     1      10.057  10.858  19.003  0.00  0.00    +0.000 A 
ATOM     18  C   UNL     1      10.645  11.508  17.901  0.00  0.00    +0.000 A 
ATOM     19  C   UNL     1      11.389  12.707  18.054  0.00  0.00    +0.000 A 
ATOM     20  C   UNL     1      12.016  13.372  16.855  0.00  0.00    +0.000 C 
ENDBRANCH   1  17
BRANCH   9  21
ATOM     21  C   UNL     1       3.863   4.314  17.861  0.00  0.00    +0.000 C 
BRANCH  21  22
ATOM     22  N   UNL     1       2.949   3.620  18.800  0.00  0.00    +0.000 NA
ATOM     23  C   UNL     1       3.638   3.058  19.965  0.00  0.00    +0.000 C 
ATOM     24  C   UNL     1       2.524   2.850  20.975  0.00  0.00    +0.000 C 
ATOM     25  C   UNL     1       1.641   4.065  20.768  0.00  0.00    +0.000 C 
ATOM     26  C   UNL     1       1.856   4.461  19.305  0.00  0.00    +0.000 C 
ENDBRANCH  21  22
ENDBRANCH   9  21
TORSDOF 3
ENDMDL
MODEL 2
REMARK VINA RESULT:      -7.6      0.868      1.701
REMARK  Name = 
REMARK  5 active torsions:
REMARK  status: ('A' for Active; 'I' for Inactive)
REMARK    1  A    between atoms: C_1  and  C_2
REMARK    2  A    between atoms: C_5  and  N_6
REMARK    3  A    between atoms: C_14  and  C_15
REMARK    4  A    between atoms: C_15  and  N_16
REMARK    5  A    between atoms: C_24  and  C_25
REMARK                            x       y       z     vdW  Elec       q    Type
REMARK                         _______ _______ _______ _____ _____    ______ ____
ROOT
ATOM      1  N   UNL     1       9.349   9.727  18.895  0.00  0.00    +0.000 N 
ATOM      2  C   UNL     1       8.213   9.553  18.104  0.00  0.00    +0.000 C 
ATOM      3  O   UNL     1       7.658  10.424  17.444  0.00  0.00    +0.000 OA
ATOM      4  N   UNL     1       7.730   8.265  18.086  0.00  0.00    +0.000 N 
ATOM      5  C   UNL     1       6.759   7.657  17.178  0.00  0.00    +0.000 C 
ATOM      6  C   UNL     1       6.960   6.305  17.958  0.00  0.00    +0.000 C 
ATOM      7  C   UNL     1       7.568   4.981  17.503  0.00  0.00    +0.000 C 
ATOM      8  C   UNL     1       6.443   3.975  17.522  0.00  0.00    +0.000 C 
ATOM      9  C   UNL     1       5.384   4.539  18.456  0.00  0.00    +0.000 C 
ATOM     10  O   UNL     1       5.755   5.918  18.695  0.00  0.00    +0.000 OA
ATOM     11  C   UNL     1       8.170   7.017  18.649  0.00  0.00    +0.000 C 
ATOM     12  H   UNL     1       9.752   8.895  19.278  0.00  0.00    +0.000 HD
ENDROOT
BRANCH   1  17
ATOM     13  C   UNL     1      12.109  14.712  19.892  0.00  0.00    +0.000 C 
ATOM     14  C   UNL     1      11.374  13.418  19.660  0.00  0.00    +0.000 A 
ATOM     15  C   UNL     1      11.742  12.611  18.577  0.00  0.00    +0.000 A 
ATOM     16  C   UNL     1      11.088  11.399  18.318  0.00  0.00    +0.000 A 
ATOM     17  C   UNL     1      10.052  10.947  19.129  0.00  0.00    +0.000 A 
ATOM     18  C   UNL     1       9.674  11.756  20.218  0.00  0.00    +0.000 A 
ATOM     19  C   UNL     1      10.326  12.988  20.492  0.00  0.00    +0.000 A 
ATOM     20  C   UNL     1       9.890  13.836  21.660  0.00  0.00    +0.000 C 
ENDBRANCH   1  17
BRANCH   9  21
ATOM     21  C   UNL     1       3.973   4.323  17.839  0.00  0.00    +0.000 C 
BRANCH  21  22
ATOM     22  N   UNL     1       3.059   3.592  18.750  0.00  0.00    +0.000 NA
ATOM     23  C   UNL     1       2.040   4.453  19.356  0.00  0.00    +0.000 C 
ATOM     24  C   UNL     1       0.976   3.477  19.822  0.00  0.00    +0.000 C 
ATOM     25  C   UNL     1       0.946   2.444  18.712  0.00  0.00    +0.000 C 
ATOM     26  C   UNL     1       2.358   2.466  18.120  0.00  0.00    +0.000 C 
ENDBRANCH  21  22
ENDBRANCH   9  21
TORSDOF 3
ENDMDL
MODEL 3
REMARK VINA RESULT:      -7.4      0.589      1.453
REMARK  Name = 
REMARK  5 active torsions:
REMARK  status: ('A' for Active; 'I' for Inactive)
REMARK    1  A    between atoms: C_1  and  C_2
REMARK    2  A    between atoms: C_5  and  N_6
REMARK    3  A    between atoms: C_14  and  C_15
REMARK    4  A    between atoms: C_15  and  N_16
REMARK    5  A    between atoms: C_24  and  C_25
REMARK                            x       y       z     vdW  Elec       q    Type
REMARK                         _______ _______ _______ _____ _____    ______ ____
ROOT
ATOM      1  N   UNL     1       9.351   9.736  18.939  0.00  0.00    +0.000 N 
ATOM      2  C   UNL     1       8.255   9.547  18.096  0.00  0.00    +0.000 C 
ATOM      3  O   UNL     1       7.745  10.401  17.380  0.00  0.00    +0.000 OA
ATOM      4  N   UNL     1       7.758   8.265  18.096  0.00  0.00    +0.000 N 
ATOM      5  C   UNL     1       6.828   7.637  17.159  0.00  0.00    +0.000 C 
ATOM      6  C   UNL     1       6.972   6.309  17.993  0.00  0.00    +0.000 C 
ATOM      7  C   UNL     1       7.587   4.965  17.614  0.00  0.00    +0.000 C 
ATOM      8  C   UNL     1       6.450   3.972  17.608  0.00  0.00    +0.000 C 
ATOM      9  C   UNL     1       5.351   4.578  18.466  0.00  0.00    +0.000 C 
ATOM     10  O   UNL     1       5.726   5.960  18.679  0.00  0.00    +0.000 OA
ATOM     11  C   UNL     1       8.153   7.032  18.722  0.00  0.00    +0.000 C 
ATOM     12  H   UNL     1       9.723   8.914  19.370  0.00  0.00    +0.000 HD
ENDROOT
BRANCH   1  17
ATOM     13  C   UNL     1      12.118  14.721  19.918  0.00  0.00    +0.000 C 
ATOM     14  C   UNL     1      11.381  13.427  19.691  0.00  0.00    +0.000 A 
ATOM     15  C   UNL     1      11.748  12.615  18.611  0.00  0.00    +0.000 A 
ATOM     16  C   UNL     1      11.093  11.403  18.357  0.00  0.00    +0.000 A 
ATOM     17  C   UNL     1      10.055  10.956  19.169  0.00  0.00    +0.000 A 
ATOM     18  C   UNL     1       9.678  11.770  20.254  0.00  0.00    +0.000 A 
ATOM     19  C   UNL     1      10.332  13.002  20.524  0.00  0.00    +0.000 A 
ATOM     20  C   UNL     1       9.896  13.855  21.688  0.00  0.00    +0.000 C 
ENDBRANCH   1  17
BRANCH   9  21
ATOM     21  C   UNL     1       3.971   4.356  17.785  0.00  0.00    +0.000 C 
BRANCH  21  22
ATOM     22  N   UNL     1       2.907   4.001  18.755  0.00  0.00    +0.000 NA
ATOM     23  C   UNL     1       3.308   2.946  19.689  0.00  0.00    +0.000 C 
ATOM     24  C   UNL     1       2.321   3.085  20.833  0.00  0.00    +0.000 C 
ATOM     25  C   UNL     1       2.153   4.587  20.962  0.00  0.00    +0.000 C 
ATOM     26  C   UNL     1       2.426   5.133  19.557  0.00  0.00    +0.000 C 
ENDBRANCH  21  22
ENDBRANCH   9  21
TORSDOF 3
ENDMDL
MODEL 4
REMARK VINA RESULT:      -7.3      6.492     10.350
REMARK  Name = 
REMARK  5 active torsions:
REMARK  status: ('A' for Active; 'I' for Inactive)
REMARK    1  A    between atoms: C_1  and  C_2
REMARK    2  A    between atoms: C_5  and  N_6
REMARK    3  A    between atoms: C_14  and  C_15
REMARK    4  A    between atoms: C_15  and  N_16
REMARK    5  A    between atoms: C_24  and  C_25
REMARK                            x       y       z     vdW  Elec       q    Type
REMARK                         _______ _______ _______ _____ _____    ______ ____
ROOT
ATOM      1  N   UNL     1       2.291   7.022  18.507  0.00  0.00    +0.000 N 
ATOM      2  C   UNL     1       1.770   7.697  19.613  0.00  0.00    +0.000 C 
ATOM      3  O   UNL     1       1.602   7.221  20.729  0.00  0.00    +0.000 OA
ATOM      4  N   UNL     1       1.454   9.014  19.372  0.00  0.00    +0.000 N 
ATOM      5  C   UNL     1       1.162  10.081  20.327  0.00  0.00    +0.000 C 
ATOM      6  C   UNL     1       0.998  11.056  19.103  0.00  0.00    +0.000 C 
ATOM      7  C   UNL     1       1.837  12.256  18.675  0.00  0.00    +0.000 C 
ATOM      8  C   UNL     1       0.944  13.464  18.819  0.00  0.00    +0.000 C 
ATOM      9  C   UNL     1      -0.484  12.943  18.796  0.00  0.00    +0.000 C 
ATOM     10  O   UNL     1      -0.387  11.506  18.948  0.00  0.00    +0.000 OA
ATOM     11  C   UNL     1       1.601   9.894  18.245  0.00  0.00    +0.000 C 
ATOM     12  H   UNL     1       2.476   7.580  17.697  0.00  0.00    +0.000 HD
ENDROOT
BRANCH   1  17
ATOM     13  C   UNL     1       3.781   1.436  18.317  0.00  0.00    +0.000 C 
ATOM     14  C   UNL     1       3.362   2.882  18.367  0.00  0.00    +0.000 A 
ATOM     15  C   UNL     1       4.337   3.878  18.242  0.00  0.00    +0.000 A 
ATOM     16  C   UNL     1       3.998   5.237  18.283  0.00  0.00    +0.000 A 
ATOM     17  C   UNL     1       2.679   5.650  18.445  0.00  0.00    +0.000 A 
ATOM     18  C   UNL     1       1.694   4.653  18.576  0.00  0.00    +0.000 A 
ATOM     19  C   UNL     1       2.022   3.272  18.537  0.00  0.00    +0.000 A 
ATOM     20  C   UNL     1       0.944   2.229  18.691  0.00  0.00    +0.000 C 
ENDBRANCH   1  17
BRANCH   9  21
ATOM     21  C   UNL     1      -1.327  13.674  19.878  0.00  0.00    +0.000 C 
BRANCH  21  22
ATOM     22  N   UNL     1      -1.895  12.744  20.883  0.00  0.00    +0.000 NA
ATOM     23  C   UNL     1      -1.175  12.766  22.159  0.00  0.00    +0.000 C 
ATOM     24  C   UNL     1      -2.162  12.158  23.139  0.00  0.00    +0.000 C 
ATOM     25  C   UNL     1      -3.494  12.720  22.679  0.00  0.00    +0.000 C 
ATOM     26  C   UNL     1      -3.314  12.975  21.180  0.00  0.00    +0.000 C 
ENDBRANCH  21  22
ENDBRANCH   9  21
TORSDOF 3
ENDMDL
MODEL 5
REMARK VINA RESULT:      -7.1      7.073     10.644
REMARK  Name = 
REMARK  5 active torsions:
REMARK  status: ('A' for Active; 'I' for Inactive)
REMARK    1  A    between atoms: C_1  and  C_2
REMARK    2  A    between atoms: C_5  and  N_6
REMARK    3  A    between atoms: C_14  and  C_15
REMARK    4  A    between atoms: C_15  and  N_16
REMARK    5  A    between atoms: C_24  and  C_25
REMARK                            x       y       z     vdW  Elec       q    Type
REMARK                         _______ _______ _______ _____ _____    ______ ____
ROOT
ATOM      1  N   UNL     1       1.901   7.468  19.546  0.00  0.00    +0.000 N 
ATOM      2  C   UNL     1       1.503   8.285  20.606  0.00  0.00    +0.000 C 
ATOM      3  O   UNL     1       1.656   8.040  21.796  0.00  0.00    +0.000 OA
ATOM      4  N   UNL     1       0.911   9.464  20.217  0.00  0.00    +0.000 N 
ATOM      5  C   UNL     1       0.631  10.660  21.010  0.00  0.00    +0.000 C 
ATOM      6  C   UNL     1       0.045  11.320  19.706  0.00  0.00    +0.000 C 
ATOM      7  C   UNL     1       0.547  12.505  18.886  0.00  0.00    +0.000 C 
ATOM      8  C   UNL     1      -0.502  13.581  19.021  0.00  0.00    +0.000 C 
ATOM      9  C   UNL     1      -1.786  12.875  19.429  0.00  0.00    +0.000 C 
ATOM     10  O   UNL     1      -1.400  11.531  19.806  0.00  0.00    +0.000 OA
ATOM     11  C   UNL     1       0.661  10.096  18.950  0.00  0.00    +0.000 C 
ATOM     12  H   UNL     1       1.813   7.861  18.630  0.00  0.00    +0.000 HD
ENDROOT
BRANCH   1  17
ATOM     13  C   UNL     1       4.325   2.237  20.011  0.00  0.00    +0.000 C 
ATOM     14  C   UNL     1       3.668   3.589  19.905  0.00  0.00    +0.000 A 
ATOM     15  C   UNL     1       4.312   4.605  19.189  0.00  0.00    +0.000 A 
ATOM     16  C   UNL     1       3.742   5.878  19.062  0.00  0.00    +0.000 A 
ATOM     17  C   UNL     1       2.512   6.182  19.638  0.00  0.00    +0.000 A 
ATOM     18  C   UNL     1       1.861   5.166  20.362  0.00  0.00    +0.000 A 
ATOM     19  C   UNL     1       2.426   3.870  20.501  0.00  0.00    +0.000 A 
ATOM     20  C   UNL     1       1.708   2.807  21.293  0.00  0.00    +0.000 C 
ENDBRANCH   1  17
BRANCH   9  21
ATOM     21  C   UNL     1      -2.509  13.698  20.532  0.00  0.00    +0.000 C 
BRANCH  21  22
ATOM     22  N   UNL     1      -3.108  12.839  21.582  0.00  0.00    +0.000 NA
ATOM     23  C   UNL     1      -2.399  12.916  22.863  0.00  0.00    +0.000 C 
ATOM     24  C   UNL     1      -3.409  12.388  23.865  0.00  0.00    +0.000 C 
ATOM     25  C   UNL     1      -4.722  12.955  23.361  0.00  0.00    +0.000 C 
ATOM     26  C   UNL     1      -4.524  13.120  21.851  0.00  0.00    +0.000 C 
ENDBRANCH  21  22
ENDBRANCH   9  21
TORSDOF 3
ENDMDL
MODEL 6
REMARK VINA RESULT:      -7.1      7.270     10.368
REMARK  Name = 
REMARK  5 active torsions:
REMARK  status: ('A' for Active; 'I' for Inactive)
REMARK    1  A    between atoms: C_1  and  C_2
REMARK    2  A    between atoms: C_5  and  N_6
REMARK    3  A    between atoms: C_14  and  C_15
REMARK    4  A    between atoms: C_15  and  N_16
REMARK    5  A    between atoms: C_24  and  C_25
REMARK                            x       y       z     vdW  Elec       q    Type
REMARK                         _______ _______ _______ _____ _____    ______ ____
ROOT
ATOM      1  N   UNL     1       2.555   7.517  19.039  0.00  0.00    +0.000 N 
ATOM      2  C   UNL     1       1.623   8.480  18.647  0.00  0.00    +0.000 C 
ATOM      3  O   UNL     1       1.283   8.721  17.495  0.00  0.00    +0.000 OA
ATOM      4  N   UNL     1       1.056   9.173  19.691  0.00  0.00    +0.000 N 
ATOM      5  C   UNL     1      -0.127  10.032  19.691  0.00  0.00    +0.000 C 
ATOM      6  C   UNL     1       0.096  10.243  21.235  0.00  0.00    +0.000 C 
ATOM      7  C   UNL     1      -0.752   9.804  22.426  0.00  0.00    +0.000 C 
ATOM      8  C   UNL     1      -1.257  11.072  23.070  0.00  0.00    +0.000 C 
ATOM      9  C   UNL     1      -0.316  12.180  22.623  0.00  0.00    +0.000 C 
ATOM     10  O   UNL     1       0.475  11.622  21.546  0.00  0.00    +0.000 OA
ATOM     11  C   UNL     1       1.149   9.091  21.123  0.00  0.00    +0.000 C 
ATOM     12  H   UNL     1       2.637   7.358  20.023  0.00  0.00    +0.000 HD
ENDROOT
BRANCH   1  17
ATOM     13  C   UNL     1       5.651   3.998  15.649  0.00  0.00    +0.000 C 
ATOM     14  C   UNL     1       4.827   4.889  16.542  0.00  0.00    +0.000 A 
ATOM     15  C   UNL     1       5.025   6.274  16.490  0.00  0.00    +0.000 A 
ATOM     16  C   UNL     1       4.284   7.144  17.301  0.00  0.00    +0.000 A 
ATOM     17  C   UNL     1       3.321   6.668  18.185  0.00  0.00    +0.000 A 
ATOM     18  C   UNL     1       3.121   5.277  18.245  0.00  0.00    +0.000 A 
ATOM     19  C   UNL     1       3.864   4.381  17.431  0.00  0.00    +0.000 A 
ATOM     20  C   UNL     1       3.632   2.894  17.527  0.00  0.00    +0.000 C 
ENDBRANCH   1  17
BRANCH   9  21
ATOM     21  C   UNL     1      -1.137  13.450  22.262  0.00  0.00    +0.000 C 
BRANCH  21  22
ATOM     22  N   UNL     1      -2.149  13.786  23.293  0.00  0.00    +0.000 NA
ATOM     23  C   UNL     1      -1.662  14.745  24.288  0.00  0.00    +0.000 C 
ATOM     24  C   UNL     1      -2.933  15.295  24.909  0.00  0.00    +0.000 C 
ATOM     25  C   UNL     1      -3.874  15.405  23.725  0.00  0.00    +0.000 C 
ATOM     26  C   UNL     1      -3.403  14.324  22.749  0.00  0.00    +0.000 C 
ENDBRANCH  21  22
ENDBRANCH   9  21
TORSDOF 3
ENDMDL
MODEL 7
REMARK VINA RESULT:      -7.1      6.006      8.314
REMARK  Name = 
REMARK  5 active torsions:
REMARK  status: ('A' for Active; 'I' for Inactive)
REMARK    1  A    between atoms: C_1  and  C_2
REMARK    2  A    between atoms: C_5  and  N_6
REMARK    3  A    between atoms: C_14  and  C_15
REMARK    4  A    between atoms: C_15  and  N_16
REMARK    5  A    between atoms: C_24  and  C_25
REMARK                            x       y       z     vdW  Elec       q    Type
REMARK                         _______ _______ _______ _____ _____    ______ ____
ROOT
ATOM      1  N   UNL     1       1.035   9.165  19.590  0.00  0.00    +0.000 N 
ATOM      2  C   UNL     1       1.841   8.914  18.478  0.00  0.00    +0.000 C 
ATOM      3  O   UNL     1       2.005   9.669  17.527  0.00  0.00    +0.000 OA
ATOM      4  N   UNL     1       2.498   7.706  18.519  0.00  0.00    +0.000 N 
ATOM      5  C   UNL     1       3.612   7.236  17.698  0.00  0.00    +0.000 C 
ATOM      6  C   UNL     1       3.587   5.899  18.529  0.00  0.00    +0.000 C 
ATOM      7  C   UNL     1       4.615   5.316  19.495  0.00  0.00    +0.000 C 
ATOM      8  C   UNL     1       5.119   4.047  18.853  0.00  0.00    +0.000 C 
ATOM      9  C   UNL     1       4.057   3.626  17.849  0.00  0.00    +0.000 C 
ATOM     10  O   UNL     1       3.165   4.759  17.714  0.00  0.00    +0.000 OA
ATOM     11  C   UNL     1       2.604   6.650  19.489  0.00  0.00    +0.000 C 
ATOM     12  H   UNL     1       1.097   8.503  20.338  0.00  0.00    +0.000 HD
ENDROOT
BRANCH   1  17
ATOM     13  C   UNL     1      -2.326  13.802  20.401  0.00  0.00    +0.000 C 
ATOM     14  C   UNL     1      -1.474  12.581  20.172  0.00  0.00    +0.000 A 
ATOM     15  C   UNL     1      -0.250  12.470  20.843  0.00  0.00    +0.000 A 
ATOM     16  C   UNL     1       0.578  11.354  20.662  0.00  0.00    +0.000 A 
ATOM     17  C   UNL     1       0.216  10.312  19.814  0.00  0.00    +0.000 A 
ATOM     18  C   UNL     1      -1.011  10.420  19.134  0.00  0.00    +0.000 A 
ATOM     19  C   UNL     1      -1.861  11.545  19.305  0.00  0.00    +0.000 A 
ATOM     20  C   UNL     1      -3.165  11.635  18.552  0.00  0.00    +0.000 C 
ENDBRANCH   1  17
BRANCH   9  21
ATOM     21  C   UNL     1       4.738   3.150  16.535  0.00  0.00    +0.000 C 
BRANCH  21  22
ATOM     22  N   UNL     1       5.393   4.258  15.799  0.00  0.00    +0.000 NA
ATOM     23  C   UNL     1       6.799   4.442  16.168  0.00  0.00    +0.000 C 
ATOM     24  C   UNL     1       7.373   5.239  15.011  0.00  0.00    +0.000 C 
ATOM     25  C   UNL     1       6.679   4.640  13.803  0.00  0.00    +0.000 C 
ATOM     26  C   UNL     1       5.341   4.120  14.338  0.00  0.00    +0.000 C 
ENDBRANCH  21  22
ENDBRANCH   9  21
TORSDOF 3
ENDMDL
MODEL 8
REMARK VINA RESULT:      -7.1      6.960     10.123
REMARK  Name = 
REMARK  5 active torsions:
REMARK  status: ('A' for Active; 'I' for Inactive)
REMARK    1  A    between atoms: C_1  and  C_2
REMARK    2  A    between atoms: C_5  and  N_6
REMARK    3  A    between atoms: C_14  and  C_15
REMARK    4  A    between atoms: C_15  and  N_16
REMARK    5  A    between atoms: C_24  and  C_25
REMARK                            x       y       z     vdW  Elec       q    Type
REMARK                         _______ _______ _______ _____ _____    ______ ____
ROOT
ATOM      1  N   UNL     1       2.542   7.660  19.042  0.00  0.00    +0.000 N 
ATOM      2  C   UNL     1       1.535   8.544  18.647  0.00  0.00    +0.000 C 
ATOM      3  O   UNL     1       1.140   8.715  17.500  0.00  0.00    +0.000 OA
ATOM      4  N   UNL     1       0.960   9.242  19.684  0.00  0.00    +0.000 N 
ATOM      5  C   UNL     1      -0.276  10.022  19.696  0.00  0.00    +0.000 C 
ATOM      6  C   UNL     1      -0.014  10.311  21.220  0.00  0.00    +0.000 C 
ATOM      7  C   UNL     1      -0.788   9.868  22.459  0.00  0.00    +0.000 C 
ATOM      8  C   UNL     1      -1.354  11.126  23.071  0.00  0.00    +0.000 C 
ATOM      9  C   UNL     1      -0.504  12.273  22.546  0.00  0.00    +0.000 C 
ATOM     10  O   UNL     1       0.284  11.724  21.463  0.00  0.00    +0.000 OA
ATOM     11  C   UNL     1       1.109   9.226  21.114  0.00  0.00    +0.000 C 
ATOM     12  H   UNL     1       2.669   7.549  20.028  0.00  0.00    +0.000 HD
ENDROOT
BRANCH   1  17
ATOM     13  C   UNL     1       5.732   4.207  15.672  0.00  0.00    +0.000 C 
ATOM     14  C   UNL     1       4.883   5.081  16.558  0.00  0.00    +0.000 A 
ATOM     15  C   UNL     1       5.092   6.465  16.550  0.00  0.00    +0.000 A 
ATOM     16  C   UNL     1       4.330   7.320  17.357  0.00  0.00    +0.000 A 
ATOM     17  C   UNL     1       3.332   6.829  18.194  0.00  0.00    +0.000 A 
ATOM     18  C   UNL     1       3.120   5.437  18.209  0.00  0.00    +0.000 A 
ATOM     19  C   UNL     1       3.886   4.557  17.399  0.00  0.00    +0.000 A 
ATOM     20  C   UNL     1       3.641   3.070  17.447  0.00  0.00    +0.000 C 
ENDBRANCH   1  17
BRANCH   9  21
ATOM     21  C   UNL     1      -1.419  13.471  22.167  0.00  0.00    +0.000 C 
BRANCH  21  22
ATOM     22  N   UNL     1      -2.831  13.067  21.960  0.00  0.00    +0.000 NA
ATOM     23  C   UNL     1      -3.789  13.965  22.611  0.00  0.00    +0.000 C 
ATOM     24  C   UNL     1      -5.096  13.673  21.898  0.00  0.00    +0.000 C 
ATOM     25  C   UNL     1      -4.665  13.470  20.458  0.00  0.00    +0.000 C 
ATOM     26  C   UNL     1      -3.224  12.960  20.549  0.00  0.00    +0.000 C 
ENDBRANCH  21  22
ENDBRANCH   9  21
TORSDOF 3
ENDMDL
MODEL 9
REMARK VINA RESULT:      -7.1      7.435     10.626
REMARK  Name = 
REMARK  5 active torsions:
REMARK  status: ('A' for Active; 'I' for Inactive)
REMARK    1  A    between atoms: C_1  and  C_2
REMARK    2  A    between atoms: C_5  and  N_6
REMARK    3  A    between atoms: C_14  and  C_15
REMARK    4  A    between atoms: C_15  and  N_16
REMARK    5  A    between atoms: C_24  and  C_25
REMARK                            x       y       z     vdW  Elec       q    Type
REMARK                         _______ _______ _______ _____ _____    ______ ____
ROOT
ATOM      1  N   UNL     1       2.123   8.106  18.904  0.00  0.00    +0.000 N 
ATOM      2  C   UNL     1       1.698   8.123  20.234  0.00  0.00    +0.000 C 
ATOM      3  O   UNL     1       1.893   7.240  21.060  0.00  0.00    +0.000 OA
ATOM      4  N   UNL     1       1.023   9.266  20.595  0.00  0.00    +0.000 N 
ATOM      5  C   UNL     1       0.685   9.753  21.931  0.00  0.00    +0.000 C 
ATOM      6  C   UNL     1       0.029  11.009  21.247  0.00  0.00    +0.000 C 
ATOM      7  C   UNL     1       0.436  12.480  21.282  0.00  0.00    +0.000 C 
ATOM      8  C   UNL     1      -0.677  13.204  22.000  0.00  0.00    +0.000 C 
ATOM      9  C   UNL     1      -1.904  12.311  21.894  0.00  0.00    +0.000 C 
ATOM     10  O   UNL     1      -1.424  11.028  21.423  0.00  0.00    +0.000 OA
ATOM     11  C   UNL     1       0.705  10.500  19.930  0.00  0.00    +0.000 C 
ATOM     12  H   UNL     1       1.990   8.952  18.388  0.00  0.00    +0.000 HD
ENDROOT
BRANCH   1  17
ATOM     13  C   UNL     1       4.890   3.758  16.277  0.00  0.00    +0.000 C 
ATOM     14  C   UNL     1       4.144   4.871  16.967  0.00  0.00    +0.000 A 
ATOM     15  C   UNL     1       4.689   6.160  16.963  0.00  0.00    +0.000 A 
ATOM     16  C   UNL     1       4.035   7.228  17.591  0.00  0.00    +0.000 A 
ATOM     17  C   UNL     1       2.817   7.051  18.240  0.00  0.00    +0.000 A 
ATOM     18  C   UNL     1       2.266   5.756  18.251  0.00  0.00    +0.000 A 
ATOM     19  C   UNL     1       2.917   4.663  17.620  0.00  0.00    +0.000 A 
ATOM     20  C   UNL     1       2.305   3.285  17.660  0.00  0.00    +0.000 C 
ENDBRANCH   1  17
BRANCH   9  21
ATOM     21  C   UNL     1      -2.653  12.286  23.256  0.00  0.00    +0.000 C 
BRANCH  21  22
ATOM     22  N   UNL     1      -4.125  12.362  23.097  0.00  0.00    +0.000 NA
ATOM     23  C   UNL     1      -4.840  12.427  24.375  0.00  0.00    +0.000 C 
ATOM     24  C   UNL     1      -6.204  12.972  23.996  0.00  0.00    +0.000 C 
ATOM     25  C   UNL     1      -5.881  13.997  22.926  0.00  0.00    +0.000 C 
ATOM     26  C   UNL     1      -4.584  13.496  22.284  0.00  0.00    +0.000 C 
ENDBRANCH  21  22
ENDBRANCH   9  21
TORSDOF 3
ENDMDL
