MODEL 1
REMARK VINA RESULT:      -9.4      0.000      0.000
REMARK  Name = 
REMARK  8 active torsions:
REMARK  status: ('A' for Active; 'I' for Inactive)
REMARK    1  A    between atoms: C_1  and  C_2
REMARK    2  A    between atoms: C_2  and  C_3
REMARK    3  A    between atoms: C_2  and  S_4
REMARK    4  A    between atoms: S_4  and  C_7
REMARK    5  A    between atoms: C_10  and  C_11
REMARK    6  A    between atoms: C_14  and  N_15
REMARK    7  A    between atoms: C_16  and  C_17
REMARK    8  A    between atoms: C_20  and  C_21
REMARK                            x       y       z     vdW  Elec       q    Type
REMARK                         _______ _______ _______ _____ _____    ______ ____
ROOT
ATOM      1  C   UNL     1       2.796   6.277  19.500  0.00  0.00    +0.000 A 
ATOM      2  C   UNL     1       2.339   5.198  20.265  0.00  0.00    +0.000 A 
ATOM      3  N   UNL     1       2.947   3.994  20.324  0.00  0.00    +0.000 NA
ATOM      4  C   UNL     1       4.049   3.864  19.567  0.00  0.00    +0.000 A 
ATOM      5  C   UNL     1       4.535   4.930  18.783  0.00  0.00    +0.000 A 
ATOM      6  N   UNL     1       3.920   6.155  18.741  0.00  0.00    +0.000 NA
ENDROOT
BRANCH   1  10
ATOM      7  C   UNL     1       0.801  10.090  19.561  0.00  0.00    +0.000 A 
ATOM      8  C   UNL     1       1.457   9.667  18.401  0.00  0.00    +0.000 A 
ATOM      9  C   UNL     1       2.080   8.410  18.378  0.00  0.00    +0.000 A 
ATOM     10  C   UNL     1       2.087   7.572  19.505  0.00  0.00    +0.000 A 
ATOM     11  C   UNL     1       1.425   8.037  20.663  0.00  0.00    +0.000 A 
ATOM     12  C   UNL     1       0.803   9.289  20.699  0.00  0.00    +0.000 A 
BRANCH   7  13
ATOM     13  S   UNL     1      -0.015  11.676  19.611  0.00  0.00    +0.000 S 
ATOM     14  O   UNL     1       0.580  12.499  18.581  0.00  0.00    +0.000 OA
ATOM     15  O   UNL     1       0.015  12.104  21.003  0.00  0.00    +0.000 OA
BRANCH  13  17
ATOM     16  C   UNL     1      -2.627  12.405  19.863  0.00  0.00    +0.000 C 
ATOM     17  C   UNL     1      -1.733  11.370  19.173  0.00  0.00    +0.000 C 
ATOM     18  C   UNL     1      -1.966  11.403  17.668  0.00  0.00    +0.000 C 
ENDBRANCH  13  17
ENDBRANCH   7  13
ENDBRANCH   1  10
BRANCH   5  19
ATOM     19  C   UNL     1       5.662   4.684  17.890  0.00  0.00    +0.000 A 
ATOM     20  N   UNL     1       6.941   4.572  18.222  0.00  0.00    +0.000 NA
ATOM     21  C   UNL     1       7.588   4.479  17.023  0.00  0.00    +0.000 A 
ATOM     22  C   UNL     1       6.684   4.531  15.987  0.00  0.00    +0.000 A 
ATOM     23  O   UNL     1       5.430   4.660  16.542  0.00  0.00    +0.000 OA
BRANCH  22  24
ATOM     24  C   UNL     1       6.785   4.459  14.539  0.00  0.00    +0.000 A 
ATOM     25  C   UNL     1       7.684   5.284  13.842  0.00  0.00    +0.000 A 
ATOM     26  C   UNL     1       7.804   5.187  12.452  0.00  0.00    +0.000 A 
ATOM     27  C   UNL     1       7.020   4.274  11.748  0.00  0.00    +0.000 A 
ATOM     28  C   UNL     1       6.123   3.459  12.428  0.00  0.00    +0.000 A 
ATOM     29  C   UNL     1       6.005   3.555  13.816  0.00  0.00    +0.000 A 
ENDBRANCH  22  24
ENDBRANCH   5  19
BRANCH   4  30
ATOM     30  N   UNL     1       4.698   2.635  19.688  0.00  0.00    +0.000 N 
ATOM     31  H   UNL     1       4.981   2.513  20.654  0.00  0.00    +0.000 HD
ATOM     32  H   UNL     1       4.128   1.870  19.326  0.00  0.00    +0.000 HD
ENDBRANCH   4  30
TORSDOF 6
ENDMDL
MODEL 2
REMARK VINA RESULT:      -9.4      1.042      1.603
REMARK  Name = 
REMARK  8 active torsions:
REMARK  status: ('A' for Active; 'I' for Inactive)
REMARK    1  A    between atoms: C_1  and  C_2
REMARK    2  A    between atoms: C_2  and  C_3
REMARK    3  A    between atoms: C_2  and  S_4
REMARK    4  A    between atoms: S_4  and  C_7
REMARK    5  A    between atoms: C_10  and  C_11
REMARK    6  A    between atoms: C_14  and  N_15
REMARK    7  A    between atoms: C_16  and  C_17
REMARK    8  A    between atoms: C_20  and  C_21
REMARK                            x       y       z     vdW  Elec       q    Type
REMARK                         _______ _______ _______ _____ _____    ______ ____
ROOT
ATOM      1  C   UNL     1       2.800   6.045  19.722  0.00  0.00    +0.000 A 
ATOM      2  C   UNL     1       2.345   4.907  20.397  0.00  0.00    +0.000 A 
ATOM      3  N   UNL     1       2.959   3.705  20.365  0.00  0.00    +0.000 NA
ATOM      4  C   UNL     1       4.065   3.640  19.604  0.00  0.00    +0.000 A 
ATOM      5  C   UNL     1       4.549   4.765  18.908  0.00  0.00    +0.000 A 
ATOM      6  N   UNL     1       3.928   5.988  18.960  0.00  0.00    +0.000 NA
ENDROOT
BRANCH   1  10
ATOM      7  C   UNL     1       0.643   9.761  19.970  0.00  0.00    +0.000 A 
ATOM      8  C   UNL     1       0.617   8.868  21.047  0.00  0.00    +0.000 A 
ATOM      9  C   UNL     1       1.347   7.672  20.971  0.00  0.00    +0.000 A 
ATOM     10  C   UNL     1       2.084   7.331  19.825  0.00  0.00    +0.000 A 
ATOM     11  C   UNL     1       2.078   8.252  18.753  0.00  0.00    +0.000 A 
ATOM     12  C   UNL     1       1.352   9.445  18.815  0.00  0.00    +0.000 A 
BRANCH   7  13
ATOM     13  S   UNL     1      -0.261  11.297  20.048  0.00  0.00    +0.000 S 
ATOM     14  O   UNL     1      -0.189  11.771  21.412  0.00  0.00    +0.000 OA
ATOM     15  O   UNL     1      -1.553  11.040  19.426  0.00  0.00    +0.000 OA
BRANCH  13  17
ATOM     16  C   UNL     1      -0.376  13.320  18.228  0.00  0.00    +0.000 C 
ATOM     17  C   UNL     1       0.628  12.455  18.995  0.00  0.00    +0.000 C 
ATOM     18  C   UNL     1       1.584  13.343  19.782  0.00  0.00    +0.000 C 
ENDBRANCH  13  17
ENDBRANCH   7  13
ENDBRANCH   1  10
BRANCH   5  19
ATOM     19  C   UNL     1       5.680   4.596  18.003  0.00  0.00    +0.000 A 
ATOM     20  N   UNL     1       6.967   4.561  18.324  0.00  0.00    +0.000 NA
ATOM     21  C   UNL     1       7.607   4.515  17.118  0.00  0.00    +0.000 A 
ATOM     22  C   UNL     1       6.692   4.520  16.090  0.00  0.00    +0.000 A 
ATOM     23  O   UNL     1       5.437   4.567  16.657  0.00  0.00    +0.000 OA
BRANCH  22  24
ATOM     24  C   UNL     1       6.784   4.465  14.641  0.00  0.00    +0.000 A 
ATOM     25  C   UNL     1       7.691   5.285  13.949  0.00  0.00    +0.000 A 
ATOM     26  C   UNL     1       7.802   5.203  12.557  0.00  0.00    +0.000 A 
ATOM     27  C   UNL     1       7.000   4.311  11.847  0.00  0.00    +0.000 A 
ATOM     28  C   UNL     1       6.094   3.501  12.522  0.00  0.00    +0.000 A 
ATOM     29  C   UNL     1       5.985   3.582  13.911  0.00  0.00    +0.000 A 
ENDBRANCH  22  24
ENDBRANCH   5  19
BRANCH   4  30
ATOM     30  N   UNL     1       4.719   2.408  19.631  0.00  0.00    +0.000 N 
ATOM     31  H   UNL     1       4.828   2.121  20.598  0.00  0.00    +0.000 HD
ATOM     32  H   UNL     1       4.247   1.717  19.047  0.00  0.00    +0.000 HD
ENDBRANCH   4  30
TORSDOF 6
ENDMDL
MODEL 3
REMARK VINA RESULT:      -9.3      1.081      1.613
REMARK  Name = 
REMARK  8 active torsions:
REMARK  status: ('A' for Active; 'I' for Inactive)
REMARK    1  A    between atoms: C_1  and  C_2
REMARK    2  A    between atoms: C_2  and  C_3
REMARK    3  A    between atoms: C_2  and  S_4
REMARK    4  A    between atoms: S_4  and  C_7
REMARK    5  A    between atoms: C_10  and  C_11
REMARK    6  A    between atoms: C_14  and  N_15
REMARK    7  A    between atoms: C_16  and  C_17
REMARK    8  A    between atoms: C_20  and  C_21
REMARK                            x       y       z     vdW  Elec       q    Type
REMARK                         _______ _______ _______ _____ _____    ______ ____
ROOT
ATOM      1  C   UNL     1       2.830   6.136  19.644  0.00  0.00    +0.000 A 
ATOM      2  C   UNL     1       2.375   5.024  20.361  0.00  0.00    +0.000 A 
ATOM      3  N   UNL     1       2.986   3.820  20.368  0.00  0.00    +0.000 NA
ATOM      4  C   UNL     1       4.088   3.725  19.606  0.00  0.00    +0.000 A 
ATOM      5  C   UNL     1       4.572   4.824  18.868  0.00  0.00    +0.000 A 
ATOM      6  N   UNL     1       3.954   6.049  18.880  0.00  0.00    +0.000 NA
ENDROOT
BRANCH   1  10
ATOM      7  C   UNL     1       0.681   9.863  19.777  0.00  0.00    +0.000 A 
ATOM      8  C   UNL     1       0.734   9.050  20.914  0.00  0.00    +0.000 A 
ATOM      9  C   UNL     1       1.462   7.850  20.873  0.00  0.00    +0.000 A 
ATOM     10  C   UNL     1       2.119   7.428  19.705  0.00  0.00    +0.000 A 
ATOM     11  C   UNL     1       2.033   8.269  18.574  0.00  0.00    +0.000 A 
ATOM     12  C   UNL     1       1.309   9.465  18.601  0.00  0.00    +0.000 A 
BRANCH   7  13
ATOM     13  S   UNL     1      -0.221  11.402  19.809  0.00  0.00    +0.000 S 
ATOM     14  O   UNL     1      -1.595  11.103  19.473  0.00  0.00    +0.000 OA
ATOM     15  O   UNL     1       0.547  12.339  19.000  0.00  0.00    +0.000 OA
BRANCH  13  17
ATOM     16  C   UNL     1       0.334  13.429  21.541  0.00  0.00    +0.000 C 
ATOM     17  C   UNL     1      -0.165  11.981  21.512  0.00  0.00    +0.000 C 
ATOM     18  C   UNL     1      -1.517  11.884  22.206  0.00  0.00    +0.000 C 
ENDBRANCH  13  17
ENDBRANCH   7  13
ENDBRANCH   1  10
BRANCH   5  19
ATOM     19  C   UNL     1       5.698   4.620  17.965  0.00  0.00    +0.000 A 
ATOM     20  N   UNL     1       6.983   4.540  18.288  0.00  0.00    +0.000 NA
ATOM     21  C   UNL     1       7.624   4.477  17.084  0.00  0.00    +0.000 A 
ATOM     22  C   UNL     1       6.712   4.517  16.054  0.00  0.00    +0.000 A 
ATOM     23  O   UNL     1       5.458   4.605  16.619  0.00  0.00    +0.000 OA
BRANCH  22  24
ATOM     24  C   UNL     1       6.805   4.464  14.605  0.00  0.00    +0.000 A 
ATOM     25  C   UNL     1       7.698   5.301  13.914  0.00  0.00    +0.000 A 
ATOM     26  C   UNL     1       7.810   5.222  12.522  0.00  0.00    +0.000 A 
ATOM     27  C   UNL     1       7.024   4.317  11.810  0.00  0.00    +0.000 A 
ATOM     28  C   UNL     1       6.133   3.490  12.485  0.00  0.00    +0.000 A 
ATOM     29  C   UNL     1       6.023   3.568  13.875  0.00  0.00    +0.000 A 
ENDBRANCH  22  24
ENDBRANCH   5  19
BRANCH   4  30
ATOM     30  N   UNL     1       4.739   2.493  19.673  0.00  0.00    +0.000 N 
ATOM     31  H   UNL     1       4.991   2.313  20.639  0.00  0.00    +0.000 HD
ATOM     32  H   UNL     1       4.186   1.750  19.246  0.00  0.00    +0.000 HD
ENDBRANCH   4  30
TORSDOF 6
ENDMDL
MODEL 4
REMARK VINA RESULT:      -9.3      1.116      1.645
REMARK  Name = 
REMARK  8 active torsions:
REMARK  status: ('A' for Active; 'I' for Inactive)
REMARK    1  A    between atoms: C_1  and  C_2
REMARK    2  A    between atoms: C_2  and  C_3
REMARK    3  A    between atoms: C_2  and  S_4
REMARK    4  A    between atoms: S_4  and  C_7
REMARK    5  A    between atoms: C_10  and  C_11
REMARK    6  A    between atoms: C_14  and  N_15
REMARK    7  A    between atoms: C_16  and  C_17
REMARK    8  A    between atoms: C_20  and  C_21
REMARK                            x       y       z     vdW  Elec       q    Type
REMARK                         _______ _______ _______ _____ _____    ______ ____
ROOT
ATOM      1  C   UNL     1       2.791   6.070  19.639  0.00  0.00    +0.000 A 
ATOM      2  C   UNL     1       2.366   4.956  20.371  0.00  0.00    +0.000 A 
ATOM      3  N   UNL     1       3.011   3.769  20.395  0.00  0.00    +0.000 NA
ATOM      4  C   UNL     1       4.116   3.695  19.635  0.00  0.00    +0.000 A 
ATOM      5  C   UNL     1       4.569   4.797  18.882  0.00  0.00    +0.000 A 
ATOM      6  N   UNL     1       3.917   6.004  18.876  0.00  0.00    +0.000 NA
ENDROOT
BRANCH   1  10
ATOM      7  C   UNL     1       0.683   9.819  19.811  0.00  0.00    +0.000 A 
ATOM      8  C   UNL     1       1.340   9.444  18.635  0.00  0.00    +0.000 A 
ATOM      9  C   UNL     1       2.000   8.207  18.576  0.00  0.00    +0.000 A 
ATOM     10  C   UNL     1       2.043   7.342  19.682  0.00  0.00    +0.000 A 
ATOM     11  C   UNL     1       1.378   7.759  20.857  0.00  0.00    +0.000 A 
ATOM     12  C   UNL     1       0.720   8.991  20.929  0.00  0.00    +0.000 A 
BRANCH   7  13
ATOM     13  S   UNL     1      -0.179  11.377  19.907  0.00  0.00    +0.000 S 
ATOM     14  O   UNL     1      -1.572  11.118  19.619  0.00  0.00    +0.000 OA
ATOM     15  O   UNL     1       0.580  12.312  19.087  0.00  0.00    +0.000 OA
BRANCH  13  17
ATOM     16  C   UNL     1       0.277  13.418  21.653  0.00  0.00    +0.000 C 
ATOM     17  C   UNL     1      -0.043  11.921  21.618  0.00  0.00    +0.000 C 
ATOM     18  C   UNL     1      -1.308  11.641  22.421  0.00  0.00    +0.000 C 
ENDBRANCH  13  17
ENDBRANCH   7  13
ENDBRANCH   1  10
BRANCH   5  19
ATOM     19  C   UNL     1       5.702   4.612  17.982  0.00  0.00    +0.000 A 
ATOM     20  N   UNL     1       6.988   4.587  18.305  0.00  0.00    +0.000 NA
ATOM     21  C   UNL     1       7.630   4.518  17.101  0.00  0.00    +0.000 A 
ATOM     22  C   UNL     1       6.716   4.498  16.073  0.00  0.00    +0.000 A 
ATOM     23  O   UNL     1       5.461   4.554  16.637  0.00  0.00    +0.000 OA
BRANCH  22  24
ATOM     24  C   UNL     1       6.810   4.413  14.625  0.00  0.00    +0.000 A 
ATOM     25  C   UNL     1       5.978   3.540  13.903  0.00  0.00    +0.000 A 
ATOM     26  C   UNL     1       6.046   3.487  12.507  0.00  0.00    +0.000 A 
ATOM     27  C   UNL     1       6.954   4.295  11.824  0.00  0.00    +0.000 A 
ATOM     28  C   UNL     1       7.786   5.157  12.530  0.00  0.00    +0.000 A 
ATOM     29  C   UNL     1       7.716   5.210  13.923  0.00  0.00    +0.000 A 
ENDBRANCH  22  24
ENDBRANCH   5  19
BRANCH   4  30
ATOM     30  N   UNL     1       4.801   2.483  19.719  0.00  0.00    +0.000 N 
ATOM     31  H   UNL     1       5.694   2.584  19.249  0.00  0.00    +0.000 HD
ATOM     32  H   UNL     1       4.878   2.158  20.683  0.00  0.00    +0.000 HD
ENDBRANCH   4  30
TORSDOF 6
ENDMDL
MODEL 5
REMARK VINA RESULT:      -9.3      0.712      1.241
REMARK  Name = 
REMARK  8 active torsions:
REMARK  status: ('A' for Active; 'I' for Inactive)
REMARK    1  A    between atoms: C_1  and  C_2
REMARK    2  A    between atoms: C_2  and  C_3
REMARK    3  A    between atoms: C_2  and  S_4
REMARK    4  A    between atoms: S_4  and  C_7
REMARK    5  A    between atoms: C_10  and  C_11
REMARK    6  A    between atoms: C_14  and  N_15
REMARK    7  A    between atoms: C_16  and  C_17
REMARK    8  A    between atoms: C_20  and  C_21
REMARK                            x       y       z     vdW  Elec       q    Type
REMARK                         _______ _______ _______ _____ _____    ______ ____
ROOT
ATOM      1  C   UNL     1       2.763   6.105  19.685  0.00  0.00    +0.000 A 
ATOM      2  C   UNL     1       2.280   4.974  20.352  0.00  0.00    +0.000 A 
ATOM      3  N   UNL     1       2.876   3.762  20.328  0.00  0.00    +0.000 NA
ATOM      4  C   UNL     1       3.993   3.681  19.585  0.00  0.00    +0.000 A 
ATOM      5  C   UNL     1       4.504   4.799  18.897  0.00  0.00    +0.000 A 
ATOM      6  N   UNL     1       3.901   6.031  18.940  0.00  0.00    +0.000 NA
ENDROOT
BRANCH   1  10
ATOM      7  C   UNL     1       0.804   9.924  20.001  0.00  0.00    +0.000 A 
ATOM      8  C   UNL     1       1.393   9.543  18.791  0.00  0.00    +0.000 A 
ATOM      9  C   UNL     1       2.004   8.284  18.686  0.00  0.00    +0.000 A 
ATOM     10  C   UNL     1       2.065   7.402  19.778  0.00  0.00    +0.000 A 
ATOM     11  C   UNL     1       1.470   7.826  20.987  0.00  0.00    +0.000 A 
ATOM     12  C   UNL     1       0.861   9.080  21.105  0.00  0.00    +0.000 A 
BRANCH   7  13
ATOM     13  S   UNL     1       0.006  11.512  20.155  0.00  0.00    +0.000 S 
ATOM     14  O   UNL     1       0.989  12.442  20.664  0.00  0.00    +0.000 OA
ATOM     15  O   UNL     1      -1.231  11.275  20.889  0.00  0.00    +0.000 OA
BRANCH  13  17
ATOM     16  C   UNL     1      -1.830  11.466  18.144  0.00  0.00    +0.000 C 
ATOM     17  C   UNL     1      -0.441  12.013  18.486  0.00  0.00    +0.000 C 
ATOM     18  C   UNL     1      -0.420  13.526  18.305  0.00  0.00    +0.000 C 
ENDBRANCH  13  17
ENDBRANCH   7  13
ENDBRANCH   1  10
BRANCH   5  19
ATOM     19  C   UNL     1       5.646   4.613  18.009  0.00  0.00    +0.000 A 
ATOM     20  N   UNL     1       6.928   4.577  18.347  0.00  0.00    +0.000 NA
ATOM     21  C   UNL     1       7.584   4.513  17.151  0.00  0.00    +0.000 A 
ATOM     22  C   UNL     1       6.683   4.507  16.111  0.00  0.00    +0.000 A 
ATOM     23  O   UNL     1       5.421   4.567  16.661  0.00  0.00    +0.000 OA
BRANCH  22  24
ATOM     24  C   UNL     1       6.793   4.432  14.664  0.00  0.00    +0.000 A 
ATOM     25  C   UNL     1       5.981   3.553  13.928  0.00  0.00    +0.000 A 
ATOM     26  C   UNL     1       6.065   3.509  12.533  0.00  0.00    +0.000 A 
ATOM     27  C   UNL     1       6.969   4.334  11.864  0.00  0.00    +0.000 A 
ATOM     28  C   UNL     1       7.781   5.202  12.584  0.00  0.00    +0.000 A 
ATOM     29  C   UNL     1       7.695   5.246  13.977  0.00  0.00    +0.000 A 
ENDBRANCH  22  24
ENDBRANCH   5  19
BRANCH   4  30
ATOM     30  N   UNL     1       4.627   2.439  19.621  0.00  0.00    +0.000 N 
ATOM     31  H   UNL     1       4.079   1.781  19.078  0.00  0.00    +0.000 HD
ATOM     32  H   UNL     1       5.602   2.504  19.327  0.00  0.00    +0.000 HD
ENDBRANCH   4  30
TORSDOF 6
ENDMDL
MODEL 6
REMARK VINA RESULT:      -9.2      1.186      1.595
REMARK  Name = 
REMARK  8 active torsions:
REMARK  status: ('A' for Active; 'I' for Inactive)
REMARK    1  A    between atoms: C_1  and  C_2
REMARK    2  A    between atoms: C_2  and  C_3
REMARK    3  A    between atoms: C_2  and  S_4
REMARK    4  A    between atoms: S_4  and  C_7
REMARK    5  A    between atoms: C_10  and  C_11
REMARK    6  A    between atoms: C_14  and  N_15
REMARK    7  A    between atoms: C_16  and  C_17
REMARK    8  A    between atoms: C_20  and  C_21
REMARK                            x       y       z     vdW  Elec       q    Type
REMARK                         _______ _______ _______ _____ _____    ______ ____
ROOT
ATOM      1  C   UNL     1       2.797   6.094  19.649  0.00  0.00    +0.000 A 
ATOM      2  C   UNL     1       2.355   4.978  20.367  0.00  0.00    +0.000 A 
ATOM      3  N   UNL     1       2.979   3.780  20.373  0.00  0.00    +0.000 NA
ATOM      4  C   UNL     1       4.080   3.697  19.609  0.00  0.00    +0.000 A 
ATOM      5  C   UNL     1       4.551   4.801  18.870  0.00  0.00    +0.000 A 
ATOM      6  N   UNL     1       3.920   6.019  18.882  0.00  0.00    +0.000 NA
ENDROOT
BRANCH   1  10
ATOM      7  C   UNL     1       0.754   9.876  19.878  0.00  0.00    +0.000 A 
ATOM      8  C   UNL     1       1.410   9.510  18.698  0.00  0.00    +0.000 A 
ATOM      9  C   UNL     1       2.049   8.263  18.620  0.00  0.00    +0.000 A 
ATOM     10  C   UNL     1       2.071   7.378  19.711  0.00  0.00    +0.000 A 
ATOM     11  C   UNL     1       1.408   7.786  20.889  0.00  0.00    +0.000 A 
ATOM     12  C   UNL     1       0.770   9.027  20.981  0.00  0.00    +0.000 A 
BRANCH   7  13
ATOM     13  S   UNL     1      -0.082  11.448  19.997  0.00  0.00    +0.000 S 
ATOM     14  O   UNL     1      -1.117  11.311  20.997  0.00  0.00    +0.000 OA
ATOM     15  O   UNL     1      -0.421  11.832  18.633  0.00  0.00    +0.000 OA
BRANCH  13  17
ATOM     16  C   UNL     1       1.928  13.193  19.420  0.00  0.00    +0.000 C 
ATOM     17  C   UNL     1       1.142  12.620  20.603  0.00  0.00    +0.000 C 
ATOM     18  C   UNL     1       0.517  13.752  21.408  0.00  0.00    +0.000 C 
ENDBRANCH  13  17
ENDBRANCH   7  13
ENDBRANCH   1  10
BRANCH   5  19
ATOM     19  C   UNL     1       5.678   4.608  17.964  0.00  0.00    +0.000 A 
ATOM     20  N   UNL     1       6.964   4.545  18.285  0.00  0.00    +0.000 NA
ATOM     21  C   UNL     1       7.602   4.488  17.079  0.00  0.00    +0.000 A 
ATOM     22  C   UNL     1       6.688   4.513  16.051  0.00  0.00    +0.000 A 
ATOM     23  O   UNL     1       5.434   4.587  16.619  0.00  0.00    +0.000 OA
BRANCH  22  24
ATOM     24  C   UNL     1       6.778   4.458  14.602  0.00  0.00    +0.000 A 
ATOM     25  C   UNL     1       7.672   5.291  13.908  0.00  0.00    +0.000 A 
ATOM     26  C   UNL     1       7.781   5.210  12.516  0.00  0.00    +0.000 A 
ATOM     27  C   UNL     1       6.992   4.305  11.807  0.00  0.00    +0.000 A 
ATOM     28  C   UNL     1       6.100   3.481  12.485  0.00  0.00    +0.000 A 
ATOM     29  C   UNL     1       5.992   3.562  13.875  0.00  0.00    +0.000 A 
ENDBRANCH  22  24
ENDBRANCH   5  19
BRANCH   4  30
ATOM     30  N   UNL     1       4.745   2.472  19.675  0.00  0.00    +0.000 N 
ATOM     31  H   UNL     1       4.357   1.936  20.444  0.00  0.00    +0.000 HD
ATOM     32  H   UNL     1       4.725   1.982  18.780  0.00  0.00    +0.000 HD
ENDBRANCH   4  30
TORSDOF 6
ENDMDL
MODEL 7
REMARK VINA RESULT:      -9.1      1.116      1.926
REMARK  Name = 
REMARK  8 active torsions:
REMARK  status: ('A' for Active; 'I' for Inactive)
REMARK    1  A    between atoms: C_1  and  C_2
REMARK    2  A    between atoms: C_2  and  C_3
REMARK    3  A    between atoms: C_2  and  S_4
REMARK    4  A    between atoms: S_4  and  C_7
REMARK    5  A    between atoms: C_10  and  C_11
REMARK    6  A    between atoms: C_14  and  N_15
REMARK    7  A    between atoms: C_16  and  C_17
REMARK    8  A    between atoms: C_20  and  C_21
REMARK                            x       y       z     vdW  Elec       q    Type
REMARK                         _______ _______ _______ _____ _____    ______ ____
ROOT
ATOM      1  C   UNL     1       2.770   6.333  19.533  0.00  0.00    +0.000 A 
ATOM      2  C   UNL     1       2.310   5.258  20.302  0.00  0.00    +0.000 A 
ATOM      3  N   UNL     1       2.921   4.056  20.373  0.00  0.00    +0.000 NA
ATOM      4  C   UNL     1       4.029   3.924  19.624  0.00  0.00    +0.000 A 
ATOM      5  C   UNL     1       4.517   4.985  18.835  0.00  0.00    +0.000 A 
ATOM      6  N   UNL     1       3.899   6.208  18.781  0.00  0.00    +0.000 NA
ENDROOT
BRANCH   1  10
ATOM      7  C   UNL     1       0.618  10.059  19.468  0.00  0.00    +0.000 A 
ATOM      8  C   UNL     1       0.709   9.329  20.658  0.00  0.00    +0.000 A 
ATOM      9  C   UNL     1       1.437   8.130  20.679  0.00  0.00    +0.000 A 
ATOM     10  C   UNL     1       2.058   7.626  19.524  0.00  0.00    +0.000 A 
ATOM     11  C   UNL     1       1.934   8.384  18.339  0.00  0.00    +0.000 A 
ATOM     12  C   UNL     1       1.209   9.579  18.304  0.00  0.00    +0.000 A 
BRANCH   7  13
ATOM     13  S   UNL     1      -0.287  11.596  19.418  0.00  0.00    +0.000 S 
ATOM     14  O   UNL     1      -1.087  11.665  20.621  0.00  0.00    +0.000 OA
ATOM     15  O   UNL     1      -0.922  11.651  18.108  0.00  0.00    +0.000 OA
BRANCH  13  17
ATOM     16  C   UNL     1       1.882  12.670  20.668  0.00  0.00    +0.000 C 
ATOM     17  C   UNL     1       0.946  12.906  19.479  0.00  0.00    +0.000 C 
ATOM     18  C   UNL     1       1.756  13.005  18.192  0.00  0.00    +0.000 C 
ENDBRANCH  13  17
ENDBRANCH   7  13
ENDBRANCH   1  10
BRANCH   5  19
ATOM     19  C   UNL     1       5.650   4.736  17.951  0.00  0.00    +0.000 A 
ATOM     20  N   UNL     1       6.929   4.648  18.290  0.00  0.00    +0.000 NA
ATOM     21  C   UNL     1       7.581   4.538  17.095  0.00  0.00    +0.000 A 
ATOM     22  C   UNL     1       6.681   4.557  16.055  0.00  0.00    +0.000 A 
ATOM     23  O   UNL     1       5.423   4.680  16.603  0.00  0.00    +0.000 OA
BRANCH  22  24
ATOM     24  C   UNL     1       6.788   4.457  14.610  0.00  0.00    +0.000 A 
ATOM     25  C   UNL     1       5.973   3.566  13.891  0.00  0.00    +0.000 A 
ATOM     26  C   UNL     1       6.054   3.498  12.496  0.00  0.00    +0.000 A 
ATOM     27  C   UNL     1       6.956   4.310  11.811  0.00  0.00    +0.000 A 
ATOM     28  C   UNL     1       7.771   5.190  12.514  0.00  0.00    +0.000 A 
ATOM     29  C   UNL     1       7.689   5.259  13.906  0.00  0.00    +0.000 A 
ENDBRANCH  22  24
ENDBRANCH   5  19
BRANCH   4  30
ATOM     30  N   UNL     1       4.679   2.697  19.757  0.00  0.00    +0.000 N 
ATOM     31  H   UNL     1       4.271   2.198  20.540  0.00  0.00    +0.000 HD
ATOM     32  H   UNL     1       4.672   2.168  18.884  0.00  0.00    +0.000 HD
ENDBRANCH   4  30
TORSDOF 6
ENDMDL
MODEL 8
REMARK VINA RESULT:      -9.0      0.398      1.306
REMARK  Name = 
REMARK  8 active torsions:
REMARK  status: ('A' for Active; 'I' for Inactive)
REMARK    1  A    between atoms: C_1  and  C_2
REMARK    2  A    between atoms: C_2  and  C_3
REMARK    3  A    between atoms: C_2  and  S_4
REMARK    4  A    between atoms: S_4  and  C_7
REMARK    5  A    between atoms: C_10  and  C_11
REMARK    6  A    between atoms: C_14  and  N_15
REMARK    7  A    between atoms: C_16  and  C_17
REMARK    8  A    between atoms: C_20  and  C_21
REMARK                            x       y       z     vdW  Elec       q    Type
REMARK                         _______ _______ _______ _____ _____    ______ ____
ROOT
ATOM      1  C   UNL     1       2.674   6.176  19.611  0.00  0.00    +0.000 A 
ATOM      2  C   UNL     1       2.074   5.033  20.152  0.00  0.00    +0.000 A 
ATOM      3  N   UNL     1       2.582   3.785  20.050  0.00  0.00    +0.000 NA
ATOM      4  C   UNL     1       3.728   3.681  19.357  0.00  0.00    +0.000 A 
ATOM      5  C   UNL     1       4.356   4.811  18.796  0.00  0.00    +0.000 A 
ATOM      6  N   UNL     1       3.843   6.078  18.919  0.00  0.00    +0.000 NA
ENDROOT
BRANCH   1  10
ATOM      7  C   UNL     1       0.831  10.037  20.074  0.00  0.00    +0.000 A 
ATOM      8  C   UNL     1       0.865   9.149  21.154  0.00  0.00    +0.000 A 
ATOM      9  C   UNL     1       1.495   7.904  21.005  0.00  0.00    +0.000 A 
ATOM     10  C   UNL     1       2.069   7.511  19.785  0.00  0.00    +0.000 A 
ATOM     11  C   UNL     1       2.004   8.428  18.713  0.00  0.00    +0.000 A 
ATOM     12  C   UNL     1       1.378   9.671  18.848  0.00  0.00    +0.000 A 
BRANCH   7  13
ATOM     13  S   UNL     1       0.053  11.634  20.242  0.00  0.00    +0.000 S 
ATOM     14  O   UNL     1       0.667  12.517  19.274  0.00  0.00    +0.000 OA
ATOM     15  O   UNL     1       0.093  11.958  21.662  0.00  0.00    +0.000 OA
BRANCH  13  17
ATOM     16  C   UNL     1      -2.465  12.666  20.130  0.00  0.00    +0.000 C 
ATOM     17  C   UNL     1      -1.672  11.402  19.785  0.00  0.00    +0.000 C 
ATOM     18  C   UNL     1      -1.845  11.067  18.309  0.00  0.00    +0.000 C 
ENDBRANCH  13  17
ENDBRANCH   7  13
ENDBRANCH   1  10
BRANCH   5  19
ATOM     19  C   UNL     1       5.529   4.613  17.953  0.00  0.00    +0.000 A 
ATOM     20  N   UNL     1       6.797   4.557  18.339  0.00  0.00    +0.000 NA
ATOM     21  C   UNL     1       7.497   4.489  17.169  0.00  0.00    +0.000 A 
ATOM     22  C   UNL     1       6.637   4.502  16.095  0.00  0.00    +0.000 A 
ATOM     23  O   UNL     1       5.356   4.578  16.596  0.00  0.00    +0.000 OA
BRANCH  22  24
ATOM     24  C   UNL     1       6.802   4.433  14.653  0.00  0.00    +0.000 A 
ATOM     25  C   UNL     1       6.033   3.542  13.886  0.00  0.00    +0.000 A 
ATOM     26  C   UNL     1       6.170   3.504  12.494  0.00  0.00    +0.000 A 
ATOM     27  C   UNL     1       7.083   4.346  11.861  0.00  0.00    +0.000 A 
ATOM     28  C   UNL     1       7.853   5.227  12.613  0.00  0.00    +0.000 A 
ATOM     29  C   UNL     1       7.715   5.265  14.002  0.00  0.00    +0.000 A 
ENDBRANCH  22  24
ENDBRANCH   5  19
BRANCH   4  30
ATOM     30  N   UNL     1       4.268   2.396  19.314  0.00  0.00    +0.000 N 
ATOM     31  H   UNL     1       3.989   1.958  18.442  0.00  0.00    +0.000 HD
ATOM     32  H   UNL     1       5.277   2.404  19.465  0.00  0.00    +0.000 HD
ENDBRANCH   4  30
TORSDOF 6
ENDMDL
MODEL 9
REMARK VINA RESULT:      -8.1      0.892      1.445
REMARK  Name = 
REMARK  8 active torsions:
REMARK  status: ('A' for Active; 'I' for Inactive)
REMARK    1  A    between atoms: C_1  and  C_2
REMARK    2  A    between atoms: C_2  and  C_3
REMARK    3  A    between atoms: C_2  and  S_4
REMARK    4  A    between atoms: S_4  and  C_7
REMARK    5  A    between atoms: C_10  and  C_11
REMARK    6  A    between atoms: C_14  and  N_15
REMARK    7  A    between atoms: C_16  and  C_17
REMARK    8  A    between atoms: C_20  and  C_21
REMARK                            x       y       z     vdW  Elec       q    Type
REMARK                         _______ _______ _______ _____ _____    ______ ____
ROOT
ATOM      1  C   UNL     1       2.937   6.543  19.035  0.00  0.00    +0.000 A 
ATOM      2  C   UNL     1       2.708   5.485  19.922  0.00  0.00    +0.000 A 
ATOM      3  N   UNL     1       3.396   4.323  19.916  0.00  0.00    +0.000 NA
ATOM      4  C   UNL     1       4.339   4.213  18.965  0.00  0.00    +0.000 A 
ATOM      5  C   UNL     1       4.592   5.257  18.053  0.00  0.00    +0.000 A 
ATOM      6  N   UNL     1       3.900   6.441  18.076  0.00  0.00    +0.000 NA
ENDROOT
BRANCH   1  10
ATOM      7  C   UNL     1       0.734  10.229  19.328  0.00  0.00    +0.000 A 
ATOM      8  C   UNL     1       1.390   9.903  18.137  0.00  0.00    +0.000 A 
ATOM      9  C   UNL     1       2.081   8.686  18.037  0.00  0.00    +0.000 A 
ATOM     10  C   UNL     1       2.157   7.793  19.119  0.00  0.00    +0.000 A 
ATOM     11  C   UNL     1       1.492   8.160  20.310  0.00  0.00    +0.000 A 
ATOM     12  C   UNL     1       0.803   9.372  20.423  0.00  0.00    +0.000 A 
BRANCH   7  13
ATOM     13  S   UNL     1      -0.168  11.761  19.475  0.00  0.00    +0.000 S 
ATOM     14  O   UNL     1       0.640  12.796  18.869  0.00  0.00    +0.000 OA
ATOM     15  O   UNL     1      -0.569  11.864  20.871  0.00  0.00    +0.000 OA
BRANCH  13  17
ATOM     16  C   UNL     1      -1.854  10.077  18.155  0.00  0.00    +0.000 C 
ATOM     17  C   UNL     1      -1.663  11.558  18.493  0.00  0.00    +0.000 C 
ATOM     18  C   UNL     1      -2.902  12.094  19.201  0.00  0.00    +0.000 C 
ENDBRANCH  13  17
ENDBRANCH   7  13
ENDBRANCH   1  10
BRANCH   5  19
ATOM     19  C   UNL     1       5.540   5.025  16.969  0.00  0.00    +0.000 A 
ATOM     20  N   UNL     1       6.810   5.404  16.918  0.00  0.00    +0.000 NA
ATOM     21  C   UNL     1       7.207   5.061  15.657  0.00  0.00    +0.000 A 
ATOM     22  C   UNL     1       6.168   4.476  14.971  0.00  0.00    +0.000 A 
ATOM     23  O   UNL     1       5.082   4.445  15.818  0.00  0.00    +0.000 OA
BRANCH  22  24
ATOM     24  C   UNL     1       6.012   3.909  13.642  0.00  0.00    +0.000 A 
ATOM     25  C   UNL     1       4.735   3.630  13.127  0.00  0.00    +0.000 A 
ATOM     26  C   UNL     1       4.587   3.117  11.834  0.00  0.00    +0.000 A 
ATOM     27  C   UNL     1       5.714   2.870  11.051  0.00  0.00    +0.000 A 
ATOM     28  C   UNL     1       6.983   3.137  11.554  0.00  0.00    +0.000 A 
ATOM     29  C   UNL     1       7.129   3.650  12.844  0.00  0.00    +0.000 A 
ENDBRANCH  22  24
ENDBRANCH   5  19
BRANCH   4  30
ATOM     30  N   UNL     1       5.079   3.032  19.012  0.00  0.00    +0.000 N 
ATOM     31  H   UNL     1       5.906   3.192  19.578  0.00  0.00    +0.000 HD
ATOM     32  H   UNL     1       4.512   2.243  19.324  0.00  0.00    +0.000 HD
ENDBRANCH   4  30
TORSDOF 6
ENDMDL
