MODEL 1
REMARK VINA RESULT:      -7.9      0.000      0.000
REMARK  Name = 
REMARK  9 active torsions:
REMARK  status: ('A' for Active; 'I' for Inactive)
REMARK    1  A    between atoms: C_1  and  O_2
REMARK    2  A    between atoms: O_2  and  C_3
REMARK    3  A    between atoms: C_8  and  N_9
REMARK    4  A    between atoms: C_13  and  C_15
REMARK    5  A    between atoms: C_15  and  C_16
REMARK    6  A    between atoms: C_16  and  N_17
REMARK    7  A    between atoms: N_17  and  S_18
REMARK    8  A    between atoms: S_18  and  C_21
REMARK    9  A    between atoms: C_27  and  N_28
REMARK                            x       y       z     vdW  Elec       q    Type
REMARK                         _______ _______ _______ _____ _____    ______ ____
ROOT
ATOM      1  C   UNL     1       2.384   6.506  20.082  0.00  0.00    +0.000 C 
ENDROOT
BRANCH   1   6
ATOM      2  N   UNL     1      -0.385  10.662  21.533  0.00  0.00    +0.000 N 
ATOM      3  C   UNL     1      -0.475  10.553  20.070  0.00  0.00    +0.000 C 
ATOM      4  C   UNL     1       0.848   9.988  19.519  0.00  0.00    +0.000 C 
ATOM      5  N   UNL     1       1.260   8.743  20.193  0.00  0.00    +0.000 N 
ATOM      6  C   UNL     1       1.936   7.801  19.439  0.00  0.00    +0.000 C 
ATOM      7  O   UNL     1       2.118   7.949  18.227  0.00  0.00    +0.000 OA
ATOM      8  C   UNL     1       1.241   8.829  21.668  0.00  0.00    +0.000 C 
ATOM      9  C   UNL     1      -0.094   9.386  22.200  0.00  0.00    +0.000 C 
BRANCH   2  15
ATOM     10  C   UNL     1      -0.256  13.016  22.274  0.00  0.00    +0.000 A 
ATOM     11  C   UNL     1      -0.845  14.090  22.962  0.00  0.00    +0.000 A 
ATOM     12  C   UNL     1      -2.081  13.948  23.585  0.00  0.00    +0.000 A 
ATOM     13  C   UNL     1      -2.731  12.724  23.546  0.00  0.00    +0.000 A 
ATOM     14  C   UNL     1      -2.141  11.643  22.887  0.00  0.00    +0.000 A 
ATOM     15  C   UNL     1      -0.897  11.747  22.233  0.00  0.00    +0.000 A 
BRANCH  10  17
ATOM     16  C   UNL     1       0.927  13.853  20.375  0.00  0.00    +0.000 C 
ATOM     17  O   UNL     1       0.944  13.145  21.607  0.00  0.00    +0.000 OA
ENDBRANCH  10  17
ENDBRANCH   2  15
ENDBRANCH   1   6
BRANCH   1  18
ATOM     18  C   UNL     1       2.658   5.510  18.965  0.00  0.00    +0.000 C 
BRANCH  18  19
ATOM     19  N   UNL     1       4.037   5.650  18.475  0.00  0.00    +0.000 NA
ATOM     20  H   UNL     1       4.654   6.320  18.934  0.00  0.00    +0.000 HD
BRANCH  19  21
ATOM     21  S   UNL     1       4.865   4.235  18.086  0.00  0.00    +0.000 S 
ATOM     22  O   UNL     1       5.822   4.019  19.149  0.00  0.00    +0.000 OA
ATOM     23  O   UNL     1       3.885   3.218  17.774  0.00  0.00    +0.000 OA
BRANCH  21  24
ATOM     24  C   UNL     1       5.724   4.643  16.609  0.00  0.00    +0.000 A 
ATOM     25  C   UNL     1       5.344   4.006  15.420  0.00  0.00    +0.000 A 
ATOM     26  C   UNL     1       6.089   4.223  14.272  0.00  0.00    +0.000 A 
ATOM     27 BR   UNL     1       5.612   3.406  12.645  0.00  0.00    +0.000 Br
ATOM     28  C   UNL     1       7.196   5.046  14.360  0.00  0.00    +0.000 A 
ATOM     29  N   UNL     1       7.580   5.669  15.502  0.00  0.00    +0.000 NA
ATOM     30  C   UNL     1       6.848   5.462  16.619  0.00  0.00    +0.000 A 
BRANCH  30  31
ATOM     31  N   UNL     1       7.256   6.220  17.705  0.00  0.00    +0.000 N 
ATOM     32  H   UNL     1       7.736   7.050  17.367  0.00  0.00    +0.000 HD
ATOM     33  H   UNL     1       7.793   5.691  18.393  0.00  0.00    +0.000 HD
ENDBRANCH  30  31
ENDBRANCH  21  24
ENDBRANCH  19  21
ENDBRANCH  18  19
ENDBRANCH   1  18
TORSDOF 8
ENDMDL
MODEL 2
REMARK VINA RESULT:      -7.5      1.411      1.666
REMARK  Name = 
REMARK  9 active torsions:
REMARK  status: ('A' for Active; 'I' for Inactive)
REMARK    1  A    between atoms: C_1  and  O_2
REMARK    2  A    between atoms: O_2  and  C_3
REMARK    3  A    between atoms: C_8  and  N_9
REMARK    4  A    between atoms: C_13  and  C_15
REMARK    5  A    between atoms: C_15  and  C_16
REMARK    6  A    between atoms: C_16  and  N_17
REMARK    7  A    between atoms: N_17  and  S_18
REMARK    8  A    between atoms: S_18  and  C_21
REMARK    9  A    between atoms: C_27  and  N_28
REMARK                            x       y       z     vdW  Elec       q    Type
REMARK                         _______ _______ _______ _____ _____    ______ ____
ROOT
ATOM      1  C   UNL     1       2.419   7.065  19.557  0.00  0.00    +0.000 C 
ENDROOT
BRANCH   1   6
ATOM      2  N   UNL     1      -0.507  10.925  21.452  0.00  0.00    +0.000 N 
ATOM      3  C   UNL     1      -0.726  10.868  19.999  0.00  0.00    +0.000 C 
ATOM      4  C   UNL     1       0.578  10.433  19.304  0.00  0.00    +0.000 C 
ATOM      5  N   UNL     1       1.144   9.199  19.877  0.00  0.00    +0.000 N 
ATOM      6  C   UNL     1       1.815   8.345  19.021  0.00  0.00    +0.000 C 
ATOM      7  O   UNL     1       1.871   8.557  17.805  0.00  0.00    +0.000 OA
ATOM      8  C   UNL     1       1.258   9.223  21.350  0.00  0.00    +0.000 C 
ATOM      9  C   UNL     1      -0.060   9.650  22.027  0.00  0.00    +0.000 C 
BRANCH   2  15
ATOM     10  C   UNL     1      -0.408  13.205  22.397  0.00  0.00    +0.000 A 
ATOM     11  C   UNL     1      -1.009  14.206  23.179  0.00  0.00    +0.000 A 
ATOM     12  C   UNL     1      -2.241  13.991  23.792  0.00  0.00    +0.000 A 
ATOM     13  C   UNL     1      -2.873  12.766  23.647  0.00  0.00    +0.000 A 
ATOM     14  C   UNL     1      -2.271  11.756  22.893  0.00  0.00    +0.000 A 
ATOM     15  C   UNL     1      -1.032  11.936  22.246  0.00  0.00    +0.000 A 
BRANCH  10  17
ATOM     16  C   UNL     1       1.324  14.726  21.769  0.00  0.00    +0.000 C 
ATOM     17  O   UNL     1       0.786  13.410  21.740  0.00  0.00    +0.000 OA
ENDBRANCH  10  17
ENDBRANCH   2  15
ENDBRANCH   1   6
BRANCH   1  18
ATOM     18  C   UNL     1       2.490   6.074  18.405  0.00  0.00    +0.000 C 
BRANCH  18  19
ATOM     19  N   UNL     1       2.155   4.718  18.869  0.00  0.00    +0.000 NA
ATOM     20  H   UNL     1       1.194   4.520  19.147  0.00  0.00    +0.000 HD
BRANCH  19  21
ATOM     21  S   UNL     1       2.816   3.426  18.014  0.00  0.00    +0.000 S 
ATOM     22  O   UNL     1       2.888   2.319  18.943  0.00  0.00    +0.000 OA
ATOM     23  O   UNL     1       2.080   3.288  16.776  0.00  0.00    +0.000 OA
BRANCH  21  24
ATOM     24  C   UNL     1       4.443   3.964  17.629  0.00  0.00    +0.000 A 
ATOM     25  C   UNL     1       4.797   4.103  16.280  0.00  0.00    +0.000 A 
ATOM     26  C   UNL     1       6.110   4.408  15.956  0.00  0.00    +0.000 A 
ATOM     27 BR   UNL     1       6.634   4.622  14.161  0.00  0.00    +0.000 Br
ATOM     28  C   UNL     1       7.021   4.537  16.987  0.00  0.00    +0.000 A 
ATOM     29  N   UNL     1       6.698   4.404  18.297  0.00  0.00    +0.000 NA
ATOM     30  C   UNL     1       5.416   4.115  18.612  0.00  0.00    +0.000 A 
BRANCH  30  31
ATOM     31  N   UNL     1       5.162   4.102  19.974  0.00  0.00    +0.000 N 
ATOM     32  H   UNL     1       6.046   4.058  20.474  0.00  0.00    +0.000 HD
ATOM     33  H   UNL     1       4.496   3.381  20.258  0.00  0.00    +0.000 HD
ENDBRANCH  30  31
ENDBRANCH  21  24
ENDBRANCH  19  21
ENDBRANCH  18  19
ENDBRANCH   1  18
TORSDOF 8
ENDMDL
MODEL 3
REMARK VINA RESULT:      -7.4      1.659      2.093
REMARK  Name = 
REMARK  9 active torsions:
REMARK  status: ('A' for Active; 'I' for Inactive)
REMARK    1  A    between atoms: C_1  and  O_2
REMARK    2  A    between atoms: O_2  and  C_3
REMARK    3  A    between atoms: C_8  and  N_9
REMARK    4  A    between atoms: C_13  and  C_15
REMARK    5  A    between atoms: C_15  and  C_16
REMARK    6  A    between atoms: C_16  and  N_17
REMARK    7  A    between atoms: N_17  and  S_18
REMARK    8  A    between atoms: S_18  and  C_21
REMARK    9  A    between atoms: C_27  and  N_28
REMARK                            x       y       z     vdW  Elec       q    Type
REMARK                         _______ _______ _______ _____ _____    ______ ____
ROOT
ATOM      1  C   UNL     1       2.715   7.351  18.925  0.00  0.00    +0.000 C 
ENDROOT
BRANCH   1   6
ATOM      2  N   UNL     1      -0.128  11.078  21.177  0.00  0.00    +0.000 N 
ATOM      3  C   UNL     1       0.088  10.017  22.173  0.00  0.00    +0.000 C 
ATOM      4  C   UNL     1       0.130   8.652  21.460  0.00  0.00    +0.000 C 
ATOM      5  N   UNL     1       1.081   8.626  20.334  0.00  0.00    +0.000 N 
ATOM      6  C   UNL     1       1.730   7.434  20.072  0.00  0.00    +0.000 C 
ATOM      7  O   UNL     1       1.590   6.445  20.800  0.00  0.00    +0.000 OA
ATOM      8  C   UNL     1       0.927   9.759  19.397  0.00  0.00    +0.000 C 
ATOM      9  C   UNL     1       0.899  11.116  20.128  0.00  0.00    +0.000 C 
BRANCH   2  15
ATOM     10  C   UNL     1      -2.091  12.459  20.589  0.00  0.00    +0.000 A 
ATOM     11  C   UNL     1      -2.933  13.540  20.900  0.00  0.00    +0.000 A 
ATOM     12  C   UNL     1      -2.710  14.316  22.034  0.00  0.00    +0.000 A 
ATOM     13  C   UNL     1      -1.631  14.033  22.856  0.00  0.00    +0.000 A 
ATOM     14  C   UNL     1      -0.773  12.977  22.541  0.00  0.00    +0.000 A 
ATOM     15  C   UNL     1      -0.969  12.159  21.410  0.00  0.00    +0.000 A 
BRANCH  10  17
ATOM     16  C   UNL     1      -3.532  11.843  18.786  0.00  0.00    +0.000 C 
ATOM     17  O   UNL     1      -2.319  11.645  19.500  0.00  0.00    +0.000 OA
ENDBRANCH  10  17
ENDBRANCH   2  15
ENDBRANCH   1   6
BRANCH   1  18
ATOM     18  C   UNL     1       2.644   5.938  18.363  0.00  0.00    +0.000 C 
BRANCH  18  19
ATOM     19  N   UNL     1       3.393   5.005  19.217  0.00  0.00    +0.000 NA
ATOM     20  H   UNL     1       3.056   4.830  20.165  0.00  0.00    +0.000 HD
BRANCH  19  21
ATOM     21  S   UNL     1       3.952   3.585  18.503  0.00  0.00    +0.000 S 
ATOM     22  O   UNL     1       4.520   2.790  19.570  0.00  0.00    +0.000 OA
ATOM     23  O   UNL     1       2.885   3.048  17.687  0.00  0.00    +0.000 OA
BRANCH  21  24
ATOM     24  C   UNL     1       5.240   4.127  17.440  0.00  0.00    +0.000 A 
ATOM     25  C   UNL     1       5.126   3.865  16.068  0.00  0.00    +0.000 A 
ATOM     26  C   UNL     1       6.187   4.176  15.232  0.00  0.00    +0.000 A 
ATOM     27 BR   UNL     1       6.079   3.860  13.380  0.00  0.00    +0.000 Br
ATOM     28  C   UNL     1       7.327   4.714  15.800  0.00  0.00    +0.000 A 
ATOM     29  N   UNL     1       7.456   4.972  17.124  0.00  0.00    +0.000 NA
ATOM     30  C   UNL     1       6.418   4.676  17.937  0.00  0.00    +0.000 A 
BRANCH  30  31
ATOM     31  N   UNL     1       6.604   5.071  19.252  0.00  0.00    +0.000 N 
ATOM     32  H   UNL     1       6.954   6.025  19.264  0.00  0.00    +0.000 HD
ATOM     33  H   UNL     1       7.173   4.420  19.796  0.00  0.00    +0.000 HD
ENDBRANCH  30  31
ENDBRANCH  21  24
ENDBRANCH  19  21
ENDBRANCH  18  19
ENDBRANCH   1  18
TORSDOF 8
ENDMDL
MODEL 4
REMARK VINA RESULT:      -7.4      1.484      1.957
REMARK  Name = 
REMARK  9 active torsions:
REMARK  status: ('A' for Active; 'I' for Inactive)
REMARK    1  A    between atoms: C_1  and  O_2
REMARK    2  A    between atoms: O_2  and  C_3
REMARK    3  A    between atoms: C_8  and  N_9
REMARK    4  A    between atoms: C_13  and  C_15
REMARK    5  A    between atoms: C_15  and  C_16
REMARK    6  A    between atoms: C_16  and  N_17
REMARK    7  A    between atoms: N_17  and  S_18
REMARK    8  A    between atoms: S_18  and  C_21
REMARK    9  A    between atoms: C_27  and  N_28
REMARK                            x       y       z     vdW  Elec       q    Type
REMARK                         _______ _______ _______ _____ _____    ______ ____
ROOT
ATOM      1  C   UNL     1       2.976   7.667  17.918  0.00  0.00    +0.000 C 
ENDROOT
BRANCH   1   6
ATOM      2  N   UNL     1       0.108  10.913  20.797  0.00  0.00    +0.000 N 
ATOM      3  C   UNL     1       0.662   9.889  21.695  0.00  0.00    +0.000 C 
ATOM      4  C   UNL     1       0.763   8.551  20.939  0.00  0.00    +0.000 C 
ATOM      5  N   UNL     1       1.475   8.675  19.654  0.00  0.00    +0.000 N 
ATOM      6  C   UNL     1       2.228   7.594  19.232  0.00  0.00    +0.000 C 
ATOM      7  O   UNL     1       2.374   6.591  19.937  0.00  0.00    +0.000 OA
ATOM      8  C   UNL     1       0.982   9.779  18.804  0.00  0.00    +0.000 C 
ATOM      9  C   UNL     1       0.898  11.111  19.575  0.00  0.00    +0.000 C 
BRANCH   2  15
ATOM     10  C   UNL     1      -1.877  12.330  20.397  0.00  0.00    +0.000 A 
ATOM     11  C   UNL     1      -2.813  13.250  20.897  0.00  0.00    +0.000 A 
ATOM     12  C   UNL     1      -2.749  13.689  22.217  0.00  0.00    +0.000 A 
ATOM     13  C   UNL     1      -1.736  13.228  23.044  0.00  0.00    +0.000 A 
ATOM     14  C   UNL     1      -0.786  12.334  22.547  0.00  0.00    +0.000 A 
ATOM     15  C   UNL     1      -0.820  11.855  21.222  0.00  0.00    +0.000 A 
BRANCH  10  17
ATOM     16  C   UNL     1      -3.243  11.599  18.579  0.00  0.00    +0.000 C 
ATOM     17  O   UNL     1      -1.947  11.843  19.110  0.00  0.00    +0.000 OA
ENDBRANCH  10  17
ENDBRANCH   2  15
ENDBRANCH   1   6
BRANCH   1  18
ATOM     18  C   UNL     1       4.150   6.703  18.005  0.00  0.00    +0.000 C 
BRANCH  18  19
ATOM     19  N   UNL     1       3.727   5.341  17.646  0.00  0.00    +0.000 NA
ATOM     20  H   UNL     1       3.054   5.221  16.888  0.00  0.00    +0.000 HD
BRANCH  19  21
ATOM     21  S   UNL     1       4.920   4.153  17.589  0.00  0.00    +0.000 S 
ATOM     22  O   UNL     1       5.795   4.403  18.713  0.00  0.00    +0.000 OA
ATOM     23  O   UNL     1       4.265   2.870  17.451  0.00  0.00    +0.000 OA
BRANCH  21  24
ATOM     24  C   UNL     1       5.783   4.494  16.098  0.00  0.00    +0.000 A 
ATOM     25  C   UNL     1       5.354   3.865  14.922  0.00  0.00    +0.000 A 
ATOM     26  C   UNL     1       6.097   4.026  13.763  0.00  0.00    +0.000 A 
ATOM     27 BR   UNL     1       5.557   3.216  12.151  0.00  0.00    +0.000 Br
ATOM     28  C   UNL     1       7.248   4.789  13.828  0.00  0.00    +0.000 A 
ATOM     29  N   UNL     1       7.678   5.404  14.957  0.00  0.00    +0.000 NA
ATOM     30  C   UNL     1       6.949   5.252  16.084  0.00  0.00    +0.000 A 
BRANCH  30  31
ATOM     31  N   UNL     1       7.411   6.000  17.156  0.00  0.00    +0.000 N 
ATOM     32  H   UNL     1       6.651   6.132  17.818  0.00  0.00    +0.000 HD
ATOM     33  H   UNL     1       7.867   6.870  16.879  0.00  0.00    +0.000 HD
ENDBRANCH  30  31
ENDBRANCH  21  24
ENDBRANCH  19  21
ENDBRANCH  18  19
ENDBRANCH   1  18
TORSDOF 8
ENDMDL
MODEL 5
REMARK VINA RESULT:      -7.3      1.539      1.825
REMARK  Name = 
REMARK  9 active torsions:
REMARK  status: ('A' for Active; 'I' for Inactive)
REMARK    1  A    between atoms: C_1  and  O_2
REMARK    2  A    between atoms: O_2  and  C_3
REMARK    3  A    between atoms: C_8  and  N_9
REMARK    4  A    between atoms: C_13  and  C_15
REMARK    5  A    between atoms: C_15  and  C_16
REMARK    6  A    between atoms: C_16  and  N_17
REMARK    7  A    between atoms: N_17  and  S_18
REMARK    8  A    between atoms: S_18  and  C_21
REMARK    9  A    between atoms: C_27  and  N_28
REMARK                            x       y       z     vdW  Elec       q    Type
REMARK                         _______ _______ _______ _____ _____    ______ ____
ROOT
ATOM      1  C   UNL     1       2.688   6.888  18.619  0.00  0.00    +0.000 C 
ENDROOT
BRANCH   1   6
ATOM      2  N   UNL     1       0.426  11.125  20.613  0.00  0.00    +0.000 N 
ATOM      3  C   UNL     1       0.693  10.196  21.722  0.00  0.00    +0.000 C 
ATOM      4  C   UNL     1       0.547   8.748  21.218  0.00  0.00    +0.000 C 
ATOM      5  N   UNL     1       1.342   8.483  20.005  0.00  0.00    +0.000 N 
ATOM      6  C   UNL     1       1.867   7.214  19.848  0.00  0.00    +0.000 C 
ATOM      7  O   UNL     1       1.751   6.351  20.724  0.00  0.00    +0.000 OA
ATOM      8  C   UNL     1       1.150   9.486  18.936  0.00  0.00    +0.000 C 
ATOM      9  C   UNL     1       1.310  10.928  19.458  0.00  0.00    +0.000 C 
BRANCH   2  15
ATOM     10  C   UNL     1       0.278  13.504  21.263  0.00  0.00    +0.000 A 
ATOM     11  C   UNL     1      -0.496  14.672  21.370  0.00  0.00    +0.000 A 
ATOM     12  C   UNL     1      -1.830  14.683  20.973  0.00  0.00    +0.000 A 
ATOM     13  C   UNL     1      -2.410  13.522  20.487  0.00  0.00    +0.000 A 
ATOM     14  C   UNL     1      -1.656  12.350  20.402  0.00  0.00    +0.000 A 
ATOM     15  C   UNL     1      -0.300  12.297  20.781  0.00  0.00    +0.000 A 
BRANCH  10  17
ATOM     16  C   UNL     1       2.467  14.408  20.946  0.00  0.00    +0.000 C 
ATOM     17  O   UNL     1       1.614  13.479  21.603  0.00  0.00    +0.000 OA
ENDBRANCH  10  17
ENDBRANCH   2  15
ENDBRANCH   1   6
BRANCH   1  18
ATOM     18  C   UNL     1       2.604   5.384  18.397  0.00  0.00    +0.000 C 
BRANCH  18  19
ATOM     19  N   UNL     1       3.499   4.676  19.324  0.00  0.00    +0.000 NA
ATOM     20  H   UNL     1       3.182   4.508  20.279  0.00  0.00    +0.000 HD
BRANCH  19  21
ATOM     21  S   UNL     1       4.334   3.341  18.722  0.00  0.00    +0.000 S 
ATOM     22  O   UNL     1       5.072   2.787  19.836  0.00  0.00    +0.000 OA
ATOM     23  O   UNL     1       3.391   2.519  17.994  0.00  0.00    +0.000 OA
BRANCH  21  24
ATOM     24  C   UNL     1       5.462   4.036  17.569  0.00  0.00    +0.000 A 
ATOM     25  C   UNL     1       5.278   3.761  16.208  0.00  0.00    +0.000 A 
ATOM     26  C   UNL     1       6.227   4.198  15.298  0.00  0.00    +0.000 A 
ATOM     27 BR   UNL     1       6.020   3.869  13.456  0.00  0.00    +0.000 Br
ATOM     28  C   UNL     1       7.332   4.872  15.783  0.00  0.00    +0.000 A 
ATOM     29  N   UNL     1       7.528   5.146  17.096  0.00  0.00    +0.000 NA
ATOM     30  C   UNL     1       6.598   4.726  17.981  0.00  0.00    +0.000 A 
BRANCH  30  31
ATOM     31  N   UNL     1       6.833   5.142  19.282  0.00  0.00    +0.000 N 
ATOM     32  H   UNL     1       6.958   4.325  19.873  0.00  0.00    +0.000 HD
ATOM     33  H   UNL     1       6.133   5.798  19.633  0.00  0.00    +0.000 HD
ENDBRANCH  30  31
ENDBRANCH  21  24
ENDBRANCH  19  21
ENDBRANCH  18  19
ENDBRANCH   1  18
TORSDOF 8
ENDMDL
MODEL 6
REMARK VINA RESULT:      -7.1      1.585      1.836
REMARK  Name = 
REMARK  9 active torsions:
REMARK  status: ('A' for Active; 'I' for Inactive)
REMARK    1  A    between atoms: C_1  and  O_2
REMARK    2  A    between atoms: O_2  and  C_3
REMARK    3  A    between atoms: C_8  and  N_9
REMARK    4  A    between atoms: C_13  and  C_15
REMARK    5  A    between atoms: C_15  and  C_16
REMARK    6  A    between atoms: C_16  and  N_17
REMARK    7  A    between atoms: N_17  and  S_18
REMARK    8  A    between atoms: S_18  and  C_21
REMARK    9  A    between atoms: C_27  and  N_28
REMARK                            x       y       z     vdW  Elec       q    Type
REMARK                         _______ _______ _______ _____ _____    ______ ____
ROOT
ATOM      1  C   UNL     1       1.999   6.336  20.746  0.00  0.00    +0.000 C 
ENDROOT
BRANCH   1   6
ATOM      2  N   UNL     1      -0.552  10.865  20.910  0.00  0.00    +0.000 N 
ATOM      3  C   UNL     1      -0.282  10.555  19.499  0.00  0.00    +0.000 C 
ATOM      4  C   UNL     1       1.064   9.813  19.390  0.00  0.00    +0.000 C 
ATOM      5  N   UNL     1       1.147   8.649  20.290  0.00  0.00    +0.000 N 
ATOM      6  C   UNL     1       1.879   7.557  19.859  0.00  0.00    +0.000 C 
ATOM      7  O   UNL     1       2.378   7.516  18.730  0.00  0.00    +0.000 OA
ATOM      8  C   UNL     1       0.765   8.946  21.687  0.00  0.00    +0.000 C 
ATOM      9  C   UNL     1      -0.588   9.679  21.775  0.00  0.00    +0.000 C 
BRANCH   2  15
ATOM     10  C   UNL     1      -2.217  12.676  20.676  0.00  0.00    +0.000 A 
ATOM     11  C   UNL     1      -2.754  13.881  21.160  0.00  0.00    +0.000 A 
ATOM     12  C   UNL     1      -2.227  14.494  22.293  0.00  0.00    +0.000 A 
ATOM     13  C   UNL     1      -1.145  13.921  22.942  0.00  0.00    +0.000 A 
ATOM     14  C   UNL     1      -0.588  12.737  22.453  0.00  0.00    +0.000 A 
ATOM     15  C   UNL     1      -1.097  12.077  21.317  0.00  0.00    +0.000 A 
BRANCH  10  17
ATOM     16  C   UNL     1      -4.150  12.162  19.370  0.00  0.00    +0.000 C 
ATOM     17  O   UNL     1      -2.752  12.024  19.586  0.00  0.00    +0.000 OA
ENDBRANCH  10  17
ENDBRANCH   2  15
ENDBRANCH   1   6
BRANCH   1  18
ATOM     18  C   UNL     1       2.249   5.137  19.843  0.00  0.00    +0.000 C 
BRANCH  18  19
ATOM     19  N   UNL     1       3.685   4.999  19.556  0.00  0.00    +0.000 NA
ATOM     20  H   UNL     1       4.357   5.281  20.269  0.00  0.00    +0.000 HD
BRANCH  19  21
ATOM     21  S   UNL     1       4.183   3.587  18.782  0.00  0.00    +0.000 S 
ATOM     22  O   UNL     1       4.822   2.774  19.794  0.00  0.00    +0.000 OA
ATOM     23  O   UNL     1       3.058   3.067  18.037  0.00  0.00    +0.000 OA
BRANCH  21  24
ATOM     24  C   UNL     1       5.394   4.140  17.637  0.00  0.00    +0.000 A 
ATOM     25  C   UNL     1       5.195   3.872  16.276  0.00  0.00    +0.000 A 
ATOM     26  C   UNL     1       6.197   4.192  15.373  0.00  0.00    +0.000 A 
ATOM     27 BR   UNL     1       5.975   3.868  13.532  0.00  0.00    +0.000 Br
ATOM     28  C   UNL     1       7.365   4.744  15.865  0.00  0.00    +0.000 A 
ATOM     29  N   UNL     1       7.576   5.009  17.178  0.00  0.00    +0.000 NA
ATOM     30  C   UNL     1       6.595   4.704  18.056  0.00  0.00    +0.000 A 
BRANCH  30  31
ATOM     31  N   UNL     1       6.861   5.106  19.356  0.00  0.00    +0.000 N 
ATOM     32  H   UNL     1       6.015   5.010  19.911  0.00  0.00    +0.000 HD
ATOM     33  H   UNL     1       7.287   6.032  19.417  0.00  0.00    +0.000 HD
ENDBRANCH  30  31
ENDBRANCH  21  24
ENDBRANCH  19  21
ENDBRANCH  18  19
ENDBRANCH   1  18
TORSDOF 8
ENDMDL
MODEL 7
REMARK VINA RESULT:      -7.1      1.858      2.243
REMARK  Name = 
REMARK  9 active torsions:
REMARK  status: ('A' for Active; 'I' for Inactive)
REMARK    1  A    between atoms: C_1  and  O_2
REMARK    2  A    between atoms: O_2  and  C_3
REMARK    3  A    between atoms: C_8  and  N_9
REMARK    4  A    between atoms: C_13  and  C_15
REMARK    5  A    between atoms: C_15  and  C_16
REMARK    6  A    between atoms: C_16  and  N_17
REMARK    7  A    between atoms: N_17  and  S_18
REMARK    8  A    between atoms: S_18  and  C_21
REMARK    9  A    between atoms: C_27  and  N_28
REMARK                            x       y       z     vdW  Elec       q    Type
REMARK                         _______ _______ _______ _____ _____    ______ ____
ROOT
ATOM      1  C   UNL     1       2.901   6.912  18.962  0.00  0.00    +0.000 C 
ENDROOT
BRANCH   1   6
ATOM      2  N   UNL     1      -0.463  10.662  20.253  0.00  0.00    +0.000 N 
ATOM      3  C   UNL     1      -0.332  10.664  18.788  0.00  0.00    +0.000 C 
ATOM      4  C   UNL     1       1.107  10.271  18.406  0.00  0.00    +0.000 C 
ATOM      5  N   UNL     1       1.546   9.019  19.050  0.00  0.00    +0.000 N 
ATOM      6  C   UNL     1       2.416   8.208  18.346  0.00  0.00    +0.000 C 
ATOM      7  O   UNL     1       2.754   8.470  17.187  0.00  0.00    +0.000 OA
ATOM      8  C   UNL     1       1.308   8.983  20.509  0.00  0.00    +0.000 C 
ATOM      9  C   UNL     1      -0.140   9.369  20.869  0.00  0.00    +0.000 C 
BRANCH   2  15
ATOM     10  C   UNL     1      -2.390  12.197  20.445  0.00  0.00    +0.000 A 
ATOM     11  C   UNL     1      -3.097  13.145  21.204  0.00  0.00    +0.000 A 
ATOM     12  C   UNL     1      -2.649  13.527  22.466  0.00  0.00    +0.000 A 
ATOM     13  C   UNL     1      -1.480  12.982  22.973  0.00  0.00    +0.000 A 
ATOM     14  C   UNL     1      -0.758  12.058  22.214  0.00  0.00    +0.000 A 
ATOM     15  C   UNL     1      -1.180  11.635  20.938  0.00  0.00    +0.000 A 
BRANCH  10  17
ATOM     16  C   UNL     1      -4.209  11.986  18.911  0.00  0.00    +0.000 C 
ATOM     17  O   UNL     1      -2.838  11.766  19.215  0.00  0.00    +0.000 OA
ENDBRANCH  10  17
ENDBRANCH   2  15
ENDBRANCH   1   6
BRANCH   1  18
ATOM     18  C   UNL     1       2.239   5.770  18.205  0.00  0.00    +0.000 C 
BRANCH  18  19
ATOM     19  N   UNL     1       2.450   4.495  18.908  0.00  0.00    +0.000 NA
ATOM     20  H   UNL     1       1.733   4.170  19.558  0.00  0.00    +0.000 HD
BRANCH  19  21
ATOM     21  S   UNL     1       3.079   3.215  18.012  0.00  0.00    +0.000 S 
ATOM     22  O   UNL     1       3.343   2.150  18.955  0.00  0.00    +0.000 OA
ATOM     23  O   UNL     1       2.200   2.986  16.886  0.00  0.00    +0.000 OA
BRANCH  21  24
ATOM     24  C   UNL     1       4.604   3.837  17.403  0.00  0.00    +0.000 A 
ATOM     25  C   UNL     1       4.837   3.794  16.022  0.00  0.00    +0.000 A 
ATOM     26  C   UNL     1       6.081   4.167  15.537  0.00  0.00    +0.000 A 
ATOM     27 BR   UNL     1       6.441   4.143  13.689  0.00  0.00    +0.000 Br
ATOM     28  C   UNL     1       7.049   4.545  16.448  0.00  0.00    +0.000 A 
ATOM     29  N   UNL     1       6.842   4.591  17.788  0.00  0.00    +0.000 NA
ATOM     30  C   UNL     1       5.626   4.235  18.258  0.00  0.00    +0.000 A 
BRANCH  30  31
ATOM     31  N   UNL     1       5.480   4.414  19.625  0.00  0.00    +0.000 N 
ATOM     32  H   UNL     1       6.246   3.949  20.103  0.00  0.00    +0.000 HD
ATOM     33  H   UNL     1       4.558   4.148  19.975  0.00  0.00    +0.000 HD
ENDBRANCH  30  31
ENDBRANCH  21  24
ENDBRANCH  19  21
ENDBRANCH  18  19
ENDBRANCH   1  18
TORSDOF 8
ENDMDL
MODEL 8
REMARK VINA RESULT:      -7.0      2.002      2.872
REMARK  Name = 
REMARK  9 active torsions:
REMARK  status: ('A' for Active; 'I' for Inactive)
REMARK    1  A    between atoms: C_1  and  O_2
REMARK    2  A    between atoms: O_2  and  C_3
REMARK    3  A    between atoms: C_8  and  N_9
REMARK    4  A    between atoms: C_13  and  C_15
REMARK    5  A    between atoms: C_15  and  C_16
REMARK    6  A    between atoms: C_16  and  N_17
REMARK    7  A    between atoms: N_17  and  S_18
REMARK    8  A    between atoms: S_18  and  C_21
REMARK    9  A    between atoms: C_27  and  N_28
REMARK                            x       y       z     vdW  Elec       q    Type
REMARK                         _______ _______ _______ _____ _____    ______ ____
ROOT
ATOM      1  C   UNL     1       2.794   7.381  18.009  0.00  0.00    +0.000 C 
ENDROOT
BRANCH   1   6
ATOM      2  N   UNL     1       1.426  12.226  19.313  0.00  0.00    +0.000 N 
ATOM      3  C   UNL     1       1.423  11.415  20.540  0.00  0.00    +0.000 C 
ATOM      4  C   UNL     1       0.986   9.978  20.198  0.00  0.00    +0.000 C 
ATOM      5  N   UNL     1       1.764   9.394  19.090  0.00  0.00    +0.000 N 
ATOM      6  C   UNL     1       2.003   8.032  19.123  0.00  0.00    +0.000 C 
ATOM      7  O   UNL     1       1.655   7.336  20.082  0.00  0.00    +0.000 OA
ATOM      8  C   UNL     1       1.855  10.266  17.900  0.00  0.00    +0.000 C 
ATOM      9  C   UNL     1       2.303  11.696  18.262  0.00  0.00    +0.000 C 
BRANCH   2  15
ATOM     10  C   UNL     1      -0.389  13.881  19.039  0.00  0.00    +0.000 A 
ATOM     11  C   UNL     1      -0.801  15.224  19.068  0.00  0.00    +0.000 A 
ATOM     12  C   UNL     1       0.099  16.241  19.375  0.00  0.00    +0.000 A 
ATOM     13  C   UNL     1       1.424  15.929  19.632  0.00  0.00    +0.000 A 
ATOM     14  C   UNL     1       1.849  14.599  19.580  0.00  0.00    +0.000 A 
ATOM     15  C   UNL     1       0.970  13.538  19.286  0.00  0.00    +0.000 A 
BRANCH  10  17
ATOM     16  C   UNL     1      -2.145  12.475  19.843  0.00  0.00    +0.000 C 
ATOM     17  O   UNL     1      -1.270  12.851  18.788  0.00  0.00    +0.000 OA
ENDBRANCH  10  17
ENDBRANCH   2  15
ENDBRANCH   1   6
BRANCH   1  18
ATOM     18  C   UNL     1       2.732   5.876  18.222  0.00  0.00    +0.000 C 
BRANCH  18  19
ATOM     19  N   UNL     1       3.922   5.409  18.951  0.00  0.00    +0.000 NA
ATOM     20  H   UNL     1       3.912   5.433  19.971  0.00  0.00    +0.000 HD
BRANCH  19  21
ATOM     21  S   UNL     1       4.671   4.009  18.386  0.00  0.00    +0.000 S 
ATOM     22  O   UNL     1       5.594   3.597  19.422  0.00  0.00    +0.000 OA
ATOM     23  O   UNL     1       3.638   3.103  17.932  0.00  0.00    +0.000 OA
BRANCH  21  24
ATOM     24  C   UNL     1       5.580   4.554  16.986  0.00  0.00    +0.000 A 
ATOM     25  C   UNL     1       5.310   3.963  15.745  0.00  0.00    +0.000 A 
ATOM     26  C   UNL     1       6.100   4.292  14.655  0.00  0.00    +0.000 A 
ATOM     27 BR   UNL     1       5.770   3.539  12.962  0.00  0.00    +0.000 Br
ATOM     28  C   UNL     1       7.142   5.179  14.851  0.00  0.00    +0.000 A 
ATOM     29  N   UNL     1       7.420   5.759  16.045  0.00  0.00    +0.000 NA
ATOM     30  C   UNL     1       6.644   5.443  17.104  0.00  0.00    +0.000 A 
BRANCH  30  31
ATOM     31  N   UNL     1       6.939   6.163  18.251  0.00  0.00    +0.000 N 
ATOM     32  H   UNL     1       7.212   7.106  17.988  0.00  0.00    +0.000 HD
ATOM     33  H   UNL     1       7.613   5.699  18.862  0.00  0.00    +0.000 HD
ENDBRANCH  30  31
ENDBRANCH  21  24
ENDBRANCH  19  21
ENDBRANCH  18  19
ENDBRANCH   1  18
TORSDOF 8
ENDMDL
MODEL 9
REMARK VINA RESULT:      -7.0      1.724      2.015
REMARK  Name = 
REMARK  9 active torsions:
REMARK  status: ('A' for Active; 'I' for Inactive)
REMARK    1  A    between atoms: C_1  and  O_2
REMARK    2  A    between atoms: O_2  and  C_3
REMARK    3  A    between atoms: C_8  and  N_9
REMARK    4  A    between atoms: C_13  and  C_15
REMARK    5  A    between atoms: C_15  and  C_16
REMARK    6  A    between atoms: C_16  and  N_17
REMARK    7  A    between atoms: N_17  and  S_18
REMARK    8  A    between atoms: S_18  and  C_21
REMARK    9  A    between atoms: C_27  and  N_28
REMARK                            x       y       z     vdW  Elec       q    Type
REMARK                         _______ _______ _______ _____ _____    ______ ____
ROOT
ATOM      1  C   UNL     1       2.086   6.988  20.216  0.00  0.00    +0.000 C 
ENDROOT
BRANCH   1   6
ATOM      2  N   UNL     1      -0.761  11.028  21.834  0.00  0.00    +0.000 N 
ATOM      3  C   UNL     1      -0.843  10.982  20.366  0.00  0.00    +0.000 C 
ATOM      4  C   UNL     1       0.492  10.465  19.799  0.00  0.00    +0.000 C 
ATOM      5  N   UNL     1       0.922   9.199  20.419  0.00  0.00    +0.000 N 
ATOM      6  C   UNL     1       1.618   8.302  19.628  0.00  0.00    +0.000 C 
ATOM      7  O   UNL     1       1.804   8.507  18.424  0.00  0.00    +0.000 OA
ATOM      8  C   UNL     1       0.895   9.219  21.897  0.00  0.00    +0.000 C 
ATOM      9  C   UNL     1      -0.452   9.729  22.444  0.00  0.00    +0.000 C 
BRANCH   2  15
ATOM     10  C   UNL     1      -0.647  13.328  22.728  0.00  0.00    +0.000 A 
ATOM     11  C   UNL     1      -1.257  14.363  23.456  0.00  0.00    +0.000 A 
ATOM     12  C   UNL     1      -2.522  14.195  24.014  0.00  0.00    +0.000 A 
ATOM     13  C   UNL     1      -3.179  12.984  23.869  0.00  0.00    +0.000 A 
ATOM     14  C   UNL     1      -2.569  11.940  23.169  0.00  0.00    +0.000 A 
ATOM     15  C   UNL     1      -1.296  12.072  22.578  0.00  0.00    +0.000 A 
BRANCH  10  17
ATOM     16  C   UNL     1       0.648  14.367  21.010  0.00  0.00    +0.000 C 
ATOM     17  O   UNL     1       0.582  13.486  22.124  0.00  0.00    +0.000 OA
ENDBRANCH  10  17
ENDBRANCH   2  15
ENDBRANCH   1   6
BRANCH   1  18
ATOM     18  C   UNL     1       2.978   6.316  19.182  0.00  0.00    +0.000 C 
BRANCH  18  19
ATOM     19  N   UNL     1       3.896   5.367  19.831  0.00  0.00    +0.000 NA
ATOM     20  H   UNL     1       3.709   5.087  20.794  0.00  0.00    +0.000 HD
BRANCH  19  21
ATOM     21  S   UNL     1       4.428   4.059  18.913  0.00  0.00    +0.000 S 
ATOM     22  O   UNL     1       5.080   3.154  19.835  0.00  0.00    +0.000 OA
ATOM     23  O   UNL     1       3.318   3.599  18.108  0.00  0.00    +0.000 OA
BRANCH  21  24
ATOM     24  C   UNL     1       5.632   4.758  17.843  0.00  0.00    +0.000 A 
ATOM     25  C   UNL     1       6.219   5.977  18.207  0.00  0.00    +0.000 A 
ATOM     26  C   UNL     1       7.078   6.603  17.318  0.00  0.00    +0.000 A 
ATOM     27 BR   UNL     1       7.907   8.233  17.764  0.00  0.00    +0.000 Br
ATOM     28  C   UNL     1       7.299   6.002  16.093  0.00  0.00    +0.000 A 
ATOM     29  N   UNL     1       6.739   4.824  15.723  0.00  0.00    +0.000 NA
ATOM     30  C   UNL     1       5.907   4.211  16.594  0.00  0.00    +0.000 A 
BRANCH  30  31
ATOM     31  N   UNL     1       5.468   2.967  16.169  0.00  0.00    +0.000 N 
ATOM     32  H   UNL     1       5.855   2.253  16.780  0.00  0.00    +0.000 HD
ATOM     33  H   UNL     1       5.638   2.792  15.177  0.00  0.00    +0.000 HD
ENDBRANCH  30  31
ENDBRANCH  21  24
ENDBRANCH  19  21
ENDBRANCH  18  19
ENDBRANCH   1  18
TORSDOF 8
ENDMDL
