MODEL 1
REMARK VINA RESULT:      -8.0      0.000      0.000
REMARK  Name = 
REMARK  7 active torsions:
REMARK  status: ('A' for Active; 'I' for Inactive)
REMARK    1  A    between atoms: C_1  and  O_2
REMARK    2  A    between atoms: O_2  and  C_3
REMARK    3  A    between atoms: C_5  and  C_6
REMARK    4  A    between atoms: C_7  and  C_8
REMARK    5  A    between atoms: C_10  and  N_11
REMARK    6  A    between atoms: C_15  and  N_16
REMARK    7  A    between atoms: N_16  and  C_17
REMARK                            x       y       z     vdW  Elec       q    Type
REMARK                         _______ _______ _______ _____ _____    ______ ____
ROOT
ATOM      1  C   UNL     1      -0.054  11.041  20.387  0.00  0.00    +0.000 C 
ATOM      2  C   UNL     1      -0.356  10.754  21.840  0.00  0.00    +0.000 C 
ATOM      3  C   UNL     1       0.054   9.621  22.446  0.00  0.00    +0.000 C 
ATOM      4  O   UNL     1       0.766   8.633  21.774  0.00  0.00    +0.000 OA
ATOM      5  C   UNL     1       1.143   8.823  20.468  0.00  0.00    +0.000 A 
ATOM      6  C   UNL     1       1.891   7.794  19.882  0.00  0.00    +0.000 A 
ATOM      7  C   UNL     1       2.328   7.894  18.556  0.00  0.00    +0.000 A 
ATOM      8  C   UNL     1       2.010   9.054  17.843  0.00  0.00    +0.000 A 
ATOM      9  C   UNL     1       1.251  10.073  18.421  0.00  0.00    +0.000 A 
ATOM     10  C   UNL     1       0.809   9.969  19.747  0.00  0.00    +0.000 A 
ENDROOT
BRANCH   1  13
ATOM     11  C   UNL     1       2.396  14.030  20.321  0.00  0.00    +0.000 A 
ATOM     12  C   UNL     1       1.832  12.773  20.582  0.00  0.00    +0.000 A 
ATOM     13  C   UNL     1       0.519  12.443  20.163  0.00  0.00    +0.000 A 
ATOM     14  C   UNL     1      -0.242  13.408  19.485  0.00  0.00    +0.000 A 
ATOM     15  C   UNL     1       0.341  14.630  19.221  0.00  0.00    +0.000 A 
ATOM     16  C   UNL     1       1.623  14.941  19.622  0.00  0.00    +0.000 A 
ATOM     17  O   UNL     1       1.973  16.196  19.221  0.00  0.00    +0.000 OA
ATOM     18  C   UNL     1       0.818  16.592  18.462  0.00  0.00    +0.000 C 
ATOM     19  O   UNL     1      -0.257  15.638  18.528  0.00  0.00    +0.000 OA
BRANCH  11  21
ATOM     20  C   UNL     1       3.830  14.867  22.018  0.00  0.00    +0.000 C 
ATOM     21  O   UNL     1       3.671  14.184  20.781  0.00  0.00    +0.000 OA
ENDBRANCH  11  21
ENDBRANCH   1  13
BRANCH   3  22
ATOM     22  N   UNL     1      -0.187   9.287  23.760  0.00  0.00    +0.000 N 
ATOM     23  H   UNL     1      -0.692   8.417  23.916  0.00  0.00    +0.000 HD
ATOM     24  H   UNL     1       0.640   9.383  24.342  0.00  0.00    +0.000 HD
ENDBRANCH   3  22
BRANCH   2  25
ATOM     25  C   UNL     1      -1.132  11.712  22.557  0.00  0.00    +0.000 C 
ATOM     26  N   UNL     1      -1.737  12.506  23.151  0.00  0.00    +0.000 NA
ENDBRANCH   2  25
BRANCH   7  27
ATOM     27  N   UNL     1       3.090   6.863  17.981  0.00  0.00    +0.000 N 
ATOM     28  H   UNL     1       3.565   7.105  17.119  0.00  0.00    +0.000 HD
BRANCH  27  29
ATOM     29  C   UNL     1       3.032   5.475  18.209  0.00  0.00    +0.000 A 
ATOM     30  C   UNL     1       1.937   4.698  17.812  0.00  0.00    +0.000 A 
ATOM     31  C   UNL     1       1.906   3.322  18.056  0.00  0.00    +0.000 A 
ATOM     32  C   UNL     1       2.965   2.708  18.717  0.00  0.00    +0.000 A 
ATOM     33  C   UNL     1       4.052   3.471  19.140  0.00  0.00    +0.000 A 
ATOM     34  C   UNL     1       4.084   4.846  18.886  0.00  0.00    +0.000 A 
ENDBRANCH  27  29
ENDBRANCH   7  27
TORSDOF 6
ENDMDL
MODEL 2
REMARK VINA RESULT:      -7.9      0.526      1.931
REMARK  Name = 
REMARK  7 active torsions:
REMARK  status: ('A' for Active; 'I' for Inactive)
REMARK    1  A    between atoms: C_1  and  O_2
REMARK    2  A    between atoms: O_2  and  C_3
REMARK    3  A    between atoms: C_5  and  C_6
REMARK    4  A    between atoms: C_7  and  C_8
REMARK    5  A    between atoms: C_10  and  N_11
REMARK    6  A    between atoms: C_15  and  N_16
REMARK    7  A    between atoms: N_16  and  C_17
REMARK                            x       y       z     vdW  Elec       q    Type
REMARK                         _______ _______ _______ _____ _____    ______ ____
ROOT
ATOM      1  C   UNL     1       0.086  11.034  20.293  0.00  0.00    +0.000 C 
ATOM      2  C   UNL     1      -0.230  10.799  21.753  0.00  0.00    +0.000 C 
ATOM      3  C   UNL     1       0.135   9.668  22.390  0.00  0.00    +0.000 C 
ATOM      4  O   UNL     1       0.810   8.636  21.748  0.00  0.00    +0.000 OA
ATOM      5  C   UNL     1       1.196   8.776  20.438  0.00  0.00    +0.000 A 
ATOM      6  C   UNL     1       1.905   7.704  19.882  0.00  0.00    +0.000 A 
ATOM      7  C   UNL     1       2.348   7.750  18.555  0.00  0.00    +0.000 A 
ATOM      8  C   UNL     1       2.076   8.902  17.810  0.00  0.00    +0.000 A 
ATOM      9  C   UNL     1       1.355   9.965  18.358  0.00  0.00    +0.000 A 
ATOM     10  C   UNL     1       0.907   9.913  19.685  0.00  0.00    +0.000 A 
ENDROOT
BRANCH   1  13
ATOM     11  C   UNL     1       0.528  14.708  19.174  0.00  0.00    +0.000 A 
ATOM     12  C   UNL     1      -0.005  13.423  19.357  0.00  0.00    +0.000 A 
ATOM     13  C   UNL     1       0.712  12.407  20.033  0.00  0.00    +0.000 A 
ATOM     14  C   UNL     1       2.000  12.689  20.518  0.00  0.00    +0.000 A 
ATOM     15  C   UNL     1       2.495  13.966  20.346  0.00  0.00    +0.000 A 
ATOM     16  C   UNL     1       1.787  14.953  19.696  0.00  0.00    +0.000 A 
ATOM     17  O   UNL     1       2.482  16.126  19.678  0.00  0.00    +0.000 OA
ATOM     18  C   UNL     1       3.644  15.788  20.453  0.00  0.00    +0.000 C 
ATOM     19  O   UNL     1       3.701  14.396  20.809  0.00  0.00    +0.000 OA
BRANCH  11  21
ATOM     20  C   UNL     1      -0.932  16.577  19.290  0.00  0.00    +0.000 C 
ATOM     21  O   UNL     1      -0.293  15.573  18.512  0.00  0.00    +0.000 OA
ENDBRANCH  11  21
ENDBRANCH   1  13
BRANCH   3  22
ATOM     22  N   UNL     1      -0.121   9.379  23.712  0.00  0.00    +0.000 N 
ATOM     23  H   UNL     1      -0.919   9.854  24.128  0.00  0.00    +0.000 HD
ATOM     24  H   UNL     1      -0.101   8.381  23.901  0.00  0.00    +0.000 HD
ENDBRANCH   3  22
BRANCH   2  25
ATOM     25  C   UNL     1      -0.970  11.805  22.442  0.00  0.00    +0.000 C 
ATOM     26  N   UNL     1      -1.551  12.646  22.994  0.00  0.00    +0.000 NA
ENDBRANCH   2  25
BRANCH   7  27
ATOM     27  N   UNL     1       3.071   6.676  18.010  0.00  0.00    +0.000 N 
ATOM     28  H   UNL     1       3.566   6.878  17.149  0.00  0.00    +0.000 HD
BRANCH  27  29
ATOM     29  C   UNL     1       2.951   5.296  18.266  0.00  0.00    +0.000 A 
ATOM     30  C   UNL     1       1.851   4.548  17.828  0.00  0.00    +0.000 A 
ATOM     31  C   UNL     1       1.758   3.181  18.101  0.00  0.00    +0.000 A 
ATOM     32  C   UNL     1       2.757   2.547  18.833  0.00  0.00    +0.000 A 
ATOM     33  C   UNL     1       3.846   3.282  19.297  0.00  0.00    +0.000 A 
ATOM     34  C   UNL     1       3.942   4.648  19.014  0.00  0.00    +0.000 A 
ENDBRANCH  27  29
ENDBRANCH   7  27
TORSDOF 6
ENDMDL
MODEL 3
REMARK VINA RESULT:      -7.8      3.388      4.826
REMARK  Name = 
REMARK  7 active torsions:
REMARK  status: ('A' for Active; 'I' for Inactive)
REMARK    1  A    between atoms: C_1  and  O_2
REMARK    2  A    between atoms: O_2  and  C_3
REMARK    3  A    between atoms: C_5  and  C_6
REMARK    4  A    between atoms: C_7  and  C_8
REMARK    5  A    between atoms: C_10  and  N_11
REMARK    6  A    between atoms: C_15  and  N_16
REMARK    7  A    between atoms: N_16  and  C_17
REMARK                            x       y       z     vdW  Elec       q    Type
REMARK                         _______ _______ _______ _____ _____    ______ ____
ROOT
ATOM      1  C   UNL     1      -0.247  11.940  20.082  0.00  0.00    +0.000 C 
ATOM      2  C   UNL     1       0.528  12.698  19.028  0.00  0.00    +0.000 C 
ATOM      3  C   UNL     1       1.589  12.159  18.396  0.00  0.00    +0.000 C 
ATOM      4  O   UNL     1       2.054  10.879  18.678  0.00  0.00    +0.000 OA
ATOM      5  C   UNL     1       1.384  10.086  19.576  0.00  0.00    +0.000 A 
ATOM      6  C   UNL     1       1.898   8.798  19.771  0.00  0.00    +0.000 A 
ATOM      7  C   UNL     1       1.284   7.910  20.661  0.00  0.00    +0.000 A 
ATOM      8  C   UNL     1       0.138   8.340  21.336  0.00  0.00    +0.000 A 
ATOM      9  C   UNL     1      -0.367   9.630  21.155  0.00  0.00    +0.000 A 
ATOM     10  C   UNL     1       0.253  10.520  20.267  0.00  0.00    +0.000 A 
ENDROOT
BRANCH   1  13
ATOM     11  C   UNL     1      -3.995  12.774  20.531  0.00  0.00    +0.000 A 
ATOM     12  C   UNL     1      -2.616  12.662  20.762  0.00  0.00    +0.000 A 
ATOM     13  C   UNL     1      -1.761  11.987  19.856  0.00  0.00    +0.000 A 
ATOM     14  C   UNL     1      -2.313  11.400  18.706  0.00  0.00    +0.000 A 
ATOM     15  C   UNL     1      -3.669  11.542  18.490  0.00  0.00    +0.000 A 
ATOM     16  C   UNL     1      -4.493  12.209  19.370  0.00  0.00    +0.000 A 
ATOM     17  O   UNL     1      -5.780  12.230  18.919  0.00  0.00    +0.000 OA
ATOM     18  C   UNL     1      -5.650  11.589  17.639  0.00  0.00    +0.000 C 
ATOM     19  O   UNL     1      -4.330  11.074  17.396  0.00  0.00    +0.000 OA
BRANCH  11  21
ATOM     20  C   UNL     1      -4.671  12.910  22.804  0.00  0.00    +0.000 C 
ATOM     21  O   UNL     1      -4.675  13.462  21.493  0.00  0.00    +0.000 OA
ENDBRANCH  11  21
ENDBRANCH   1  13
BRANCH   3  22
ATOM     22  N   UNL     1       2.348  12.787  17.433  0.00  0.00    +0.000 N 
ATOM     23  H   UNL     1       1.843  13.388  16.785  0.00  0.00    +0.000 HD
ATOM     24  H   UNL     1       3.182  13.221  17.819  0.00  0.00    +0.000 HD
ENDBRANCH   3  22
BRANCH   2  25
ATOM     25  C   UNL     1       0.124  14.036  18.743  0.00  0.00    +0.000 C 
ATOM     26  N   UNL     1      -0.234  15.115  18.509  0.00  0.00    +0.000 NA
ENDBRANCH   2  25
BRANCH   7  27
ATOM     27  N   UNL     1       1.799   6.614  20.840  0.00  0.00    +0.000 N 
ATOM     28  H   UNL     1       2.551   6.535  21.515  0.00  0.00    +0.000 HD
BRANCH  27  29
ATOM     29  C   UNL     1       1.684   5.485  20.007  0.00  0.00    +0.000 A 
ATOM     30  C   UNL     1       2.141   5.483  18.683  0.00  0.00    +0.000 A 
ATOM     31  C   UNL     1       2.010   4.348  17.879  0.00  0.00    +0.000 A 
ATOM     32  C   UNL     1       1.402   3.203  18.385  0.00  0.00    +0.000 A 
ATOM     33  C   UNL     1       0.921   3.195  19.693  0.00  0.00    +0.000 A 
ATOM     34  C   UNL     1       1.063   4.330  20.498  0.00  0.00    +0.000 A 
ENDBRANCH  27  29
ENDBRANCH   7  27
TORSDOF 6
ENDMDL
MODEL 4
REMARK VINA RESULT:      -7.8      1.321      2.616
REMARK  Name = 
REMARK  7 active torsions:
REMARK  status: ('A' for Active; 'I' for Inactive)
REMARK    1  A    between atoms: C_1  and  O_2
REMARK    2  A    between atoms: O_2  and  C_3
REMARK    3  A    between atoms: C_5  and  C_6
REMARK    4  A    between atoms: C_7  and  C_8
REMARK    5  A    between atoms: C_10  and  N_11
REMARK    6  A    between atoms: C_15  and  N_16
REMARK    7  A    between atoms: N_16  and  C_17
REMARK                            x       y       z     vdW  Elec       q    Type
REMARK                         _______ _______ _______ _____ _____    ______ ____
ROOT
ATOM      1  C   UNL     1       0.121  10.958  20.272  0.00  0.00    +0.000 C 
ATOM      2  C   UNL     1      -0.189  10.731  21.735  0.00  0.00    +0.000 C 
ATOM      3  C   UNL     1       0.178   9.603  22.376  0.00  0.00    +0.000 C 
ATOM      4  O   UNL     1       0.849   8.567  21.736  0.00  0.00    +0.000 OA
ATOM      5  C   UNL     1       1.230   8.699  20.424  0.00  0.00    +0.000 A 
ATOM      6  C   UNL     1       1.935   7.623  19.871  0.00  0.00    +0.000 A 
ATOM      7  C   UNL     1       2.372   7.663  18.542  0.00  0.00    +0.000 A 
ATOM      8  C   UNL     1       2.098   8.811  17.791  0.00  0.00    +0.000 A 
ATOM      9  C   UNL     1       1.381   9.877  18.337  0.00  0.00    +0.000 A 
ATOM     10  C   UNL     1       0.939   9.833  19.667  0.00  0.00    +0.000 A 
ENDROOT
BRANCH   1  13
ATOM     11  C   UNL     1       0.561  14.626  19.135  0.00  0.00    +0.000 A 
ATOM     12  C   UNL     1       0.027  13.343  19.326  0.00  0.00    +0.000 A 
ATOM     13  C   UNL     1       0.748  12.329  20.003  0.00  0.00    +0.000 A 
ATOM     14  C   UNL     1       2.038  12.611  20.479  0.00  0.00    +0.000 A 
ATOM     15  C   UNL     1       2.534  13.886  20.297  0.00  0.00    +0.000 A 
ATOM     16  C   UNL     1       1.823  14.872  19.647  0.00  0.00    +0.000 A 
ATOM     17  O   UNL     1       2.520  16.044  19.620  0.00  0.00    +0.000 OA
ATOM     18  C   UNL     1       3.687  15.707  20.390  0.00  0.00    +0.000 C 
ATOM     19  O   UNL     1       3.744  14.316  20.752  0.00  0.00    +0.000 OA
BRANCH  11  21
ATOM     20  C   UNL     1      -0.889  16.503  19.251  0.00  0.00    +0.000 C 
ATOM     21  O   UNL     1      -0.263  15.489  18.474  0.00  0.00    +0.000 OA
ENDBRANCH  11  21
ENDBRANCH   1  13
BRANCH   3  22
ATOM     22  N   UNL     1      -0.073   9.321  23.701  0.00  0.00    +0.000 N 
ATOM     23  H   UNL     1      -0.507  10.064  24.243  0.00  0.00    +0.000 HD
ATOM     24  H   UNL     1      -0.519   8.416  23.826  0.00  0.00    +0.000 HD
ENDBRANCH   3  22
BRANCH   2  25
ATOM     25  C   UNL     1      -0.925  11.741  22.422  0.00  0.00    +0.000 C 
ATOM     26  N   UNL     1      -1.511  12.585  22.961  0.00  0.00    +0.000 NA
ENDBRANCH   2  25
BRANCH   7  27
ATOM     27  N   UNL     1       3.092   6.585  17.999  0.00  0.00    +0.000 N 
ATOM     28  H   UNL     1       2.535   5.782  17.731  0.00  0.00    +0.000 HD
BRANCH  27  29
ATOM     29  C   UNL     1       4.469   6.299  18.079  0.00  0.00    +0.000 A 
ATOM     30  C   UNL     1       5.007   5.492  19.089  0.00  0.00    +0.000 A 
ATOM     31  C   UNL     1       6.378   5.229  19.144  0.00  0.00    +0.000 A 
ATOM     32  C   UNL     1       7.233   5.787  18.198  0.00  0.00    +0.000 A 
ATOM     33  C   UNL     1       6.717   6.612  17.201  0.00  0.00    +0.000 A 
ATOM     34  C   UNL     1       5.343   6.865  17.142  0.00  0.00    +0.000 A 
ENDBRANCH  27  29
ENDBRANCH   7  27
TORSDOF 6
ENDMDL
MODEL 5
REMARK VINA RESULT:      -7.8      1.226      1.739
REMARK  Name = 
REMARK  7 active torsions:
REMARK  status: ('A' for Active; 'I' for Inactive)
REMARK    1  A    between atoms: C_1  and  O_2
REMARK    2  A    between atoms: O_2  and  C_3
REMARK    3  A    between atoms: C_5  and  C_6
REMARK    4  A    between atoms: C_7  and  C_8
REMARK    5  A    between atoms: C_10  and  N_11
REMARK    6  A    between atoms: C_15  and  N_16
REMARK    7  A    between atoms: N_16  and  C_17
REMARK                            x       y       z     vdW  Elec       q    Type
REMARK                         _______ _______ _______ _____ _____    ______ ____
ROOT
ATOM      1  C   UNL     1       0.017  10.954  20.356  0.00  0.00    +0.000 C 
ATOM      2  C   UNL     1      -0.268  10.665  21.813  0.00  0.00    +0.000 C 
ATOM      3  C   UNL     1       0.143   9.529  22.410  0.00  0.00    +0.000 C 
ATOM      4  O   UNL     1       0.841   8.539  21.728  0.00  0.00    +0.000 OA
ATOM      5  C   UNL     1       1.202   8.730  20.417  0.00  0.00    +0.000 A 
ATOM      6  C   UNL     1       1.937   7.698  19.819  0.00  0.00    +0.000 A 
ATOM      7  C   UNL     1       2.357   7.799  18.488  0.00  0.00    +0.000 A 
ATOM      8  C   UNL     1       2.036   8.962  17.781  0.00  0.00    +0.000 A 
ATOM      9  C   UNL     1       1.290   9.984  18.371  0.00  0.00    +0.000 A 
ATOM     10  C   UNL     1       0.865   9.878  19.703  0.00  0.00    +0.000 A 
ENDROOT
BRANCH   1  13
ATOM     11  C   UNL     1       2.476  13.934  20.281  0.00  0.00    +0.000 A 
ATOM     12  C   UNL     1       1.908  12.680  20.546  0.00  0.00    +0.000 A 
ATOM     13  C   UNL     1       0.594  12.353  20.129  0.00  0.00    +0.000 A 
ATOM     14  C   UNL     1      -0.164  13.319  19.448  0.00  0.00    +0.000 A 
ATOM     15  C   UNL     1       0.423  14.539  19.181  0.00  0.00    +0.000 A 
ATOM     16  C   UNL     1       1.707  14.846  19.580  0.00  0.00    +0.000 A 
ATOM     17  O   UNL     1       2.060  16.099  19.175  0.00  0.00    +0.000 OA
ATOM     18  C   UNL     1       0.906  16.497  18.416  0.00  0.00    +0.000 C 
ATOM     19  O   UNL     1      -0.171  15.547  18.485  0.00  0.00    +0.000 OA
BRANCH  11  21
ATOM     20  C   UNL     1       3.913  14.762  21.981  0.00  0.00    +0.000 C 
ATOM     21  O   UNL     1       3.752  14.086  20.740  0.00  0.00    +0.000 OA
ENDBRANCH  11  21
ENDBRANCH   1  13
BRANCH   3  22
ATOM     22  N   UNL     1      -0.083   9.192  23.727  0.00  0.00    +0.000 N 
ATOM     23  H   UNL     1       0.714   9.273  24.353  0.00  0.00    +0.000 HD
ATOM     24  H   UNL     1      -0.931   9.616  24.094  0.00  0.00    +0.000 HD
ENDBRANCH   3  22
BRANCH   2  25
ATOM     25  C   UNL     1      -1.030  11.626  22.542  0.00  0.00    +0.000 C 
ATOM     26  N   UNL     1      -1.632  12.401  23.161  0.00  0.00    +0.000 NA
ENDBRANCH   2  25
BRANCH   7  27
ATOM     27  N   UNL     1       3.106   6.765  17.900  0.00  0.00    +0.000 N 
ATOM     28  H   UNL     1       2.564   5.992  17.531  0.00  0.00    +0.000 HD
BRANCH  27  29
ATOM     29  C   UNL     1       4.475   6.463  18.039  0.00  0.00    +0.000 A 
ATOM     30  C   UNL     1       5.446   6.979  17.173  0.00  0.00    +0.000 A 
ATOM     31  C   UNL     1       6.796   6.658  17.334  0.00  0.00    +0.000 A 
ATOM     32  C   UNL     1       7.191   5.799  18.355  0.00  0.00    +0.000 A 
ATOM     33  C   UNL     1       6.234   5.257  19.211  0.00  0.00    +0.000 A 
ATOM     34  C   UNL     1       4.885   5.589  19.054  0.00  0.00    +0.000 A 
ENDBRANCH  27  29
ENDBRANCH   7  27
TORSDOF 6
ENDMDL
MODEL 6
REMARK VINA RESULT:      -7.7      3.471      5.008
REMARK  Name = 
REMARK  7 active torsions:
REMARK  status: ('A' for Active; 'I' for Inactive)
REMARK    1  A    between atoms: C_1  and  O_2
REMARK    2  A    between atoms: O_2  and  C_3
REMARK    3  A    between atoms: C_5  and  C_6
REMARK    4  A    between atoms: C_7  and  C_8
REMARK    5  A    between atoms: C_10  and  N_11
REMARK    6  A    between atoms: C_15  and  N_16
REMARK    7  A    between atoms: N_16  and  C_17
REMARK                            x       y       z     vdW  Elec       q    Type
REMARK                         _______ _______ _______ _____ _____    ______ ____
ROOT
ATOM      1  C   UNL     1      -0.329  12.108  20.064  0.00  0.00    +0.000 C 
ATOM      2  C   UNL     1       0.468  12.883  19.039  0.00  0.00    +0.000 C 
ATOM      3  C   UNL     1       1.556  12.361  18.437  0.00  0.00    +0.000 C 
ATOM      4  O   UNL     1       2.030  11.087  18.728  0.00  0.00    +0.000 OA
ATOM      5  C   UNL     1       1.343  10.279  19.600  0.00  0.00    +0.000 A 
ATOM      6  C   UNL     1       1.869   8.998  19.805  0.00  0.00    +0.000 A 
ATOM      7  C   UNL     1       1.241   8.097  20.671  0.00  0.00    +0.000 A 
ATOM      8  C   UNL     1       0.067   8.507  21.312  0.00  0.00    +0.000 A 
ATOM      9  C   UNL     1      -0.449   9.790  21.121  0.00  0.00    +0.000 A 
ATOM     10  C   UNL     1       0.186  10.694  20.257  0.00  0.00    +0.000 A 
ENDROOT
BRANCH   1  13
ATOM     11  C   UNL     1      -3.754  11.554  18.361  0.00  0.00    +0.000 A 
ATOM     12  C   UNL     1      -2.372  11.601  18.594  0.00  0.00    +0.000 A 
ATOM     13  C   UNL     1      -1.835  12.135  19.791  0.00  0.00    +0.000 A 
ATOM     14  C   UNL     1      -2.711  12.647  20.762  0.00  0.00    +0.000 A 
ATOM     15  C   UNL     1      -4.068  12.571  20.519  0.00  0.00    +0.000 A 
ATOM     16  C   UNL     1      -4.584  12.040  19.357  0.00  0.00    +0.000 A 
ATOM     17  O   UNL     1      -5.947  12.058  19.371  0.00  0.00    +0.000 OA
ATOM     18  C   UNL     1      -6.218  12.570  20.687  0.00  0.00    +0.000 C 
ATOM     19  O   UNL     1      -5.032  12.978  21.391  0.00  0.00    +0.000 OA
BRANCH  11  21
ATOM     20  C   UNL     1      -3.108  10.958  16.155  0.00  0.00    +0.000 C 
ATOM     21  O   UNL     1      -4.108  11.001  17.165  0.00  0.00    +0.000 OA
ENDBRANCH  11  21
ENDBRANCH   1  13
BRANCH   3  22
ATOM     22  N   UNL     1       2.336  13.005  17.502  0.00  0.00    +0.000 N 
ATOM     23  H   UNL     1       3.252  13.315  17.818  0.00  0.00    +0.000 HD
ATOM     24  H   UNL     1       2.360  12.512  16.613  0.00  0.00    +0.000 HD
ENDBRANCH   3  22
BRANCH   2  25
ATOM     25  C   UNL     1       0.055  14.216  18.748  0.00  0.00    +0.000 C 
ATOM     26  N   UNL     1      -0.276  15.310  18.541  0.00  0.00    +0.000 NA
ENDBRANCH   2  25
BRANCH   7  27
ATOM     27  N   UNL     1       1.768   6.807  20.859  0.00  0.00    +0.000 N 
ATOM     28  H   UNL     1       2.500   6.736  21.555  0.00  0.00    +0.000 HD
BRANCH  27  29
ATOM     29  C   UNL     1       1.692   5.680  20.019  0.00  0.00    +0.000 A 
ATOM     30  C   UNL     1       2.158   5.700  18.699  0.00  0.00    +0.000 A 
ATOM     31  C   UNL     1       2.066   4.566  17.887  0.00  0.00    +0.000 A 
ATOM     32  C   UNL     1       1.489   3.400  18.382  0.00  0.00    +0.000 A 
ATOM     33  C   UNL     1       0.998   3.371  19.686  0.00  0.00    +0.000 A 
ATOM     34  C   UNL     1       1.101   4.504  20.499  0.00  0.00    +0.000 A 
ENDBRANCH  27  29
ENDBRANCH   7  27
TORSDOF 6
ENDMDL
MODEL 7
REMARK VINA RESULT:      -7.3      0.697      1.103
REMARK  Name = 
REMARK  7 active torsions:
REMARK  status: ('A' for Active; 'I' for Inactive)
REMARK    1  A    between atoms: C_1  and  O_2
REMARK    2  A    between atoms: O_2  and  C_3
REMARK    3  A    between atoms: C_5  and  C_6
REMARK    4  A    between atoms: C_7  and  C_8
REMARK    5  A    between atoms: C_10  and  N_11
REMARK    6  A    between atoms: C_15  and  N_16
REMARK    7  A    between atoms: N_16  and  C_17
REMARK                            x       y       z     vdW  Elec       q    Type
REMARK                         _______ _______ _______ _____ _____    ______ ____
ROOT
ATOM      1  C   UNL     1       0.016  11.644  20.161  0.00  0.00    +0.000 C 
ATOM      2  C   UNL     1      -0.488  11.390  21.564  0.00  0.00    +0.000 C 
ATOM      3  C   UNL     1      -0.316  10.204  22.182  0.00  0.00    +0.000 C 
ATOM      4  O   UNL     1       0.319   9.130  21.569  0.00  0.00    +0.000 OA
ATOM      5  C   UNL     1       0.866   9.275  20.318  0.00  0.00    +0.000 A 
ATOM      6  C   UNL     1       1.521   8.155  19.793  0.00  0.00    +0.000 A 
ATOM      7  C   UNL     1       2.116   8.202  18.527  0.00  0.00    +0.000 A 
ATOM      8  C   UNL     1       2.051   9.402  17.813  0.00  0.00    +0.000 A 
ATOM      9  C   UNL     1       1.385  10.516  18.328  0.00  0.00    +0.000 A 
ATOM     10  C   UNL     1       0.784  10.464  19.594  0.00  0.00    +0.000 A 
ENDROOT
BRANCH   1  13
ATOM     11  C   UNL     1       2.821  14.278  20.530  0.00  0.00    +0.000 A 
ATOM     12  C   UNL     1       2.053  13.115  20.690  0.00  0.00    +0.000 A 
ATOM     13  C   UNL     1       0.806  12.950  20.039  0.00  0.00    +0.000 A 
ATOM     14  C   UNL     1       0.318  13.987  19.227  0.00  0.00    +0.000 A 
ATOM     15  C   UNL     1       1.101  15.112  19.069  0.00  0.00    +0.000 A 
ATOM     16  C   UNL     1       2.319  15.262  19.696  0.00  0.00    +0.000 A 
ATOM     17  O   UNL     1       2.903  16.447  19.359  0.00  0.00    +0.000 OA
ATOM     18  C   UNL     1       1.969  16.970  18.400  0.00  0.00    +0.000 C 
ATOM     19  O   UNL     1       0.782  16.169  18.272  0.00  0.00    +0.000 OA
BRANCH  11  21
ATOM     20  C   UNL     1       4.014  14.937  22.475  0.00  0.00    +0.000 C 
ATOM     21  O   UNL     1       4.000  14.275  21.216  0.00  0.00    +0.000 OA
ENDBRANCH  11  21
ENDBRANCH   1  13
BRANCH   3  22
ATOM     22  N   UNL     1      -0.751   9.896  23.452  0.00  0.00    +0.000 N 
ATOM     23  H   UNL     1      -1.031  10.683  24.033  0.00  0.00    +0.000 HD
ATOM     24  H   UNL     1      -1.421   9.132  23.456  0.00  0.00    +0.000 HD
ENDBRANCH   3  22
BRANCH   2  25
ATOM     25  C   UNL     1      -1.195  12.444  22.214  0.00  0.00    +0.000 C 
ATOM     26  N   UNL     1      -1.744  13.314  22.753  0.00  0.00    +0.000 NA
ENDBRANCH   2  25
BRANCH   7  27
ATOM     27  N   UNL     1       2.784   7.077  18.014  0.00  0.00    +0.000 N 
ATOM     28  H   UNL     1       3.162   7.186  17.080  0.00  0.00    +0.000 HD
BRANCH  27  29
ATOM     29  C   UNL     1       2.721   5.733  18.431  0.00  0.00    +0.000 A 
ATOM     30  C   UNL     1       3.558   5.222  19.430  0.00  0.00    +0.000 A 
ATOM     31  C   UNL     1       3.476   3.883  19.821  0.00  0.00    +0.000 A 
ATOM     32  C   UNL     1       2.565   3.032  19.202  0.00  0.00    +0.000 A 
ATOM     33  C   UNL     1       1.742   3.519  18.188  0.00  0.00    +0.000 A 
ATOM     34  C   UNL     1       1.820   4.862  17.807  0.00  0.00    +0.000 A 
ENDBRANCH  27  29
ENDBRANCH   7  27
TORSDOF 6
ENDMDL
MODEL 8
REMARK VINA RESULT:      -7.3      3.268      4.670
REMARK  Name = 
REMARK  7 active torsions:
REMARK  status: ('A' for Active; 'I' for Inactive)
REMARK    1  A    between atoms: C_1  and  O_2
REMARK    2  A    between atoms: O_2  and  C_3
REMARK    3  A    between atoms: C_5  and  C_6
REMARK    4  A    between atoms: C_7  and  C_8
REMARK    5  A    between atoms: C_10  and  N_11
REMARK    6  A    between atoms: C_15  and  N_16
REMARK    7  A    between atoms: N_16  and  C_17
REMARK                            x       y       z     vdW  Elec       q    Type
REMARK                         _______ _______ _______ _____ _____    ______ ____
ROOT
ATOM      1  C   UNL     1      -0.117  11.843  20.046  0.00  0.00    +0.000 C 
ATOM      2  C   UNL     1       0.641  12.604  18.981  0.00  0.00    +0.000 C 
ATOM      3  C   UNL     1       1.664  12.050  18.299  0.00  0.00    +0.000 C 
ATOM      4  O   UNL     1       2.103  10.753  18.538  0.00  0.00    +0.000 OA
ATOM      5  C   UNL     1       1.445   9.958  19.442  0.00  0.00    +0.000 A 
ATOM      6  C   UNL     1       1.931   8.654  19.592  0.00  0.00    +0.000 A 
ATOM      7  C   UNL     1       1.326   7.763  20.486  0.00  0.00    +0.000 A 
ATOM      8  C   UNL     1       0.216   8.209  21.210  0.00  0.00    +0.000 A 
ATOM      9  C   UNL     1      -0.260   9.514  21.074  0.00  0.00    +0.000 A 
ATOM     10  C   UNL     1       0.352  10.407  20.183  0.00  0.00    +0.000 A 
ENDROOT
BRANCH   1  13
ATOM     11  C   UNL     1      -3.825  12.744  20.662  0.00  0.00    +0.000 A 
ATOM     12  C   UNL     1      -2.442  12.590  20.838  0.00  0.00    +0.000 A 
ATOM     13  C   UNL     1      -1.636  11.935  19.876  0.00  0.00    +0.000 A 
ATOM     14  C   UNL     1      -2.242  11.410  18.723  0.00  0.00    +0.000 A 
ATOM     15  C   UNL     1      -3.600  11.592  18.561  0.00  0.00    +0.000 A 
ATOM     16  C   UNL     1      -4.377  12.241  19.497  0.00  0.00    +0.000 A 
ATOM     17  O   UNL     1      -5.677  12.310  19.092  0.00  0.00    +0.000 OA
ATOM     18  C   UNL     1      -5.607  11.721  17.783  0.00  0.00    +0.000 C 
ATOM     19  O   UNL     1      -4.309  11.186  17.472  0.00  0.00    +0.000 OA
BRANCH  11  21
ATOM     20  C   UNL     1      -4.314  12.866  22.983  0.00  0.00    +0.000 C 
ATOM     21  O   UNL     1      -4.454  13.406  21.675  0.00  0.00    +0.000 OA
ENDBRANCH  11  21
ENDBRANCH   1  13
BRANCH   3  22
ATOM     22  N   UNL     1       2.404  12.679  17.322  0.00  0.00    +0.000 N 
ATOM     23  H   UNL     1       2.357  13.695  17.309  0.00  0.00    +0.000 HD
ATOM     24  H   UNL     1       3.352  12.318  17.262  0.00  0.00    +0.000 HD
ENDBRANCH   3  22
BRANCH   2  25
ATOM     25  C   UNL     1       0.263  13.957  18.738  0.00  0.00    +0.000 C 
ATOM     26  N   UNL     1      -0.073  15.050  18.533  0.00  0.00    +0.000 NA
ENDBRANCH   2  25
BRANCH   7  27
ATOM     27  N   UNL     1       1.811   6.451  20.619  0.00  0.00    +0.000 N 
ATOM     28  H   UNL     1       1.982   6.146  21.570  0.00  0.00    +0.000 HD
BRANCH  27  29
ATOM     29  C   UNL     1       2.415   5.620  19.656  0.00  0.00    +0.000 A 
ATOM     30  C   UNL     1       1.665   4.842  18.765  0.00  0.00    +0.000 A 
ATOM     31  C   UNL     1       2.293   4.023  17.822  0.00  0.00    +0.000 A 
ATOM     32  C   UNL     1       3.682   3.959  17.771  0.00  0.00    +0.000 A 
ATOM     33  C   UNL     1       4.443   4.708  18.666  0.00  0.00    +0.000 A 
ATOM     34  C   UNL     1       3.812   5.534  19.602  0.00  0.00    +0.000 A 
ENDBRANCH  27  29
ENDBRANCH   7  27
TORSDOF 6
ENDMDL
MODEL 9
REMARK VINA RESULT:      -7.2      1.074      2.230
REMARK  Name = 
REMARK  7 active torsions:
REMARK  status: ('A' for Active; 'I' for Inactive)
REMARK    1  A    between atoms: C_1  and  O_2
REMARK    2  A    between atoms: O_2  and  C_3
REMARK    3  A    between atoms: C_5  and  C_6
REMARK    4  A    between atoms: C_7  and  C_8
REMARK    5  A    between atoms: C_10  and  N_11
REMARK    6  A    between atoms: C_15  and  N_16
REMARK    7  A    between atoms: N_16  and  C_17
REMARK                            x       y       z     vdW  Elec       q    Type
REMARK                         _______ _______ _______ _____ _____    ______ ____
ROOT
ATOM      1  C   UNL     1      -0.232  11.447  19.939  0.00  0.00    +0.000 C 
ATOM      2  C   UNL     1      -0.822  11.447  21.331  0.00  0.00    +0.000 C 
ATOM      3  C   UNL     1      -0.644  10.417  22.183  0.00  0.00    +0.000 C 
ATOM      4  O   UNL     1       0.078   9.280  21.836  0.00  0.00    +0.000 OA
ATOM      5  C   UNL     1       0.704   9.207  20.617  0.00  0.00    +0.000 A 
ATOM      6  C   UNL     1       1.441   8.043  20.366  0.00  0.00    +0.000 A 
ATOM      7  C   UNL     1       2.121   7.873  19.155  0.00  0.00    +0.000 A 
ATOM      8  C   UNL     1       2.055   8.904  18.212  0.00  0.00    +0.000 A 
ATOM      9  C   UNL     1       1.307  10.058  18.454  0.00  0.00    +0.000 A 
ATOM     10  C   UNL     1       0.622  10.223  19.666  0.00  0.00    +0.000 A 
ENDROOT
BRANCH   1  13
ATOM     11  C   UNL     1       0.479  15.066  18.780  0.00  0.00    +0.000 A 
ATOM     12  C   UNL     1      -0.169  13.846  19.025  0.00  0.00    +0.000 A 
ATOM     13  C   UNL     1       0.508  12.746  19.606  0.00  0.00    +0.000 A 
ATOM     14  C   UNL     1       1.868  12.876  19.929  0.00  0.00    +0.000 A 
ATOM     15  C   UNL     1       2.479  14.092  19.699  0.00  0.00    +0.000 A 
ATOM     16  C   UNL     1       1.811  15.162  19.143  0.00  0.00    +0.000 A 
ATOM     17  O   UNL     1       2.626  16.251  19.041  0.00  0.00    +0.000 OA
ATOM     18  C   UNL     1       3.829  15.773  19.667  0.00  0.00    +0.000 C 
ATOM     19  O   UNL     1       3.773  14.378  20.011  0.00  0.00    +0.000 OA
BRANCH  11  21
ATOM     20  C   UNL     1      -0.975  16.912  19.122  0.00  0.00    +0.000 C 
ATOM     21  O   UNL     1      -0.315  16.027  18.226  0.00  0.00    +0.000 OA
ENDBRANCH  11  21
ENDBRANCH   1  13
BRANCH   3  22
ATOM     22  N   UNL     1      -1.153  10.341  23.460  0.00  0.00    +0.000 N 
ATOM     23  H   UNL     1      -2.062  10.773  23.607  0.00  0.00    +0.000 HD
ATOM     24  H   UNL     1      -1.083   9.405  23.849  0.00  0.00    +0.000 HD
ENDBRANCH   3  22
BRANCH   2  25
ATOM     25  C   UNL     1      -1.617  12.567  21.714  0.00  0.00    +0.000 C 
ATOM     26  N   UNL     1      -2.257  13.474  22.056  0.00  0.00    +0.000 NA
ENDBRANCH   2  25
BRANCH   7  27
ATOM     27  N   UNL     1       2.870   6.708  18.918  0.00  0.00    +0.000 N 
ATOM     28  H   UNL     1       3.744   6.847  18.424  0.00  0.00    +0.000 HD
BRANCH  27  29
ATOM     29  C   UNL     1       2.459   5.361  18.945  0.00  0.00    +0.000 A 
ATOM     30  C   UNL     1       2.215   4.678  20.143  0.00  0.00    +0.000 A 
ATOM     31  C   UNL     1       1.813   3.340  20.138  0.00  0.00    +0.000 A 
ATOM     32  C   UNL     1       1.666   2.662  18.932  0.00  0.00    +0.000 A 
ATOM     33  C   UNL     1       1.929   3.319  17.732  0.00  0.00    +0.000 A 
ATOM     34  C   UNL     1       2.321   4.661  17.740  0.00  0.00    +0.000 A 
ENDBRANCH  27  29
ENDBRANCH   7  27
TORSDOF 6
ENDMDL
