MODEL 1
REMARK VINA RESULT:      -8.0      0.000      0.000
REMARK  Name = 
REMARK  6 active torsions:
REMARK  status: ('A' for Active; 'I' for Inactive)
REMARK    1  A    between atoms: C_1  and  C_2
REMARK    2  A    between atoms: C_12  and  C_13
REMARK    3  A    between atoms: C_15  and  C_16
REMARK    4  A    between atoms: C_16  and  C_17
REMARK    5  A    between atoms: C_16  and  C_18
REMARK    6  A    between atoms: C_16  and  C_19
REMARK                            x       y       z     vdW  Elec       q    Type
REMARK                         _______ _______ _______ _____ _____    ______ ____
ROOT
ATOM      1  C   UNL     1       2.863   7.582  18.291  0.00  0.00    +0.000 A 
ATOM      2  N   UNL     1       2.189   8.117  19.288  0.00  0.00    +0.000 NA
ATOM      3  C   UNL     1       1.435   9.075  18.652  0.00  0.00    +0.000 A 
ATOM      4  N   UNL     1       1.650   9.153  17.326  0.00  0.00    +0.000 NA
ATOM      5  O   UNL     1       2.598   8.164  17.087  0.00  0.00    +0.000 OA
ENDROOT
BRANCH   1  17
ATOM      6  C   UNL     1       2.249   3.165  17.497  0.00  0.00    +0.000 C 
ATOM      7  C   UNL     1       2.442   4.579  17.963  0.00  0.00    +0.000 C 
ATOM      8  O   UNL     1       1.595   5.067  18.712  0.00  0.00    +0.000 OA
ATOM      9  N   UNL     1       3.576   5.284  17.600  0.00  0.00    +0.000 N 
ATOM     10  C   UNL     1       4.669   4.933  16.777  0.00  0.00    +0.000 A 
ATOM     11  C   UNL     1       4.877   3.835  15.958  0.00  0.00    +0.000 A 
ATOM     12  C   UNL     1       6.076   3.732  15.243  0.00  0.00    +0.000 A 
ATOM     13  C   UNL     1       7.060   4.719  15.342  0.00  0.00    +0.000 A 
ATOM     14  C   UNL     1       6.853   5.832  16.147  0.00  0.00    +0.000 A 
ATOM     15  C   UNL     1       5.654   5.923  16.856  0.00  0.00    +0.000 A 
ATOM     16  C   UNL     1       5.226   7.069  17.710  0.00  0.00    +0.000 C 
ATOM     17  C   UNL     1       3.923   6.536  18.325  0.00  0.00    +0.000 C 
ENDBRANCH   1  17
BRANCH   3  18
ATOM     18  C   UNL     1       0.475   9.987  19.390  0.00  0.00    +0.000 C 
ATOM     19  C   UNL     1      -0.842  10.197  18.611  0.00  0.00    +0.000 C 
ATOM     20  C   UNL     1       0.094   9.350  20.750  0.00  0.00    +0.000 C 
BRANCH  18  21
ATOM     21  C   UNL     1       1.224  11.333  19.510  0.00  0.00    +0.000 A 
ATOM     22  C   UNL     1       1.923  11.869  18.404  0.00  0.00    +0.000 A 
ATOM     23  C   UNL     1       2.582  13.098  18.477  0.00  0.00    +0.000 A 
ATOM     24  C   UNL     1       2.544  13.831  19.655  0.00  0.00    +0.000 A 
ATOM     25 CL   UNL     1       3.338  15.357  19.742  0.00  0.00    +0.000 Cl
ATOM     26  C   UNL     1       1.858  13.342  20.760  0.00  0.00    +0.000 A 
ATOM     27  C   UNL     1       1.207  12.104  20.689  0.00  0.00    +0.000 A 
ENDBRANCH  18  21
ENDBRANCH   3  18
TORSDOF 3
ENDMDL
MODEL 2
REMARK VINA RESULT:      -7.9      2.076      2.979
REMARK  Name = 
REMARK  6 active torsions:
REMARK  status: ('A' for Active; 'I' for Inactive)
REMARK    1  A    between atoms: C_1  and  C_2
REMARK    2  A    between atoms: C_12  and  C_13
REMARK    3  A    between atoms: C_15  and  C_16
REMARK    4  A    between atoms: C_16  and  C_17
REMARK    5  A    between atoms: C_16  and  C_18
REMARK    6  A    between atoms: C_16  and  C_19
REMARK                            x       y       z     vdW  Elec       q    Type
REMARK                         _______ _______ _______ _____ _____    ______ ____
ROOT
ATOM      1  C   UNL     1       2.872   7.636  18.406  0.00  0.00    +0.000 A 
ATOM      2  N   UNL     1       2.154   8.072  19.420  0.00  0.00    +0.000 NA
ATOM      3  C   UNL     1       1.467   9.125  18.863  0.00  0.00    +0.000 A 
ATOM      4  N   UNL     1       1.763   9.352  17.571  0.00  0.00    +0.000 NA
ATOM      5  O   UNL     1       2.696   8.366  17.268  0.00  0.00    +0.000 OA
ENDROOT
BRANCH   1  17
ATOM      6  C   UNL     1       2.112   3.290  17.384  0.00  0.00    +0.000 C 
ATOM      7  C   UNL     1       2.353   4.670  17.923  0.00  0.00    +0.000 C 
ATOM      8  O   UNL     1       1.528   5.143  18.706  0.00  0.00    +0.000 OA
ATOM      9  N   UNL     1       3.506   5.357  17.585  0.00  0.00    +0.000 N 
ATOM     10  C   UNL     1       4.580   5.017  16.734  0.00  0.00    +0.000 A 
ATOM     11  C   UNL     1       4.746   3.959  15.855  0.00  0.00    +0.000 A 
ATOM     12  C   UNL     1       5.934   3.858  15.124  0.00  0.00    +0.000 A 
ATOM     13  C   UNL     1       6.950   4.807  15.264  0.00  0.00    +0.000 A 
ATOM     14  C   UNL     1       6.786   5.881  16.130  0.00  0.00    +0.000 A 
ATOM     15  C   UNL     1       5.597   5.970  16.855  0.00  0.00    +0.000 A 
ATOM     16  C   UNL     1       5.212   7.083  17.773  0.00  0.00    +0.000 C 
ATOM     17  C   UNL     1       3.899   6.558  18.373  0.00  0.00    +0.000 C 
ENDBRANCH   1  17
BRANCH   3  18
ATOM     18  C   UNL     1       0.489   9.974  19.651  0.00  0.00    +0.000 C 
ATOM     19  C   UNL     1      -0.119   9.204  20.845  0.00  0.00    +0.000 C 
ATOM     20  C   UNL     1       1.224  11.205  20.238  0.00  0.00    +0.000 C 
BRANCH  18  21
ATOM     21  C   UNL     1      -0.628  10.327  18.643  0.00  0.00    +0.000 A 
ATOM     22  C   UNL     1      -0.991   9.416  17.624  0.00  0.00    +0.000 A 
ATOM     23  C   UNL     1      -2.017   9.696  16.719  0.00  0.00    +0.000 A 
ATOM     24  C   UNL     1      -2.719  10.890  16.822  0.00  0.00    +0.000 A 
ATOM     25 CL   UNL     1      -3.998  11.230  15.720  0.00  0.00    +0.000 Cl
ATOM     26  C   UNL     1      -2.396  11.806  17.816  0.00  0.00    +0.000 A 
ATOM     27  C   UNL     1      -1.360  11.527  18.716  0.00  0.00    +0.000 A 
ENDBRANCH  18  21
ENDBRANCH   3  18
TORSDOF 3
ENDMDL
MODEL 3
REMARK VINA RESULT:      -7.9      5.342      9.236
REMARK  Name = 
REMARK  6 active torsions:
REMARK  status: ('A' for Active; 'I' for Inactive)
REMARK    1  A    between atoms: C_1  and  C_2
REMARK    2  A    between atoms: C_12  and  C_13
REMARK    3  A    between atoms: C_15  and  C_16
REMARK    4  A    between atoms: C_16  and  C_17
REMARK    5  A    between atoms: C_16  and  C_18
REMARK    6  A    between atoms: C_16  and  C_19
REMARK                            x       y       z     vdW  Elec       q    Type
REMARK                         _______ _______ _______ _____ _____    ______ ____
ROOT
ATOM      1  C   UNL     1       1.057  13.845  20.120  0.00  0.00    +0.000 A 
ATOM      2  N   UNL     1       0.710  12.943  19.224  0.00  0.00    +0.000 NA
ATOM      3  C   UNL     1       0.824  11.768  19.930  0.00  0.00    +0.000 A 
ATOM      4  N   UNL     1       1.248  11.927  21.197  0.00  0.00    +0.000 NA
ATOM      5  O   UNL     1       1.404  13.304  21.322  0.00  0.00    +0.000 OA
ENDROOT
BRANCH   1  17
ATOM      6  C   UNL     1       4.459  15.906  17.953  0.00  0.00    +0.000 C 
ATOM      7  C   UNL     1       3.438  15.263  18.847  0.00  0.00    +0.000 C 
ATOM      8  O   UNL     1       3.809  14.364  19.603  0.00  0.00    +0.000 OA
ATOM      9  N   UNL     1       2.131  15.717  18.852  0.00  0.00    +0.000 N 
ATOM     10  C   UNL     1       1.491  16.724  18.097  0.00  0.00    +0.000 A 
ATOM     11  C   UNL     1       1.929  17.468  17.013  0.00  0.00    +0.000 A 
ATOM     12  C   UNL     1       1.075  18.422  16.449  0.00  0.00    +0.000 A 
ATOM     13  C   UNL     1      -0.210  18.631  16.959  0.00  0.00    +0.000 A 
ATOM     14  C   UNL     1      -0.664  17.878  18.034  0.00  0.00    +0.000 A 
ATOM     15  C   UNL     1       0.197  16.930  18.589  0.00  0.00    +0.000 A 
ATOM     16  C   UNL     1      -0.136  15.984  19.694  0.00  0.00    +0.000 C 
ATOM     17  C   UNL     1       1.221  15.316  19.960  0.00  0.00    +0.000 C 
ENDBRANCH   1  17
BRANCH   3  18
ATOM     18  C   UNL     1       0.531  10.413  19.318  0.00  0.00    +0.000 C 
ATOM     19  C   UNL     1       1.572  10.022  18.246  0.00  0.00    +0.000 C 
ATOM     20  C   UNL     1       0.585   9.322  20.417  0.00  0.00    +0.000 C 
BRANCH  18  21
ATOM     21  C   UNL     1      -0.856  10.573  18.655  0.00  0.00    +0.000 A 
ATOM     22  C   UNL     1      -1.860  11.360  19.265  0.00  0.00    +0.000 A 
ATOM     23  C   UNL     1      -3.110  11.546  18.672  0.00  0.00    +0.000 A 
ATOM     24  C   UNL     1      -3.384  10.961  17.444  0.00  0.00    +0.000 A 
ATOM     25 CL   UNL     1      -4.918  11.204  16.700  0.00  0.00    +0.000 Cl
ATOM     26  C   UNL     1      -2.419  10.188  16.808  0.00  0.00    +0.000 A 
ATOM     27  C   UNL     1      -1.169   9.994  17.410  0.00  0.00    +0.000 A 
ENDBRANCH  18  21
ENDBRANCH   3  18
TORSDOF 3
ENDMDL
MODEL 4
REMARK VINA RESULT:      -7.7      3.053      8.012
REMARK  Name = 
REMARK  6 active torsions:
REMARK  status: ('A' for Active; 'I' for Inactive)
REMARK    1  A    between atoms: C_1  and  C_2
REMARK    2  A    between atoms: C_12  and  C_13
REMARK    3  A    between atoms: C_15  and  C_16
REMARK    4  A    between atoms: C_16  and  C_17
REMARK    5  A    between atoms: C_16  and  C_18
REMARK    6  A    between atoms: C_16  and  C_19
REMARK                            x       y       z     vdW  Elec       q    Type
REMARK                         _______ _______ _______ _____ _____    ______ ____
ROOT
ATOM      1  C   UNL     1       1.853   6.513  20.445  0.00  0.00    +0.000 A 
ATOM      2  N   UNL     1       2.826   5.733  20.022  0.00  0.00    +0.000 NA
ATOM      3  C   UNL     1       2.201   4.511  19.926  0.00  0.00    +0.000 A 
ATOM      4  N   UNL     1       0.908   4.524  20.296  0.00  0.00    +0.000 NA
ATOM      5  O   UNL     1       0.678   5.851  20.642  0.00  0.00    +0.000 OA
ENDROOT
BRANCH   1  17
ATOM      6  C   UNL     1       1.374  10.021  17.619  0.00  0.00    +0.000 C 
ATOM      7  C   UNL     1       1.739   8.890  18.536  0.00  0.00    +0.000 C 
ATOM      8  O   UNL     1       2.498   8.017  18.114  0.00  0.00    +0.000 OA
ATOM      9  N   UNL     1       1.274   8.873  19.839  0.00  0.00    +0.000 N 
ATOM     10  C   UNL     1       0.420   9.755  20.537  0.00  0.00    +0.000 A 
ATOM     11  C   UNL     1      -0.337  10.829  20.097  0.00  0.00    +0.000 A 
ATOM     12  C   UNL     1      -1.105  11.548  21.019  0.00  0.00    +0.000 A 
ATOM     13  C   UNL     1      -1.120  11.199  22.372  0.00  0.00    +0.000 A 
ATOM     14  C   UNL     1      -0.377  10.114  22.820  0.00  0.00    +0.000 A 
ATOM     15  C   UNL     1       0.385   9.404  21.891  0.00  0.00    +0.000 A 
ATOM     16  C   UNL     1       1.185   8.175  22.170  0.00  0.00    +0.000 C 
ATOM     17  C   UNL     1       1.899   7.952  20.828  0.00  0.00    +0.000 C 
ENDBRANCH   1  17
BRANCH   3  18
ATOM     18  C   UNL     1       2.922   3.256  19.475  0.00  0.00    +0.000 C 
ATOM     19  C   UNL     1       3.631   2.541  20.646  0.00  0.00    +0.000 C 
ATOM     20  C   UNL     1       1.899   2.251  18.888  0.00  0.00    +0.000 C 
BRANCH  18  21
ATOM     21  C   UNL     1       3.976   3.751  18.458  0.00  0.00    +0.000 A 
ATOM     22  C   UNL     1       5.276   4.108  18.886  0.00  0.00    +0.000 A 
ATOM     23  C   UNL     1       6.255   4.529  17.984  0.00  0.00    +0.000 A 
ATOM     24  C   UNL     1       5.965   4.587  16.628  0.00  0.00    +0.000 A 
ATOM     25 CL   UNL     1       7.177   5.087  15.512  0.00  0.00    +0.000 Cl
ATOM     26  C   UNL     1       4.701   4.234  16.170  0.00  0.00    +0.000 A 
ATOM     27  C   UNL     1       3.716   3.823  17.076  0.00  0.00    +0.000 A 
ENDBRANCH  18  21
ENDBRANCH   3  18
TORSDOF 3
ENDMDL
MODEL 5
REMARK VINA RESULT:      -7.7      2.519      4.255
REMARK  Name = 
REMARK  6 active torsions:
REMARK  status: ('A' for Active; 'I' for Inactive)
REMARK    1  A    between atoms: C_1  and  C_2
REMARK    2  A    between atoms: C_12  and  C_13
REMARK    3  A    between atoms: C_15  and  C_16
REMARK    4  A    between atoms: C_16  and  C_17
REMARK    5  A    between atoms: C_16  and  C_18
REMARK    6  A    between atoms: C_16  and  C_19
REMARK                            x       y       z     vdW  Elec       q    Type
REMARK                         _______ _______ _______ _____ _____    ______ ____
ROOT
ATOM      1  C   UNL     1       2.140   7.397  18.429  0.00  0.00    +0.000 A 
ATOM      2  N   UNL     1       1.896   8.593  17.933  0.00  0.00    +0.000 NA
ATOM      3  C   UNL     1       1.550   9.311  19.054  0.00  0.00    +0.000 A 
ATOM      4  N   UNL     1       1.552   8.591  20.191  0.00  0.00    +0.000 NA
ATOM      5  O   UNL     1       1.941   7.321  19.776  0.00  0.00    +0.000 OA
ENDROOT
BRANCH   1  17
ATOM      6  C   UNL     1       6.267   5.550  18.164  0.00  0.00    +0.000 C 
ATOM      7  C   UNL     1       4.938   6.242  18.062  0.00  0.00    +0.000 C 
ATOM      8  O   UNL     1       4.927   7.455  17.848  0.00  0.00    +0.000 OA
ATOM      9  N   UNL     1       3.765   5.514  18.151  0.00  0.00    +0.000 N 
ATOM     10  C   UNL     1       3.535   4.139  18.375  0.00  0.00    +0.000 A 
ATOM     11  C   UNL     1       4.401   3.115  18.725  0.00  0.00    +0.000 A 
ATOM     12  C   UNL     1       3.900   1.818  18.881  0.00  0.00    +0.000 A 
ATOM     13  C   UNL     1       2.543   1.543  18.693  0.00  0.00    +0.000 A 
ATOM     14  C   UNL     1       1.664   2.566  18.359  0.00  0.00    +0.000 A 
ATOM     15  C   UNL     1       2.176   3.855  18.204  0.00  0.00    +0.000 A 
ATOM     16  C   UNL     1       1.381   5.085  17.920  0.00  0.00    +0.000 C 
ATOM     17  C   UNL     1       2.484   6.135  17.718  0.00  0.00    +0.000 C 
ENDBRANCH   1  17
BRANCH   3  18
ATOM     18  C   UNL     1       1.166  10.777  19.002  0.00  0.00    +0.000 C 
ATOM     19  C   UNL     1       1.345  11.473  20.370  0.00  0.00    +0.000 C 
ATOM     20  C   UNL     1       2.081  11.520  17.997  0.00  0.00    +0.000 C 
BRANCH  18  21
ATOM     21  C   UNL     1      -0.331  10.778  18.616  0.00  0.00    +0.000 A 
ATOM     22  C   UNL     1      -1.226  11.700  19.206  0.00  0.00    +0.000 A 
ATOM     23  C   UNL     1      -2.576  11.743  18.851  0.00  0.00    +0.000 A 
ATOM     24  C   UNL     1      -3.062  10.874  17.885  0.00  0.00    +0.000 A 
ATOM     25 CL   UNL     1      -4.722  10.937  17.431  0.00  0.00    +0.000 Cl
ATOM     26  C   UNL     1      -2.210   9.960  17.276  0.00  0.00    +0.000 A 
ATOM     27  C   UNL     1      -0.859   9.911  17.640  0.00  0.00    +0.000 A 
ENDBRANCH  18  21
ENDBRANCH   3  18
TORSDOF 3
ENDMDL
MODEL 6
REMARK VINA RESULT:      -7.6      1.364      2.028
REMARK  Name = 
REMARK  6 active torsions:
REMARK  status: ('A' for Active; 'I' for Inactive)
REMARK    1  A    between atoms: C_1  and  C_2
REMARK    2  A    between atoms: C_12  and  C_13
REMARK    3  A    between atoms: C_15  and  C_16
REMARK    4  A    between atoms: C_16  and  C_17
REMARK    5  A    between atoms: C_16  and  C_18
REMARK    6  A    between atoms: C_16  and  C_19
REMARK                            x       y       z     vdW  Elec       q    Type
REMARK                         _______ _______ _______ _____ _____    ______ ____
ROOT
ATOM      1  C   UNL     1       2.056   8.200  18.865  0.00  0.00    +0.000 A 
ATOM      2  N   UNL     1       1.674   9.109  19.739  0.00  0.00    +0.000 NA
ATOM      3  C   UNL     1       0.770   9.850  19.015  0.00  0.00    +0.000 A 
ATOM      4  N   UNL     1       0.615   9.439  17.743  0.00  0.00    +0.000 NA
ATOM      5  O   UNL     1       1.469   8.346  17.644  0.00  0.00    +0.000 OA
ENDROOT
BRANCH   1  17
ATOM      6  C   UNL     1       1.447   4.136  20.772  0.00  0.00    +0.000 C 
ATOM      7  C   UNL     1       1.730   5.541  20.324  0.00  0.00    +0.000 C 
ATOM      8  O   UNL     1       1.259   6.470  20.983  0.00  0.00    +0.000 OA
ATOM      9  N   UNL     1       2.548   5.773  19.232  0.00  0.00    +0.000 N 
ATOM     10  C   UNL     1       3.200   4.884  18.350  0.00  0.00    +0.000 A 
ATOM     11  C   UNL     1       3.106   3.509  18.206  0.00  0.00    +0.000 A 
ATOM     12  C   UNL     1       3.883   2.867  17.236  0.00  0.00    +0.000 A 
ATOM     13  C   UNL     1       4.747   3.591  16.410  0.00  0.00    +0.000 A 
ATOM     14  C   UNL     1       4.836   4.972  16.535  0.00  0.00    +0.000 A 
ATOM     15  C   UNL     1       4.057   5.601  17.507  0.00  0.00    +0.000 A 
ATOM     16  C   UNL     1       3.965   7.072  17.739  0.00  0.00    +0.000 C 
ATOM     17  C   UNL     1       3.092   7.139  19.002  0.00  0.00    +0.000 C 
ENDBRANCH   1  17
BRANCH   3  18
ATOM     18  C   UNL     1       0.040  11.046  19.594  0.00  0.00    +0.000 C 
ATOM     19  C   UNL     1      -1.167  11.466  18.727  0.00  0.00    +0.000 C 
ATOM     20  C   UNL     1      -0.516  10.689  20.995  0.00  0.00    +0.000 C 
BRANCH  18  21
ATOM     21  C   UNL     1       1.090  12.181  19.602  0.00  0.00    +0.000 A 
ATOM     22  C   UNL     1       1.386  12.880  20.795  0.00  0.00    +0.000 A 
ATOM     23  C   UNL     1       2.351  13.888  20.835  0.00  0.00    +0.000 A 
ATOM     24  C   UNL     1       3.057  14.212  19.686  0.00  0.00    +0.000 A 
ATOM     25 CL   UNL     1       4.263  15.441  19.737  0.00  0.00    +0.000 Cl
ATOM     26  C   UNL     1       2.801  13.540  18.496  0.00  0.00    +0.000 A 
ATOM     27  C   UNL     1       1.824  12.537  18.455  0.00  0.00    +0.000 A 
ENDBRANCH  18  21
ENDBRANCH   3  18
TORSDOF 3
ENDMDL
MODEL 7
REMARK VINA RESULT:      -7.6      1.629      2.036
REMARK  Name = 
REMARK  6 active torsions:
REMARK  status: ('A' for Active; 'I' for Inactive)
REMARK    1  A    between atoms: C_1  and  C_2
REMARK    2  A    between atoms: C_12  and  C_13
REMARK    3  A    between atoms: C_15  and  C_16
REMARK    4  A    between atoms: C_16  and  C_17
REMARK    5  A    between atoms: C_16  and  C_18
REMARK    6  A    between atoms: C_16  and  C_19
REMARK                            x       y       z     vdW  Elec       q    Type
REMARK                         _______ _______ _______ _____ _____    ______ ____
ROOT
ATOM      1  C   UNL     1       1.904   8.354  18.896  0.00  0.00    +0.000 A 
ATOM      2  N   UNL     1       1.382   9.115  19.836  0.00  0.00    +0.000 NA
ATOM      3  C   UNL     1       0.489   9.885  19.127  0.00  0.00    +0.000 A 
ATOM      4  N   UNL     1       0.475   9.634  17.806  0.00  0.00    +0.000 NA
ATOM      5  O   UNL     1       1.415   8.620  17.652  0.00  0.00    +0.000 OA
ENDROOT
BRANCH   1  17
ATOM      6  C   UNL     1       1.575   4.246  20.776  0.00  0.00    +0.000 C 
ATOM      7  C   UNL     1       1.766   5.668  20.335  0.00  0.00    +0.000 C 
ATOM      8  O   UNL     1       1.259   6.562  21.014  0.00  0.00    +0.000 OA
ATOM      9  N   UNL     1       2.543   5.956  19.227  0.00  0.00    +0.000 N 
ATOM     10  C   UNL     1       3.223   5.114  18.320  0.00  0.00    +0.000 A 
ATOM     11  C   UNL     1       3.204   3.737  18.165  0.00  0.00    +0.000 A 
ATOM     12  C   UNL     1       3.992   3.149  17.170  0.00  0.00    +0.000 A 
ATOM     13  C   UNL     1       4.793   3.928  16.332  0.00  0.00    +0.000 A 
ATOM     14  C   UNL     1       4.807   5.311  16.468  0.00  0.00    +0.000 A 
ATOM     15  C   UNL     1       4.017   5.886  17.465  0.00  0.00    +0.000 A 
ATOM     16  C   UNL     1       3.847   7.347  17.714  0.00  0.00    +0.000 C 
ATOM     17  C   UNL     1       3.003   7.353  18.998  0.00  0.00    +0.000 C 
ENDBRANCH   1  17
BRANCH   3  18
ATOM     18  C   UNL     1      -0.376  10.946  19.779  0.00  0.00    +0.000 C 
ATOM     19  C   UNL     1      -1.808  10.965  19.199  0.00  0.00    +0.000 C 
ATOM     20  C   UNL     1      -0.508  10.652  21.294  0.00  0.00    +0.000 C 
BRANCH  18  21
ATOM     21  C   UNL     1       0.330  12.282  19.454  0.00  0.00    +0.000 A 
ATOM     22  C   UNL     1      -0.389  13.353  18.874  0.00  0.00    +0.000 A 
ATOM     23  C   UNL     1       0.217  14.581  18.599  0.00  0.00    +0.000 A 
ATOM     24  C   UNL     1       1.555  14.774  18.913  0.00  0.00    +0.000 A 
ATOM     25 CL   UNL     1       2.300  16.294  18.594  0.00  0.00    +0.000 Cl
ATOM     26  C   UNL     1       2.291  13.748  19.493  0.00  0.00    +0.000 A 
ATOM     27  C   UNL     1       1.685  12.514  19.758  0.00  0.00    +0.000 A 
ENDBRANCH  18  21
ENDBRANCH   3  18
TORSDOF 3
ENDMDL
MODEL 8
REMARK VINA RESULT:      -7.6      1.377      1.834
REMARK  Name = 
REMARK  6 active torsions:
REMARK  status: ('A' for Active; 'I' for Inactive)
REMARK    1  A    between atoms: C_1  and  C_2
REMARK    2  A    between atoms: C_12  and  C_13
REMARK    3  A    between atoms: C_15  and  C_16
REMARK    4  A    between atoms: C_16  and  C_17
REMARK    5  A    between atoms: C_16  and  C_18
REMARK    6  A    between atoms: C_16  and  C_19
REMARK                            x       y       z     vdW  Elec       q    Type
REMARK                         _______ _______ _______ _____ _____    ______ ____
ROOT
ATOM      1  C   UNL     1       2.923   6.791  19.350  0.00  0.00    +0.000 A 
ATOM      2  N   UNL     1       2.344   7.129  20.484  0.00  0.00    +0.000 NA
ATOM      3  C   UNL     1       1.583   8.214  20.113  0.00  0.00    +0.000 A 
ATOM      4  N   UNL     1       1.704   8.553  18.817  0.00  0.00    +0.000 NA
ATOM      5  O   UNL     1       2.594   7.610  18.312  0.00  0.00    +0.000 OA
ENDROOT
BRANCH   1  17
ATOM      6  C   UNL     1       2.145   2.789  17.377  0.00  0.00    +0.000 C 
ATOM      7  C   UNL     1       2.389   4.013  18.212  0.00  0.00    +0.000 C 
ATOM      8  O   UNL     1       1.556   4.309  19.071  0.00  0.00    +0.000 OA
ATOM      9  N   UNL     1       3.552   4.745  18.052  0.00  0.00    +0.000 N 
ATOM     10  C   UNL     1       4.635   4.592  17.160  0.00  0.00    +0.000 A 
ATOM     11  C   UNL     1       4.807   3.754  16.069  0.00  0.00    +0.000 A 
ATOM     12  C   UNL     1       6.005   3.805  15.349  0.00  0.00    +0.000 A 
ATOM     13  C   UNL     1       7.026   4.688  15.710  0.00  0.00    +0.000 A 
ATOM     14  C   UNL     1       6.857   5.544  16.792  0.00  0.00    +0.000 A 
ATOM     15  C   UNL     1       5.658   5.483  17.503  0.00  0.00    +0.000 A 
ATOM     16  C   UNL     1       5.268   6.367  18.641  0.00  0.00    +0.000 C 
ATOM     17  C   UNL     1       3.942   5.736  19.092  0.00  0.00    +0.000 C 
ENDBRANCH   1  17
BRANCH   3  18
ATOM     18  C   UNL     1       0.714   8.979  21.092  0.00  0.00    +0.000 C 
ATOM     19  C   UNL     1      -0.636   8.273  21.344  0.00  0.00    +0.000 C 
ATOM     20  C   UNL     1       1.433   9.075  22.461  0.00  0.00    +0.000 C 
BRANCH  18  21
ATOM     21  C   UNL     1       0.464  10.344  20.412  0.00  0.00    +0.000 A 
ATOM     22  C   UNL     1      -0.671  10.543  19.592  0.00  0.00    +0.000 A 
ATOM     23  C   UNL     1      -0.937  11.774  18.992  0.00  0.00    +0.000 A 
ATOM     24  C   UNL     1      -0.082  12.846  19.209  0.00  0.00    +0.000 A 
ATOM     25 CL   UNL     1      -0.418  14.372  18.486  0.00  0.00    +0.000 Cl
ATOM     26  C   UNL     1       1.039  12.692  20.017  0.00  0.00    +0.000 A 
ATOM     27  C   UNL     1       1.310  11.452  20.610  0.00  0.00    +0.000 A 
ENDBRANCH  18  21
ENDBRANCH   3  18
TORSDOF 3
ENDMDL
MODEL 9
REMARK VINA RESULT:      -7.5      2.849      7.770
REMARK  Name = 
REMARK  6 active torsions:
REMARK  status: ('A' for Active; 'I' for Inactive)
REMARK    1  A    between atoms: C_1  and  C_2
REMARK    2  A    between atoms: C_12  and  C_13
REMARK    3  A    between atoms: C_15  and  C_16
REMARK    4  A    between atoms: C_16  and  C_17
REMARK    5  A    between atoms: C_16  and  C_18
REMARK    6  A    between atoms: C_16  and  C_19
REMARK                            x       y       z     vdW  Elec       q    Type
REMARK                         _______ _______ _______ _____ _____    ______ ____
ROOT
ATOM      1  C   UNL     1       1.639   7.437  20.488  0.00  0.00    +0.000 A 
ATOM      2  N   UNL     1       2.551   6.890  19.711  0.00  0.00    +0.000 NA
ATOM      3  C   UNL     1       2.197   5.561  19.734  0.00  0.00    +0.000 A 
ATOM      4  N   UNL     1       1.132   5.289  20.510  0.00  0.00    +0.000 NA
ATOM      5  O   UNL     1       0.764   6.533  21.011  0.00  0.00    +0.000 OA
ENDROOT
BRANCH   1  17
ATOM      6  C   UNL     1       0.281  10.925  17.938  0.00  0.00    +0.000 C 
ATOM      7  C   UNL     1       0.926   9.834  18.742  0.00  0.00    +0.000 C 
ATOM      8  O   UNL     1       1.750   9.107  18.184  0.00  0.00    +0.000 OA
ATOM      9  N   UNL     1       0.637   9.696  20.088  0.00  0.00    +0.000 N 
ATOM     10  C   UNL     1      -0.246  10.407  20.930  0.00  0.00    +0.000 A 
ATOM     11  C   UNL     1      -1.207  11.363  20.644  0.00  0.00    +0.000 A 
ATOM     12  C   UNL     1      -1.952  11.919  21.689  0.00  0.00    +0.000 A 
ATOM     13  C   UNL     1      -1.743  11.523  23.013  0.00  0.00    +0.000 A 
ATOM     14  C   UNL     1      -0.794  10.553  23.308  0.00  0.00    +0.000 A 
ATOM     15  C   UNL     1      -0.056  10.006  22.257  0.00  0.00    +0.000 A 
ATOM     16  C   UNL     1       0.950   8.909  22.370  0.00  0.00    +0.000 C 
ATOM     17  C   UNL     1       1.515   8.850  20.943  0.00  0.00    +0.000 C 
ENDBRANCH   1  17
BRANCH   3  18
ATOM     18  C   UNL     1       2.965   4.495  18.977  0.00  0.00    +0.000 C 
ATOM     19  C   UNL     1       3.349   3.303  19.882  0.00  0.00    +0.000 C 
ATOM     20  C   UNL     1       2.084   3.928  17.837  0.00  0.00    +0.000 C 
BRANCH  18  21
ATOM     21  C   UNL     1       4.248   5.206  18.490  0.00  0.00    +0.000 A 
ATOM     22  C   UNL     1       4.229   6.009  17.326  0.00  0.00    +0.000 A 
ATOM     23  C   UNL     1       5.366   6.686  16.882  0.00  0.00    +0.000 A 
ATOM     24  C   UNL     1       6.549   6.592  17.601  0.00  0.00    +0.000 A 
ATOM     25 CL   UNL     1       7.948   7.443  17.067  0.00  0.00    +0.000 Cl
ATOM     26  C   UNL     1       6.604   5.820  18.756  0.00  0.00    +0.000 A 
ATOM     27  C   UNL     1       5.466   5.132  19.194  0.00  0.00    +0.000 A 
ENDBRANCH  18  21
ENDBRANCH   3  18
TORSDOF 3
ENDMDL
