MODEL 1
REMARK VINA RESULT:      -8.0      0.000      0.000
REMARK  Name = 
REMARK  6 active torsions:
REMARK  status: ('A' for Active; 'I' for Inactive)
REMARK    1  A    between atoms: C_2  and  C_3
REMARK    2  A    between atoms: C_3  and  N_4
REMARK    3  A    between atoms: N_17  and  C_18
REMARK    4  A    between atoms: C_18  and  C_19
REMARK    5  A    between atoms: C_19  and  C_20
REMARK    6  A    between atoms: C_20  and  C_21
REMARK                            x       y       z     vdW  Elec       q    Type
REMARK                         _______ _______ _______ _____ _____    ______ ____
ROOT
ATOM      1  O   UNL     1       5.127   2.940  19.519  0.00  0.00    +0.000 OA
ATOM      2  C   UNL     1       4.533   3.845  18.921  0.00  0.00    +0.000 C 
ATOM      3  N   UNL     1       5.196   4.775  18.138  0.00  0.00    +0.000 N 
ATOM      4  C   UNL     1       4.554   5.951  17.533  0.00  0.00    +0.000 C 
ATOM      5  C   UNL     1       5.403   6.582  16.421  0.00  0.00    +0.000 C 
ATOM      6  C   UNL     1       5.875   5.515  15.423  0.00  0.00    +0.000 C 
ATOM      7  C   UNL     1       6.309   4.215  16.095  0.00  0.00    +0.000 C 
ATOM      8  C   UNL     1       6.513   4.400  17.601  0.00  0.00    +0.000 C 
ATOM      9  C   UNL     1       7.657   5.397  17.938  0.00  0.00    +0.000 C 
ATOM     10  N   UNL     1       7.264   6.799  18.144  0.00  0.00    +0.000 NA
ATOM     11  C   UNL     1       6.570   7.397  16.997  0.00  0.00    +0.000 C 
ENDROOT
BRANCH   2  12
ATOM     12  C   UNL     1       3.006   3.883  18.931  0.00  0.00    +0.000 C 
BRANCH  12  13
ATOM     13  N   UNL     1       2.452   4.631  20.074  0.00  0.00    +0.000 NA
ATOM     14  C   UNL     1       2.923   4.065  21.363  0.00  0.00    +0.000 C 
ATOM     15  C   UNL     1       2.396   2.645  21.638  0.00  0.00    +0.000 C 
ATOM     16  O   UNL     1       0.960   2.608  21.600  0.00  0.00    +0.000 OA
ATOM     17  C   UNL     1       0.453   3.110  20.358  0.00  0.00    +0.000 C 
ATOM     18  C   UNL     1       0.974   4.528  20.062  0.00  0.00    +0.000 C 
ENDBRANCH  12  13
ENDBRANCH   2  12
BRANCH  10  19
ATOM     19  C   UNL     1       8.395   7.608  18.615  0.00  0.00    +0.000 C 
BRANCH  19  20
ATOM     20  C   UNL     1       8.336   9.093  18.231  0.00  0.00    +0.000 C 
BRANCH  20  21
ATOM     21  C   UNL     1       9.022  10.019  19.244  0.00  0.00    +0.000 C 
BRANCH  21  22
ATOM     22  C   UNL     1       9.646  11.199  18.534  0.00  0.00    +0.000 A 
ATOM     23  C   UNL     1       8.844  12.241  18.054  0.00  0.00    +0.000 A 
ATOM     24  C   UNL     1       9.407  13.300  17.340  0.00  0.00    +0.000 A 
ATOM     25  C   UNL     1      10.779  13.324  17.098  0.00  0.00    +0.000 A 
ATOM     26  C   UNL     1      11.587  12.293  17.576  0.00  0.00    +0.000 A 
ATOM     27  C   UNL     1      11.025  11.235  18.288  0.00  0.00    +0.000 A 
ENDBRANCH  21  22
ENDBRANCH  20  21
ENDBRANCH  19  20
ENDBRANCH  10  19
TORSDOF 6
ENDMDL
MODEL 2
REMARK VINA RESULT:      -7.8      0.993      1.633
REMARK  Name = 
REMARK  6 active torsions:
REMARK  status: ('A' for Active; 'I' for Inactive)
REMARK    1  A    between atoms: C_2  and  C_3
REMARK    2  A    between atoms: C_3  and  N_4
REMARK    3  A    between atoms: N_17  and  C_18
REMARK    4  A    between atoms: C_18  and  C_19
REMARK    5  A    between atoms: C_19  and  C_20
REMARK    6  A    between atoms: C_20  and  C_21
REMARK                            x       y       z     vdW  Elec       q    Type
REMARK                         _______ _______ _______ _____ _____    ______ ____
ROOT
ATOM      1  O   UNL     1       5.587   2.996  19.598  0.00  0.00    +0.000 OA
ATOM      2  C   UNL     1       4.876   3.801  18.985  0.00  0.00    +0.000 C 
ATOM      3  N   UNL     1       5.405   4.765  18.142  0.00  0.00    +0.000 N 
ATOM      4  C   UNL     1       4.615   5.832  17.512  0.00  0.00    +0.000 C 
ATOM      5  C   UNL     1       5.354   6.505  16.347  0.00  0.00    +0.000 C 
ATOM      6  C   UNL     1       5.915   5.455  15.377  0.00  0.00    +0.000 C 
ATOM      7  C   UNL     1       6.513   4.243  16.086  0.00  0.00    +0.000 C 
ATOM      8  C   UNL     1       6.739   4.517  17.576  0.00  0.00    +0.000 C 
ATOM      9  C   UNL     1       7.772   5.650  17.833  0.00  0.00    +0.000 C 
ATOM     10  N   UNL     1       7.228   7.007  17.994  0.00  0.00    +0.000 NA
ATOM     11  C   UNL     1       6.437   7.472  16.849  0.00  0.00    +0.000 C 
ENDROOT
BRANCH   2  12
ATOM     12  C   UNL     1       3.355   3.667  19.045  0.00  0.00    +0.000 C 
BRANCH  12  13
ATOM     13  N   UNL     1       2.910   2.353  19.544  0.00  0.00    +0.000 NA
ATOM     14  C   UNL     1       1.479   2.116  19.226  0.00  0.00    +0.000 C 
ATOM     15  C   UNL     1       0.522   3.068  19.966  0.00  0.00    +0.000 C 
ATOM     16  O   UNL     1       0.711   2.993  21.388  0.00  0.00    +0.000 OA
ATOM     17  C   UNL     1       2.072   3.252  21.753  0.00  0.00    +0.000 C 
ATOM     18  C   UNL     1       3.047   2.313  21.019  0.00  0.00    +0.000 C 
ENDBRANCH  12  13
ENDBRANCH   2  12
BRANCH  10  19
ATOM     19  C   UNL     1       8.273   7.958  18.393  0.00  0.00    +0.000 C 
BRANCH  19  20
ATOM     20  C   UNL     1       8.346   9.236  17.545  0.00  0.00    +0.000 C 
BRANCH  20  21
ATOM     21  C   UNL     1       8.204  10.526  18.362  0.00  0.00    +0.000 C 
BRANCH  21  22
ATOM     22  C   UNL     1       9.566  11.043  18.766  0.00  0.00    +0.000 A 
ATOM     23  C   UNL     1       9.863  11.281  20.113  0.00  0.00    +0.000 A 
ATOM     24  C   UNL     1      11.096  11.821  20.485  0.00  0.00    +0.000 A 
ATOM     25  C   UNL     1      12.042  12.128  19.510  0.00  0.00    +0.000 A 
ATOM     26  C   UNL     1      11.758  11.890  18.165  0.00  0.00    +0.000 A 
ATOM     27  C   UNL     1      10.527  11.352  17.794  0.00  0.00    +0.000 A 
ENDBRANCH  21  22
ENDBRANCH  20  21
ENDBRANCH  19  20
ENDBRANCH  10  19
TORSDOF 6
ENDMDL
MODEL 3
REMARK VINA RESULT:      -7.8      1.095      1.637
REMARK  Name = 
REMARK  6 active torsions:
REMARK  status: ('A' for Active; 'I' for Inactive)
REMARK    1  A    between atoms: C_2  and  C_3
REMARK    2  A    between atoms: C_3  and  N_4
REMARK    3  A    between atoms: N_17  and  C_18
REMARK    4  A    between atoms: C_18  and  C_19
REMARK    5  A    between atoms: C_19  and  C_20
REMARK    6  A    between atoms: C_20  and  C_21
REMARK                            x       y       z     vdW  Elec       q    Type
REMARK                         _______ _______ _______ _____ _____    ______ ____
ROOT
ATOM      1  O   UNL     1       5.650   3.518  19.980  0.00  0.00    +0.000 OA
ATOM      2  C   UNL     1       4.853   4.246  19.376  0.00  0.00    +0.000 C 
ATOM      3  N   UNL     1       5.229   5.008  18.282  0.00  0.00    +0.000 N 
ATOM      4  C   UNL     1       4.360   5.996  17.628  0.00  0.00    +0.000 C 
ATOM      5  C   UNL     1       4.865   6.401  16.237  0.00  0.00    +0.000 C 
ATOM      6  C   UNL     1       5.186   5.161  15.391  0.00  0.00    +0.000 C 
ATOM      7  C   UNL     1       5.881   4.057  16.184  0.00  0.00    +0.000 C 
ATOM      8  C   UNL     1       6.412   4.575  17.524  0.00  0.00    +0.000 C 
ATOM      9  C   UNL     1       7.509   5.665  17.358  0.00  0.00    +0.000 C 
ATOM     10  N   UNL     1       7.049   7.061  17.365  0.00  0.00    +0.000 NA
ATOM     11  C   UNL     1       6.056   7.368  16.329  0.00  0.00    +0.000 C 
ENDROOT
BRANCH   2  12
ATOM     12  C   UNL     1       3.373   4.227  19.755  0.00  0.00    +0.000 C 
BRANCH  12  13
ATOM     13  N   UNL     1       2.908   2.901  20.203  0.00  0.00    +0.000 NA
ATOM     14  C   UNL     1       2.988   1.906  19.105  0.00  0.00    +0.000 C 
ATOM     15  C   UNL     1       2.021   2.196  17.943  0.00  0.00    +0.000 C 
ATOM     16  O   UNL     1       0.664   2.283  18.407  0.00  0.00    +0.000 OA
ATOM     17  C   UNL     1       0.524   3.261  19.444  0.00  0.00    +0.000 C 
ATOM     18  C   UNL     1       1.487   2.991  20.614  0.00  0.00    +0.000 C 
ENDBRANCH  12  13
ENDBRANCH   2  12
BRANCH  10  19
ATOM     19  C   UNL     1       8.181   7.997  17.369  0.00  0.00    +0.000 C 
BRANCH  19  20
ATOM     20  C   UNL     1       7.906   9.346  18.048  0.00  0.00    +0.000 C 
BRANCH  20  21
ATOM     21  C   UNL     1       9.071   9.849  18.911  0.00  0.00    +0.000 C 
BRANCH  21  22
ATOM     22  C   UNL     1       9.634  11.128  18.336  0.00  0.00    +0.000 A 
ATOM     23  C   UNL     1      11.018  11.339  18.297  0.00  0.00    +0.000 A 
ATOM     24  C   UNL     1      11.540  12.545  17.828  0.00  0.00    +0.000 A 
ATOM     25  C   UNL     1      10.681  13.554  17.397  0.00  0.00    +0.000 A 
ATOM     26  C   UNL     1       9.301  13.353  17.428  0.00  0.00    +0.000 A 
ATOM     27  C   UNL     1       8.779  12.148  17.896  0.00  0.00    +0.000 A 
ENDBRANCH  21  22
ENDBRANCH  20  21
ENDBRANCH  19  20
ENDBRANCH  10  19
TORSDOF 6
ENDMDL
MODEL 4
REMARK VINA RESULT:      -7.7      1.291      1.705
REMARK  Name = 
REMARK  6 active torsions:
REMARK  status: ('A' for Active; 'I' for Inactive)
REMARK    1  A    between atoms: C_2  and  C_3
REMARK    2  A    between atoms: C_3  and  N_4
REMARK    3  A    between atoms: N_17  and  C_18
REMARK    4  A    between atoms: C_18  and  C_19
REMARK    5  A    between atoms: C_19  and  C_20
REMARK    6  A    between atoms: C_20  and  C_21
REMARK                            x       y       z     vdW  Elec       q    Type
REMARK                         _______ _______ _______ _____ _____    ______ ____
ROOT
ATOM      1  O   UNL     1       5.652   3.841  20.192  0.00  0.00    +0.000 OA
ATOM      2  C   UNL     1       4.843   4.424  19.460  0.00  0.00    +0.000 C 
ATOM      3  N   UNL     1       5.228   5.058  18.290  0.00  0.00    +0.000 N 
ATOM      4  C   UNL     1       4.333   5.886  17.469  0.00  0.00    +0.000 C 
ATOM      5  C   UNL     1       4.886   6.138  16.060  0.00  0.00    +0.000 C 
ATOM      6  C   UNL     1       5.333   4.822  15.406  0.00  0.00    +0.000 C 
ATOM      7  C   UNL     1       6.053   3.886  16.373  0.00  0.00    +0.000 C 
ATOM      8  C   UNL     1       6.476   4.614  17.652  0.00  0.00    +0.000 C 
ATOM      9  C   UNL     1       7.507   5.748  17.389  0.00  0.00    +0.000 C 
ATOM     10  N   UNL     1       6.958   7.097  17.185  0.00  0.00    +0.000 NA
ATOM     11  C   UNL     1       6.005   7.191  16.073  0.00  0.00    +0.000 C 
ENDROOT
BRANCH   2  12
ATOM     12  C   UNL     1       3.350   4.348  19.770  0.00  0.00    +0.000 C 
BRANCH  12  13
ATOM     13  N   UNL     1       2.938   3.044  20.320  0.00  0.00    +0.000 NA
ATOM     14  C   UNL     1       2.812   2.026  19.248  0.00  0.00    +0.000 C 
ATOM     15  C   UNL     1       1.671   2.318  18.257  0.00  0.00    +0.000 C 
ATOM     16  O   UNL     1       0.413   2.447  18.938  0.00  0.00    +0.000 OA
ATOM     17  C   UNL     1       0.468   3.448  19.961  0.00  0.00    +0.000 C 
ATOM     18  C   UNL     1       1.608   3.177  20.961  0.00  0.00    +0.000 C 
ENDBRANCH  12  13
ENDBRANCH   2  12
BRANCH  10  19
ATOM     19  C   UNL     1       8.025   8.103  17.112  0.00  0.00    +0.000 C 
BRANCH  19  20
ATOM     20  C   UNL     1       8.255   8.901  18.404  0.00  0.00    +0.000 C 
BRANCH  20  21
ATOM     21  C   UNL     1       8.298  10.419  18.190  0.00  0.00    +0.000 C 
BRANCH  21  22
ATOM     22  C   UNL     1       9.590  10.987  18.732  0.00  0.00    +0.000 A 
ATOM     23  C   UNL     1       9.734  11.237  20.103  0.00  0.00    +0.000 A 
ATOM     24  C   UNL     1      10.899  11.823  20.600  0.00  0.00    +0.000 A 
ATOM     25  C   UNL     1      11.931  12.166  19.729  0.00  0.00    +0.000 A 
ATOM     26  C   UNL     1      11.800  11.916  18.363  0.00  0.00    +0.000 A 
ATOM     27  C   UNL     1      10.636  11.332  17.866  0.00  0.00    +0.000 A 
ENDBRANCH  21  22
ENDBRANCH  20  21
ENDBRANCH  19  20
ENDBRANCH  10  19
TORSDOF 6
ENDMDL
MODEL 5
REMARK VINA RESULT:      -7.6      0.761      1.500
REMARK  Name = 
REMARK  6 active torsions:
REMARK  status: ('A' for Active; 'I' for Inactive)
REMARK    1  A    between atoms: C_2  and  C_3
REMARK    2  A    between atoms: C_3  and  N_4
REMARK    3  A    between atoms: N_17  and  C_18
REMARK    4  A    between atoms: C_18  and  C_19
REMARK    5  A    between atoms: C_19  and  C_20
REMARK    6  A    between atoms: C_20  and  C_21
REMARK                            x       y       z     vdW  Elec       q    Type
REMARK                         _______ _______ _______ _____ _____    ______ ____
ROOT
ATOM      1  O   UNL     1       5.396   3.243  19.755  0.00  0.00    +0.000 OA
ATOM      2  C   UNL     1       4.781   4.108  19.120  0.00  0.00    +0.000 C 
ATOM      3  N   UNL     1       5.422   5.012  18.290  0.00  0.00    +0.000 N 
ATOM      4  C   UNL     1       4.755   6.146  17.635  0.00  0.00    +0.000 C 
ATOM      5  C   UNL     1       5.585   6.740  16.488  0.00  0.00    +0.000 C 
ATOM      6  C   UNL     1       6.070   5.636  15.537  0.00  0.00    +0.000 C 
ATOM      7  C   UNL     1       6.532   4.377  16.266  0.00  0.00    +0.000 C 
ATOM      8  C   UNL     1       6.742   4.636  17.761  0.00  0.00    +0.000 C 
ATOM      9  C   UNL     1       7.870   5.667  18.043  0.00  0.00    +0.000 C 
ATOM     10  N   UNL     1       7.453   7.070  18.185  0.00  0.00    +0.000 NA
ATOM     11  C   UNL     1       6.741   7.602  17.017  0.00  0.00    +0.000 C 
ENDROOT
BRANCH   2  12
ATOM     12  C   UNL     1       3.254   4.119  19.139  0.00  0.00    +0.000 C 
BRANCH  12  13
ATOM     13  N   UNL     1       2.665   2.767  19.123  0.00  0.00    +0.000 NA
ATOM     14  C   UNL     1       1.187   2.828  19.004  0.00  0.00    +0.000 C 
ATOM     15  C   UNL     1       0.499   3.451  20.232  0.00  0.00    +0.000 C 
ATOM     16  O   UNL     1       0.849   2.749  21.435  0.00  0.00    +0.000 OA
ATOM     17  C   UNL     1       2.269   2.694  21.619  0.00  0.00    +0.000 C 
ATOM     18  C   UNL     1       2.977   2.079  20.398  0.00  0.00    +0.000 C 
ENDBRANCH  12  13
ENDBRANCH   2  12
BRANCH  10  19
ATOM     19  C   UNL     1       8.572   7.921  18.610  0.00  0.00    +0.000 C 
BRANCH  19  20
ATOM     20  C   UNL     1       8.443   9.403  18.230  0.00  0.00    +0.000 C 
BRANCH  20  21
ATOM     21  C   UNL     1       9.034  10.359  19.274  0.00  0.00    +0.000 C 
BRANCH  21  22
ATOM     22  C   UNL     1       9.543  11.615  18.602  0.00  0.00    +0.000 A 
ATOM     23  C   UNL     1      10.619  11.554  17.709  0.00  0.00    +0.000 A 
ATOM     24  C   UNL     1      11.135  12.719  17.138  0.00  0.00    +0.000 A 
ATOM     25  C   UNL     1      10.579  13.955  17.458  0.00  0.00    +0.000 A 
ATOM     26  C   UNL     1       9.504  14.027  18.344  0.00  0.00    +0.000 A 
ATOM     27  C   UNL     1       8.989  12.864  18.915  0.00  0.00    +0.000 A 
ENDBRANCH  21  22
ENDBRANCH  20  21
ENDBRANCH  19  20
ENDBRANCH  10  19
TORSDOF 6
ENDMDL
MODEL 6
REMARK VINA RESULT:      -7.5      1.021      1.358
REMARK  Name = 
REMARK  6 active torsions:
REMARK  status: ('A' for Active; 'I' for Inactive)
REMARK    1  A    between atoms: C_2  and  C_3
REMARK    2  A    between atoms: C_3  and  N_4
REMARK    3  A    between atoms: N_17  and  C_18
REMARK    4  A    between atoms: C_18  and  C_19
REMARK    5  A    between atoms: C_19  and  C_20
REMARK    6  A    between atoms: C_20  and  C_21
REMARK                            x       y       z     vdW  Elec       q    Type
REMARK                         _______ _______ _______ _____ _____    ______ ____
ROOT
ATOM      1  O   UNL     1       5.856   3.961  20.131  0.00  0.00    +0.000 OA
ATOM      2  C   UNL     1       5.144   4.248  19.162  0.00  0.00    +0.000 C 
ATOM      3  N   UNL     1       5.603   5.024  18.110  0.00  0.00    +0.000 N 
ATOM      4  C   UNL     1       4.752   5.514  17.015  0.00  0.00    +0.000 C 
ATOM      5  C   UNL     1       5.565   6.002  15.808  0.00  0.00    +0.000 C 
ATOM      6  C   UNL     1       6.613   4.957  15.397  0.00  0.00    +0.000 C 
ATOM      7  C   UNL     1       7.302   4.299  16.589  0.00  0.00    +0.000 C 
ATOM      8  C   UNL     1       7.055   5.078  17.884  0.00  0.00    +0.000 C 
ATOM      9  C   UNL     1       7.652   6.513  17.850  0.00  0.00    +0.000 C 
ATOM     10  N   UNL     1       6.749   7.586  17.409  0.00  0.00    +0.000 NA
ATOM     11  C   UNL     1       6.189   7.381  16.069  0.00  0.00    +0.000 C 
ENDROOT
BRANCH   2  12
ATOM     12  C   UNL     1       3.750   3.636  19.039  0.00  0.00    +0.000 C 
BRANCH  12  13
ATOM     13  N   UNL     1       2.675   4.558  19.449  0.00  0.00    +0.000 NA
ATOM     14  C   UNL     1       2.518   4.574  20.925  0.00  0.00    +0.000 C 
ATOM     15  C   UNL     1       2.017   3.238  21.503  0.00  0.00    +0.000 C 
ATOM     16  O   UNL     1       0.775   2.844  20.898  0.00  0.00    +0.000 OA
ATOM     17  C   UNL     1       0.883   2.775  19.471  0.00  0.00    +0.000 C 
ATOM     18  C   UNL     1       1.388   4.101  18.874  0.00  0.00    +0.000 C 
ENDBRANCH  12  13
ENDBRANCH   2  12
BRANCH  10  19
ATOM     19  C   UNL     1       7.368   8.907  17.575  0.00  0.00    +0.000 C 
BRANCH  19  20
ATOM     20  C   UNL     1       8.691   8.912  18.354  0.00  0.00    +0.000 C 
BRANCH  20  21
ATOM     21  C   UNL     1       8.787  10.032  19.398  0.00  0.00    +0.000 C 
BRANCH  21  22
ATOM     22  C   UNL     1       9.989  10.905  19.119  0.00  0.00    +0.000 A 
ATOM     23  C   UNL     1      10.824  11.318  20.165  0.00  0.00    +0.000 A 
ATOM     24  C   UNL     1      11.896  12.178  19.921  0.00  0.00    +0.000 A 
ATOM     25  C   UNL     1      12.141  12.635  18.628  0.00  0.00    +0.000 A 
ATOM     26  C   UNL     1      11.318  12.227  17.579  0.00  0.00    +0.000 A 
ATOM     27  C   UNL     1      10.247  11.368  17.821  0.00  0.00    +0.000 A 
ENDBRANCH  21  22
ENDBRANCH  20  21
ENDBRANCH  19  20
ENDBRANCH  10  19
TORSDOF 6
ENDMDL
MODEL 7
REMARK VINA RESULT:      -7.4      0.903      1.135
REMARK  Name = 
REMARK  6 active torsions:
REMARK  status: ('A' for Active; 'I' for Inactive)
REMARK    1  A    between atoms: C_2  and  C_3
REMARK    2  A    between atoms: C_3  and  N_4
REMARK    3  A    between atoms: N_17  and  C_18
REMARK    4  A    between atoms: C_18  and  C_19
REMARK    5  A    between atoms: C_19  and  C_20
REMARK    6  A    between atoms: C_20  and  C_21
REMARK                            x       y       z     vdW  Elec       q    Type
REMARK                         _______ _______ _______ _____ _____    ______ ____
ROOT
ATOM      1  O   UNL     1       5.272   2.822  19.400  0.00  0.00    +0.000 OA
ATOM      2  C   UNL     1       4.617   3.686  18.804  0.00  0.00    +0.000 C 
ATOM      3  N   UNL     1       5.217   4.663  18.026  0.00  0.00    +0.000 N 
ATOM      4  C   UNL     1       4.496   5.794  17.424  0.00  0.00    +0.000 C 
ATOM      5  C   UNL     1       5.301   6.485  16.315  0.00  0.00    +0.000 C 
ATOM      6  C   UNL     1       5.846   5.457  15.313  0.00  0.00    +0.000 C 
ATOM      7  C   UNL     1       6.366   4.187  15.981  0.00  0.00    +0.000 C 
ATOM      8  C   UNL     1       6.556   4.380  17.488  0.00  0.00    +0.000 C 
ATOM      9  C   UNL     1       7.630   5.451  17.831  0.00  0.00    +0.000 C 
ATOM     10  N   UNL     1       7.142   6.822  18.041  0.00  0.00    +0.000 NA
ATOM     11  C   UNL     1       6.410   7.377  16.896  0.00  0.00    +0.000 C 
ENDROOT
BRANCH   2  12
ATOM     12  C   UNL     1       3.092   3.620  18.812  0.00  0.00    +0.000 C 
BRANCH  12  13
ATOM     13  N   UNL     1       2.479   4.503  19.822  0.00  0.00    +0.000 NA
ATOM     14  C   UNL     1       2.921   4.138  21.191  0.00  0.00    +0.000 C 
ATOM     15  C   UNL     1       2.422   2.755  21.647  0.00  0.00    +0.000 C 
ATOM     16  O   UNL     1       0.991   2.667  21.572  0.00  0.00    +0.000 OA
ATOM     17  C   UNL     1       0.513   2.974  20.256  0.00  0.00    +0.000 C 
ATOM     18  C   UNL     1       1.006   4.353  19.779  0.00  0.00    +0.000 C 
ENDBRANCH  12  13
ENDBRANCH   2  12
BRANCH  10  19
ATOM     19  C   UNL     1       8.215   7.705  18.516  0.00  0.00    +0.000 C 
BRANCH  19  20
ATOM     20  C   UNL     1       8.156   9.144  17.984  0.00  0.00    +0.000 C 
BRANCH  20  21
ATOM     21  C   UNL     1       9.457   9.930  18.191  0.00  0.00    +0.000 C 
BRANCH  21  22
ATOM     22  C   UNL     1       9.150  11.332  18.666  0.00  0.00    +0.000 A 
ATOM     23  C   UNL     1       8.657  12.291  17.773  0.00  0.00    +0.000 A 
ATOM     24  C   UNL     1       8.436  13.604  18.191  0.00  0.00    +0.000 A 
ATOM     25  C   UNL     1       8.708  13.970  19.507  0.00  0.00    +0.000 A 
ATOM     26  C   UNL     1       9.195  13.022  20.406  0.00  0.00    +0.000 A 
ATOM     27  C   UNL     1       9.417  11.710  19.989  0.00  0.00    +0.000 A 
ENDBRANCH  21  22
ENDBRANCH  20  21
ENDBRANCH  19  20
ENDBRANCH  10  19
TORSDOF 6
ENDMDL
MODEL 8
REMARK VINA RESULT:      -7.2      3.421      6.821
REMARK  Name = 
REMARK  6 active torsions:
REMARK  status: ('A' for Active; 'I' for Inactive)
REMARK    1  A    between atoms: C_2  and  C_3
REMARK    2  A    between atoms: C_3  and  N_4
REMARK    3  A    between atoms: N_17  and  C_18
REMARK    4  A    between atoms: C_18  and  C_19
REMARK    5  A    between atoms: C_19  and  C_20
REMARK    6  A    between atoms: C_20  and  C_21
REMARK                            x       y       z     vdW  Elec       q    Type
REMARK                         _______ _______ _______ _____ _____    ______ ____
ROOT
ATOM      1  O   UNL     1       2.679   6.170  17.940  0.00  0.00    +0.000 OA
ATOM      2  C   UNL     1       3.574   5.540  18.516  0.00  0.00    +0.000 C 
ATOM      3  N   UNL     1       4.862   5.456  18.013  0.00  0.00    +0.000 N 
ATOM      4  C   UNL     1       5.914   4.601  18.581  0.00  0.00    +0.000 C 
ATOM      5  C   UNL     1       7.317   4.985  18.091  0.00  0.00    +0.000 C 
ATOM      6  C   UNL     1       7.555   6.494  18.245  0.00  0.00    +0.000 C 
ATOM      7  C   UNL     1       6.338   7.334  17.867  0.00  0.00    +0.000 C 
ATOM      8  C   UNL     1       5.305   6.513  17.091  0.00  0.00    +0.000 C 
ATOM      9  C   UNL     1       5.843   5.998  15.727  0.00  0.00    +0.000 C 
ATOM     10  N   UNL     1       6.440   4.654  15.725  0.00  0.00    +0.000 NA
ATOM     11  C   UNL     1       7.565   4.500  16.654  0.00  0.00    +0.000 C 
ENDROOT
BRANCH   2  12
ATOM     12  C   UNL     1       3.306   4.931  19.891  0.00  0.00    +0.000 C 
BRANCH  12  13
ATOM     13  N   UNL     1       3.380   3.459  19.896  0.00  0.00    +0.000 NA
ATOM     14  C   UNL     1       2.554   2.877  18.809  0.00  0.00    +0.000 C 
ATOM     15  C   UNL     1       1.045   3.112  18.994  0.00  0.00    +0.000 C 
ATOM     16  O   UNL     1       0.591   2.602  20.258  0.00  0.00    +0.000 OA
ATOM     17  C   UNL     1       1.332   3.163  21.348  0.00  0.00    +0.000 C 
ATOM     18  C   UNL     1       2.847   2.943  21.179  0.00  0.00    +0.000 C 
ENDBRANCH  12  13
ENDBRANCH   2  12
BRANCH  10  19
ATOM     19  C   UNL     1       6.760   4.213  14.361  0.00  0.00    +0.000 C 
BRANCH  19  20
ATOM     20  C   UNL     1       7.346   5.299  13.448  0.00  0.00    +0.000 C 
BRANCH  20  21
ATOM     21  C   UNL     1       7.641   4.812  12.023  0.00  0.00    +0.000 C 
BRANCH  21  22
ATOM     22  C   UNL     1       6.871   3.542  11.735  0.00  0.00    +0.000 A 
ATOM     23  C   UNL     1       7.542   2.386  11.319  0.00  0.00    +0.000 A 
ATOM     24  C   UNL     1       6.830   1.232  10.988  0.00  0.00    +0.000 A 
ATOM     25  C   UNL     1       5.439   1.226  11.068  0.00  0.00    +0.000 A 
ATOM     26  C   UNL     1       4.762   2.371  11.485  0.00  0.00    +0.000 A 
ATOM     27  C   UNL     1       5.472   3.524  11.815  0.00  0.00    +0.000 A 
ENDBRANCH  21  22
ENDBRANCH  20  21
ENDBRANCH  19  20
ENDBRANCH  10  19
TORSDOF 6
ENDMDL
MODEL 9
REMARK VINA RESULT:      -7.1      1.252      1.782
REMARK  Name = 
REMARK  6 active torsions:
REMARK  status: ('A' for Active; 'I' for Inactive)
REMARK    1  A    between atoms: C_2  and  C_3
REMARK    2  A    between atoms: C_3  and  N_4
REMARK    3  A    between atoms: N_17  and  C_18
REMARK    4  A    between atoms: C_18  and  C_19
REMARK    5  A    between atoms: C_19  and  C_20
REMARK    6  A    between atoms: C_20  and  C_21
REMARK                            x       y       z     vdW  Elec       q    Type
REMARK                         _______ _______ _______ _____ _____    ______ ____
ROOT
ATOM      1  O   UNL     1       5.471   3.118  19.628  0.00  0.00    +0.000 OA
ATOM      2  C   UNL     1       4.756   4.059  19.263  0.00  0.00    +0.000 C 
ATOM      3  N   UNL     1       5.202   5.028  18.379  0.00  0.00    +0.000 N 
ATOM      4  C   UNL     1       4.446   6.240  18.034  0.00  0.00    +0.000 C 
ATOM      5  C   UNL     1       4.974   6.926  16.767  0.00  0.00    +0.000 C 
ATOM      6  C   UNL     1       5.133   5.914  15.623  0.00  0.00    +0.000 C 
ATOM      7  C   UNL     1       5.704   4.576  16.083  0.00  0.00    +0.000 C 
ATOM      8  C   UNL     1       6.314   4.674  17.484  0.00  0.00    +0.000 C 
ATOM      9  C   UNL     1       7.529   5.642  17.547  0.00  0.00    +0.000 C 
ATOM     10  N   UNL     1       7.238   7.033  17.925  0.00  0.00    +0.000 NA
ATOM     11  C   UNL     1       6.272   7.700  17.044  0.00  0.00    +0.000 C 
ENDROOT
BRANCH   2  12
ATOM     12  C   UNL     1       3.291   4.107  19.691  0.00  0.00    +0.000 C 
BRANCH  12  13
ATOM     13  N   UNL     1       2.360   4.226  18.554  0.00  0.00    +0.000 NA
ATOM     14  C   UNL     1       0.948   4.201  19.012  0.00  0.00    +0.000 C 
ATOM     15  C   UNL     1       0.525   2.851  19.619  0.00  0.00    +0.000 C 
ATOM     16  O   UNL     1       0.742   1.775  18.693  0.00  0.00    +0.000 OA
ATOM     17  C   UNL     1       2.103   1.730  18.247  0.00  0.00    +0.000 C 
ATOM     18  C   UNL     1       2.547   3.074  17.641  0.00  0.00    +0.000 C 
ENDBRANCH  12  13
ENDBRANCH   2  12
BRANCH  10  19
ATOM     19  C   UNL     1       8.472   7.806  18.111  0.00  0.00    +0.000 C 
BRANCH  19  20
ATOM     20  C   UNL     1       8.278   9.201  18.724  0.00  0.00    +0.000 C 
BRANCH  20  21
ATOM     21  C   UNL     1       8.800  10.340  17.839  0.00  0.00    +0.000 C 
BRANCH  21  22
ATOM     22  C   UNL     1       9.927  11.069  18.535  0.00  0.00    +0.000 A 
ATOM     23  C   UNL     1       9.915  11.229  19.926  0.00  0.00    +0.000 A 
ATOM     24  C   UNL     1      10.918  11.958  20.566  0.00  0.00    +0.000 A 
ATOM     25  C   UNL     1      11.943  12.535  19.819  0.00  0.00    +0.000 A 
ATOM     26  C   UNL     1      11.967  12.378  18.434  0.00  0.00    +0.000 A 
ATOM     27  C   UNL     1      10.965  11.650  17.794  0.00  0.00    +0.000 A 
ENDBRANCH  21  22
ENDBRANCH  20  21
ENDBRANCH  19  20
ENDBRANCH  10  19
TORSDOF 6
ENDMDL
