MODEL 1
REMARK VINA RESULT:      -5.7      0.000      0.000
REMARK  Name = 
REMARK  4 active torsions:
REMARK  status: ('A' for Active; 'I' for Inactive)
REMARK    1  A    between atoms: C_1  and  N_2
REMARK    2  A    between atoms: N_5  and  C_6
REMARK    3  A    between atoms: C_6  and  C_7
REMARK    4  A    between atoms: C_7  and  C_9
REMARK                            x       y       z     vdW  Elec       q    Type
REMARK                         _______ _______ _______ _____ _____    ______ ____
ROOT
ATOM      1  C   UNL     1       5.100   4.594  19.126  0.00  0.00    +0.000 C 
ENDROOT
BRANCH   1   6
ATOM      2  C   UNL     1       5.960   4.046  14.319  0.00  0.00    +0.000 C 
ATOM      3  N   UNL     1       6.227   4.222  15.742  0.00  0.00    +0.000 N 
ATOM      4  C   UNL     1       7.440   4.508  16.329  0.00  0.00    +0.000 A 
ATOM      5  C   UNL     1       7.201   4.667  17.665  0.00  0.00    +0.000 A 
ATOM      6  N   UNL     1       5.844   4.471  17.857  0.00  0.00    +0.000 N 
ATOM      7  C   UNL     1       5.263   4.197  16.675  0.00  0.00    +0.000 A 
ENDBRANCH   1   6
BRANCH   1   8
ATOM      8  C   UNL     1       4.484   3.265  19.604  0.00  0.00    +0.000 C 
ATOM      9  O   UNL     1       5.194   2.361  20.049  0.00  0.00    +0.000 OA
BRANCH   8  10
ATOM     10  C   UNL     1       3.026   3.129  19.535  0.00  0.00    +0.000 A 
ATOM     11  C   UNL     1       2.296   2.539  18.517  0.00  0.00    +0.000 A 
ATOM     12  C   UNL     1       0.896   2.506  18.788  0.00  0.00    +0.000 A 
ATOM     13  C   UNL     1       0.595   3.089  19.998  0.00  0.00    +0.000 A 
ATOM     14  S   UNL     1       1.989   3.686  20.781  0.00  0.00    +0.000 S 
ENDBRANCH   8  10
ENDBRANCH   1   8
TORSDOF 3
ENDMDL
MODEL 2
REMARK VINA RESULT:      -5.7      1.820      2.090
REMARK  Name = 
REMARK  4 active torsions:
REMARK  status: ('A' for Active; 'I' for Inactive)
REMARK    1  A    between atoms: C_1  and  N_2
REMARK    2  A    between atoms: N_5  and  C_6
REMARK    3  A    between atoms: C_6  and  C_7
REMARK    4  A    between atoms: C_7  and  C_9
REMARK                            x       y       z     vdW  Elec       q    Type
REMARK                         _______ _______ _______ _____ _____    ______ ____
ROOT
ATOM      1  C   UNL     1       3.455   5.204  17.692  0.00  0.00    +0.000 C 
ENDROOT
BRANCH   1   6
ATOM      2  C   UNL     1       7.138   4.777  14.467  0.00  0.00    +0.000 C 
ATOM      3  N   UNL     1       6.428   4.743  15.741  0.00  0.00    +0.000 N 
ATOM      4  C   UNL     1       6.977   4.565  16.992  0.00  0.00    +0.000 A 
ATOM      5  C   UNL     1       5.955   4.690  17.890  0.00  0.00    +0.000 A 
ATOM      6  N   UNL     1       4.806   4.940  17.160  0.00  0.00    +0.000 N 
ATOM      7  C   UNL     1       5.110   4.967  15.849  0.00  0.00    +0.000 A 
ENDBRANCH   1   6
BRANCH   1   8
ATOM      8  C   UNL     1       2.622   3.925  17.905  0.00  0.00    +0.000 C 
ATOM      9  O   UNL     1       2.191   3.282  16.946  0.00  0.00    +0.000 OA
BRANCH   8  10
ATOM     10  C   UNL     1       2.387   3.490  19.285  0.00  0.00    +0.000 A 
ATOM     11  C   UNL     1       1.205   3.598  19.998  0.00  0.00    +0.000 A 
ATOM     12  C   UNL     1       1.287   3.014  21.296  0.00  0.00    +0.000 A 
ATOM     13  C   UNL     1       2.537   2.491  21.544  0.00  0.00    +0.000 A 
ATOM     14  S   UNL     1       3.598   2.728  20.229  0.00  0.00    +0.000 S 
ENDBRANCH   8  10
ENDBRANCH   1   8
TORSDOF 3
ENDMDL
MODEL 3
REMARK VINA RESULT:      -5.6      2.241      2.890
REMARK  Name = 
REMARK  4 active torsions:
REMARK  status: ('A' for Active; 'I' for Inactive)
REMARK    1  A    between atoms: C_1  and  N_2
REMARK    2  A    between atoms: N_5  and  C_6
REMARK    3  A    between atoms: C_6  and  C_7
REMARK    4  A    between atoms: C_7  and  C_9
REMARK                            x       y       z     vdW  Elec       q    Type
REMARK                         _______ _______ _______ _____ _____    ______ ____
ROOT
ATOM      1  C   UNL     1       2.564   5.734  17.967  0.00  0.00    +0.000 C 
ENDROOT
BRANCH   1   6
ATOM      2  C   UNL     1       7.348   6.623  17.282  0.00  0.00    +0.000 C 
ATOM      3  N   UNL     1       6.050   5.966  17.162  0.00  0.00    +0.000 N 
ATOM      4  C   UNL     1       5.788   4.749  16.575  0.00  0.00    +0.000 A 
ATOM      5  C   UNL     1       4.459   4.498  16.770  0.00  0.00    +0.000 A 
ATOM      6  N   UNL     1       3.945   5.574  17.473  0.00  0.00    +0.000 N 
ATOM      7  C   UNL     1       4.928   6.464  17.703  0.00  0.00    +0.000 A 
ENDBRANCH   1   6
BRANCH   1   8
ATOM      8  C   UNL     1       1.831   4.394  18.177  0.00  0.00    +0.000 C 
ATOM      9  O   UNL     1       1.185   3.875  17.264  0.00  0.00    +0.000 OA
BRANCH   8  10
ATOM     10  C   UNL     1       1.954   3.752  19.489  0.00  0.00    +0.000 A 
ATOM     11  C   UNL     1       0.962   3.632  20.448  0.00  0.00    +0.000 A 
ATOM     12  C   UNL     1       1.385   2.888  21.590  0.00  0.00    +0.000 A 
ATOM     13  C   UNL     1       2.694   2.478  21.477  0.00  0.00    +0.000 A 
ATOM     14  S   UNL     1       3.404   3.007  20.018  0.00  0.00    +0.000 S 
ENDBRANCH   8  10
ENDBRANCH   1   8
TORSDOF 3
ENDMDL
MODEL 4
REMARK VINA RESULT:      -5.5      2.255      2.929
REMARK  Name = 
REMARK  4 active torsions:
REMARK  status: ('A' for Active; 'I' for Inactive)
REMARK    1  A    between atoms: C_1  and  N_2
REMARK    2  A    between atoms: N_5  and  C_6
REMARK    3  A    between atoms: C_6  and  C_7
REMARK    4  A    between atoms: C_7  and  C_9
REMARK                            x       y       z     vdW  Elec       q    Type
REMARK                         _______ _______ _______ _____ _____    ______ ____
ROOT
ATOM      1  C   UNL     1       3.812   3.564  17.192  0.00  0.00    +0.000 C 
ENDROOT
BRANCH   1   6
ATOM      2  C   UNL     1       7.693   6.207  18.642  0.00  0.00    +0.000 C 
ATOM      3  N   UNL     1       6.399   5.896  18.044  0.00  0.00    +0.000 N 
ATOM      4  C   UNL     1       5.622   6.729  17.270  0.00  0.00    +0.000 A 
ATOM      5  C   UNL     1       4.546   5.994  16.861  0.00  0.00    +0.000 A 
ATOM      6  N   UNL     1       4.696   4.728  17.400  0.00  0.00    +0.000 N 
ATOM      7  C   UNL     1       5.830   4.684  18.122  0.00  0.00    +0.000 A 
ENDBRANCH   1   6
BRANCH   1   8
ATOM      8  C   UNL     1       2.419   3.733  17.829  0.00  0.00    +0.000 C 
ATOM      9  O   UNL     1       1.456   4.105  17.155  0.00  0.00    +0.000 OA
BRANCH   8  10
ATOM     10  C   UNL     1       2.279   3.409  19.251  0.00  0.00    +0.000 A 
ATOM     11  C   UNL     1       1.173   3.647  20.050  0.00  0.00    +0.000 A 
ATOM     12  C   UNL     1       1.331   3.147  21.376  0.00  0.00    +0.000 A 
ATOM     13  C   UNL     1       2.562   2.558  21.558  0.00  0.00    +0.000 A 
ATOM     14  S   UNL     1       3.517   2.631  20.145  0.00  0.00    +0.000 S 
ENDBRANCH   8  10
ENDBRANCH   1   8
TORSDOF 3
ENDMDL
MODEL 5
REMARK VINA RESULT:      -5.5      1.154      1.375
REMARK  Name = 
REMARK  4 active torsions:
REMARK  status: ('A' for Active; 'I' for Inactive)
REMARK    1  A    between atoms: C_1  and  N_2
REMARK    2  A    between atoms: N_5  and  C_6
REMARK    3  A    between atoms: C_6  and  C_7
REMARK    4  A    between atoms: C_7  and  C_9
REMARK                            x       y       z     vdW  Elec       q    Type
REMARK                         _______ _______ _______ _____ _____    ______ ____
ROOT
ATOM      1  C   UNL     1       4.770   5.337  18.237  0.00  0.00    +0.000 C 
ENDROOT
BRANCH   1   6
ATOM      2  C   UNL     1       5.965   3.823  13.717  0.00  0.00    +0.000 C 
ATOM      3  N   UNL     1       6.123   4.374  15.059  0.00  0.00    +0.000 N 
ATOM      4  C   UNL     1       7.239   4.994  15.574  0.00  0.00    +0.000 A 
ATOM      5  C   UNL     1       6.906   5.421  16.828  0.00  0.00    +0.000 A 
ATOM      6  N   UNL     1       5.591   5.047  17.045  0.00  0.00    +0.000 N 
ATOM      7  C   UNL     1       5.127   4.406  15.957  0.00  0.00    +0.000 A 
ENDBRANCH   1   6
BRANCH   1   8
ATOM      8  C   UNL     1       4.502   4.097  19.111  0.00  0.00    +0.000 C 
ATOM      9  O   UNL     1       5.432   3.404  19.530  0.00  0.00    +0.000 OA
BRANCH   8  10
ATOM     10  C   UNL     1       3.109   3.790  19.445  0.00  0.00    +0.000 A 
ATOM     11  C   UNL     1       2.271   4.529  20.264  0.00  0.00    +0.000 A 
ATOM     12  C   UNL     1       0.949   3.996  20.327  0.00  0.00    +0.000 A 
ATOM     13  C   UNL     1       0.821   2.854  19.569  0.00  0.00    +0.000 A 
ATOM     14  S   UNL     1       2.288   2.425  18.811  0.00  0.00    +0.000 S 
ENDBRANCH   8  10
ENDBRANCH   1   8
TORSDOF 3
ENDMDL
MODEL 6
REMARK VINA RESULT:      -5.5      1.289      1.641
REMARK  Name = 
REMARK  4 active torsions:
REMARK  status: ('A' for Active; 'I' for Inactive)
REMARK    1  A    between atoms: C_1  and  N_2
REMARK    2  A    between atoms: N_5  and  C_6
REMARK    3  A    between atoms: C_6  and  C_7
REMARK    4  A    between atoms: C_7  and  C_9
REMARK                            x       y       z     vdW  Elec       q    Type
REMARK                         _______ _______ _______ _____ _____    ______ ____
ROOT
ATOM      1  C   UNL     1       4.947   4.985  19.248  0.00  0.00    +0.000 C 
ENDROOT
BRANCH   1   6
ATOM      2  C   UNL     1       6.390   4.268  14.605  0.00  0.00    +0.000 C 
ATOM      3  N   UNL     1       5.825   4.939  15.772  0.00  0.00    +0.000 N 
ATOM      4  C   UNL     1       5.129   6.127  15.789  0.00  0.00    +0.000 A 
ATOM      5  C   UNL     1       4.722   6.324  17.078  0.00  0.00    +0.000 A 
ATOM      6  N   UNL     1       5.184   5.247  17.816  0.00  0.00    +0.000 N 
ATOM      7  C   UNL     1       5.859   4.411  17.005  0.00  0.00    +0.000 A 
ENDBRANCH   1   6
BRANCH   1   8
ATOM      8  C   UNL     1       4.457   3.552  19.534  0.00  0.00    +0.000 C 
ATOM      9  O   UNL     1       5.249   2.663  19.851  0.00  0.00    +0.000 OA
BRANCH   8  10
ATOM     10  C   UNL     1       3.017   3.296  19.441  0.00  0.00    +0.000 A 
ATOM     11  C   UNL     1       2.034   3.772  20.294  0.00  0.00    +0.000 A 
ATOM     12  C   UNL     1       0.720   3.397  19.885  0.00  0.00    +0.000 A 
ATOM     13  C   UNL     1       0.738   2.630  18.742  0.00  0.00    +0.000 A 
ATOM     14  S   UNL     1       2.328   2.351  18.188  0.00  0.00    +0.000 S 
ENDBRANCH   8  10
ENDBRANCH   1   8
TORSDOF 3
ENDMDL
MODEL 7
REMARK VINA RESULT:      -5.4      1.648      1.842
REMARK  Name = 
REMARK  4 active torsions:
REMARK  status: ('A' for Active; 'I' for Inactive)
REMARK    1  A    between atoms: C_1  and  N_2
REMARK    2  A    between atoms: N_5  and  C_6
REMARK    3  A    between atoms: C_6  and  C_7
REMARK    4  A    between atoms: C_7  and  C_9
REMARK                            x       y       z     vdW  Elec       q    Type
REMARK                         _______ _______ _______ _____ _____    ______ ____
ROOT
ATOM      1  C   UNL     1       5.303   4.286  18.571  0.00  0.00    +0.000 C 
ENDROOT
BRANCH   1   6
ATOM      2  C   UNL     1       5.918   3.842  13.716  0.00  0.00    +0.000 C 
ATOM      3  N   UNL     1       6.216   4.171  15.106  0.00  0.00    +0.000 N 
ATOM      4  C   UNL     1       7.289   4.897  15.574  0.00  0.00    +0.000 A 
ATOM      5  C   UNL     1       7.116   5.026  16.923  0.00  0.00    +0.000 A 
ATOM      6  N   UNL     1       5.938   4.373  17.242  0.00  0.00    +0.000 N 
ATOM      7  C   UNL     1       5.401   3.853  16.123  0.00  0.00    +0.000 A 
ENDBRANCH   1   6
BRANCH   1   8
ATOM      8  C   UNL     1       3.966   5.049  18.660  0.00  0.00    +0.000 C 
ATOM      9  O   UNL     1       3.898   6.243  18.362  0.00  0.00    +0.000 OA
BRANCH   8  10
ATOM     10  C   UNL     1       2.782   4.297  19.083  0.00  0.00    +0.000 A 
ATOM     11  C   UNL     1       1.959   4.584  20.160  0.00  0.00    +0.000 A 
ATOM     12  C   UNL     1       0.848   3.695  20.259  0.00  0.00    +0.000 A 
ATOM     13  C   UNL     1       0.865   2.743  19.265  0.00  0.00    +0.000 A 
ATOM     14  S   UNL     1       2.220   2.913  18.242  0.00  0.00    +0.000 S 
ENDBRANCH   8  10
ENDBRANCH   1   8
TORSDOF 3
ENDMDL
MODEL 8
REMARK VINA RESULT:      -5.4      1.504      1.742
REMARK  Name = 
REMARK  4 active torsions:
REMARK  status: ('A' for Active; 'I' for Inactive)
REMARK    1  A    between atoms: C_1  and  N_2
REMARK    2  A    between atoms: N_5  and  C_6
REMARK    3  A    between atoms: C_6  and  C_7
REMARK    4  A    between atoms: C_7  and  C_9
REMARK                            x       y       z     vdW  Elec       q    Type
REMARK                         _______ _______ _______ _____ _____    ______ ____
ROOT
ATOM      1  C   UNL     1       4.163   3.123  17.424  0.00  0.00    +0.000 C 
ENDROOT
BRANCH   1   6
ATOM      2  C   UNL     1       7.167   4.944  13.988  0.00  0.00    +0.000 C 
ATOM      3  N   UNL     1       6.217   4.915  15.095  0.00  0.00    +0.000 N 
ATOM      4  C   UNL     1       5.543   5.987  15.637  0.00  0.00    +0.000 A 
ATOM      5  C   UNL     1       4.703   5.481  16.588  0.00  0.00    +0.000 A 
ATOM      6  N   UNL     1       4.889   4.110  16.601  0.00  0.00    +0.000 N 
ATOM      7  C   UNL     1       5.818   3.779  15.686  0.00  0.00    +0.000 A 
ENDBRANCH   1   6
BRANCH   1   8
ATOM      8  C   UNL     1       4.298   3.372  18.938  0.00  0.00    +0.000 C 
ATOM      9  O   UNL     1       5.404   3.545  19.455  0.00  0.00    +0.000 OA
BRANCH   8  10
ATOM     10  C   UNL     1       3.067   3.423  19.731  0.00  0.00    +0.000 A 
ATOM     11  C   UNL     1       1.907   4.113  19.417  0.00  0.00    +0.000 A 
ATOM     12  C   UNL     1       0.863   3.899  20.365  0.00  0.00    +0.000 A 
ATOM     13  C   UNL     1       1.262   3.067  21.387  0.00  0.00    +0.000 A 
ATOM     14  S   UNL     1       2.885   2.572  21.208  0.00  0.00    +0.000 S 
ENDBRANCH   8  10
ENDBRANCH   1   8
TORSDOF 3
ENDMDL
MODEL 9
REMARK VINA RESULT:      -5.4      1.528      2.418
REMARK  Name = 
REMARK  4 active torsions:
REMARK  status: ('A' for Active; 'I' for Inactive)
REMARK    1  A    between atoms: C_1  and  N_2
REMARK    2  A    between atoms: N_5  and  C_6
REMARK    3  A    between atoms: C_6  and  C_7
REMARK    4  A    between atoms: C_7  and  C_9
REMARK                            x       y       z     vdW  Elec       q    Type
REMARK                         _______ _______ _______ _____ _____    ______ ____
ROOT
ATOM      1  C   UNL     1       3.547   3.670  17.191  0.00  0.00    +0.000 C 
ENDROOT
BRANCH   1   6
ATOM      2  C   UNL     1       7.677   5.783  18.812  0.00  0.00    +0.000 C 
ATOM      3  N   UNL     1       6.742   5.136  17.898  0.00  0.00    +0.000 N 
ATOM      4  C   UNL     1       7.016   4.652  16.638  0.00  0.00    +0.000 A 
ATOM      5  C   UNL     1       5.870   4.059  16.189  0.00  0.00    +0.000 A 
ATOM      6  N   UNL     1       4.925   4.199  17.190  0.00  0.00    +0.000 N 
ATOM      7  C   UNL     1       5.470   4.861  18.226  0.00  0.00    +0.000 A 
ENDBRANCH   1   6
BRANCH   1   8
ATOM      8  C   UNL     1       3.371   2.426  18.085  0.00  0.00    +0.000 C 
ATOM      9  O   UNL     1       3.810   1.329  17.736  0.00  0.00    +0.000 OA
BRANCH   8  10
ATOM     10  C   UNL     1       2.689   2.605  19.369  0.00  0.00    +0.000 A 
ATOM     11  C   UNL     1       3.284   2.705  20.617  0.00  0.00    +0.000 A 
ATOM     12  C   UNL     1       2.342   2.945  21.660  0.00  0.00    +0.000 A 
ATOM     13  C   UNL     1       1.052   3.003  21.183  0.00  0.00    +0.000 A 
ATOM     14  S   UNL     1       0.986   2.748  19.497  0.00  0.00    +0.000 S 
ENDBRANCH   8  10
ENDBRANCH   1   8
TORSDOF 3
ENDMDL
