MODEL 1
REMARK VINA RESULT:      -6.8      0.000      0.000
REMARK  Name = 
REMARK  18 active torsions:
REMARK  status: ('A' for Active; 'I' for Inactive)
REMARK    1  A    between atoms: C_1  and  N_2
REMARK    2  A    between atoms: N_2  and  C_3
REMARK    3  A    between atoms: C_3  and  C_4
REMARK    4  A    between atoms: C_4  and  C_5
REMARK    5  A    between atoms: C_5  and  C_6
REMARK    6  A    between atoms: C_6  and  C_7
REMARK    7  A    between atoms: C_7  and  C_8
REMARK    8  A    between atoms: C_8  and  O_9
REMARK    9  A    between atoms: O_9  and  C_10
REMARK   10  A    between atoms: C_13  and  C_14
REMARK   11  A    between atoms: C_14  and  C_15
REMARK   12  A    between atoms: C_15  and  C_16
REMARK   13  A    between atoms: C_15  and  N_17
REMARK   14  A    between atoms: N_17  and  C_18
REMARK   15  A    between atoms: C_18  and  C_19
REMARK   16  A    between atoms: C_19  and  O_20
REMARK   17  A    between atoms: C_19  and  C_21
REMARK   18  A    between atoms: C_25  and  C_26
REMARK                            x       y       z     vdW  Elec       q    Type
REMARK                         _______ _______ _______ _____ _____    ______ ____
ROOT
ATOM      1  C   UNL     1       2.722   2.015  19.326  0.00  0.00    +0.000 C 
ATOM      2  C   UNL     1       3.023   1.855  17.814  0.00  0.00    +0.000 C 
ENDROOT
BRANCH   1   3
ATOM      3  N   UNL     1       3.866   2.674  19.992  0.00  0.00    +0.000 NA
ATOM      4  H   UNL     1       4.291   2.000  20.668  0.00  0.00    +0.000 HD
BRANCH   3   5
ATOM      5  C   UNL     1       4.893   3.089  19.022  0.00  0.00    +0.000 C 
BRANCH   5   6
ATOM      6  C   UNL     1       5.252   4.565  19.172  0.00  0.00    +0.000 C 
BRANCH   6   7
ATOM      7  C   UNL     1       5.284   5.219  17.804  0.00  0.00    +0.000 A 
ATOM      8  C   UNL     1       5.063   6.601  17.640  0.00  0.00    +0.000 A 
ATOM      9  C   UNL     1       5.111   7.172  16.367  0.00  0.00    +0.000 A 
ATOM     10  C   UNL     1       5.369   6.376  15.255  0.00  0.00    +0.000 A 
ATOM     11  C   UNL     1       5.600   5.000  15.391  0.00  0.00    +0.000 A 
ATOM     12  C   UNL     1       5.561   4.427  16.678  0.00  0.00    +0.000 A 
BRANCH  11  13
ATOM     13  C   UNL     1       5.878   4.155  14.171  0.00  0.00    +0.000 C 
ATOM     14  F   UNL     1       6.254   2.875  14.542  0.00  0.00    +0.000 F 
ATOM     15  F   UNL     1       4.742   4.067  13.392  0.00  0.00    +0.000 F 
ATOM     16  F   UNL     1       6.902   4.703  13.421  0.00  0.00    +0.000 F 
ENDBRANCH  11  13
ENDBRANCH   6   7
BRANCH   6  17
ATOM     17  O   UNL     1       6.468   4.755  19.860  0.00  0.00    +0.000 OA
ATOM     18  H   UNL     1       7.203   4.325  19.349  0.00  0.00    +0.000 HD
ENDBRANCH   6  17
ENDBRANCH   5   6
ENDBRANCH   3   5
ENDBRANCH   1   3
BRANCH   1  19
ATOM     19  C   UNL     1       1.424   2.838  19.519  0.00  0.00    +0.000 C 
BRANCH  19  23
ATOM     20  C   UNL     1       2.009   7.099  19.239  0.00  0.00    +0.000 A 
ATOM     21  C   UNL     1       1.960   6.468  20.483  0.00  0.00    +0.000 A 
ATOM     22  C   UNL     1       1.768   5.096  20.586  0.00  0.00    +0.000 A 
ATOM     23  C   UNL     1       1.624   4.325  19.410  0.00  0.00    +0.000 A 
ATOM     24  C   UNL     1       1.674   4.950  18.170  0.00  0.00    +0.000 A 
ATOM     25  C   UNL     1       1.869   6.329  18.068  0.00  0.00    +0.000 A 
BRANCH  20  26
ATOM     26  O   UNL     1       2.180   8.438  19.125  0.00  0.00    +0.000 OA
BRANCH  26  27
ATOM     27  C   UNL     1       1.139   9.271  18.732  0.00  0.00    +0.000 C 
BRANCH  27  28
ATOM     28  C   UNL     1       0.474   9.874  19.933  0.00  0.00    +0.000 C 
BRANCH  28  29
ATOM     29  C   UNL     1      -0.930  10.329  19.532  0.00  0.00    +0.000 C 
BRANCH  29  30
ATOM     30  C   UNL     1      -0.923  10.679  18.062  0.00  0.00    +0.000 C 
BRANCH  30  31
ATOM     31  C   UNL     1      -2.026  11.671  17.715  0.00  0.00    +0.000 C 
BRANCH  31  32
ATOM     32  C   UNL     1      -3.130  10.914  16.986  0.00  0.00    +0.000 C 
BRANCH  32  34
ATOM     33  C   UNL     1      -3.028  10.141  14.728  0.00  0.00    +0.000 C 
ATOM     34  N   UNL     1      -2.567   9.901  16.096  0.00  0.00    +0.000 NA
ATOM     35  H   UNL     1      -1.522   9.978  16.108  0.00  0.00    +0.000 HD
ENDBRANCH  32  34
ENDBRANCH  31  32
ENDBRANCH  30  31
ENDBRANCH  29  30
ENDBRANCH  28  29
ENDBRANCH  27  28
ENDBRANCH  26  27
ENDBRANCH  20  26
ENDBRANCH  19  23
ENDBRANCH   1  19
TORSDOF 16
ENDMDL
MODEL 2
REMARK VINA RESULT:      -6.6      3.179      4.013
REMARK  Name = 
REMARK  18 active torsions:
REMARK  status: ('A' for Active; 'I' for Inactive)
REMARK    1  A    between atoms: C_1  and  N_2
REMARK    2  A    between atoms: N_2  and  C_3
REMARK    3  A    between atoms: C_3  and  C_4
REMARK    4  A    between atoms: C_4  and  C_5
REMARK    5  A    between atoms: C_5  and  C_6
REMARK    6  A    between atoms: C_6  and  C_7
REMARK    7  A    between atoms: C_7  and  C_8
REMARK    8  A    between atoms: C_8  and  O_9
REMARK    9  A    between atoms: O_9  and  C_10
REMARK   10  A    between atoms: C_13  and  C_14
REMARK   11  A    between atoms: C_14  and  C_15
REMARK   12  A    between atoms: C_15  and  C_16
REMARK   13  A    between atoms: C_15  and  N_17
REMARK   14  A    between atoms: N_17  and  C_18
REMARK   15  A    between atoms: C_18  and  C_19
REMARK   16  A    between atoms: C_19  and  O_20
REMARK   17  A    between atoms: C_19  and  C_21
REMARK   18  A    between atoms: C_25  and  C_26
REMARK                            x       y       z     vdW  Elec       q    Type
REMARK                         _______ _______ _______ _____ _____    ______ ____
ROOT
ATOM      1  C   UNL     1       1.841   5.030  18.835  0.00  0.00    +0.000 C 
ATOM      2  C   UNL     1       1.577   4.331  17.477  0.00  0.00    +0.000 C 
ENDROOT
BRANCH   1   3
ATOM      3  N   UNL     1       2.497   4.082  19.761  0.00  0.00    +0.000 NA
ATOM      4  H   UNL     1       2.525   3.141  19.308  0.00  0.00    +0.000 HD
BRANCH   3   5
ATOM      5  C   UNL     1       3.872   4.499  20.082  0.00  0.00    +0.000 C 
BRANCH   5   6
ATOM      6  C   UNL     1       4.909   3.602  19.410  0.00  0.00    +0.000 C 
BRANCH   6   7
ATOM      7  C   UNL     1       5.746   4.426  18.452  0.00  0.00    +0.000 A 
ATOM      8  C   UNL     1       6.617   5.434  18.910  0.00  0.00    +0.000 A 
ATOM      9  C   UNL     1       7.382   6.167  18.001  0.00  0.00    +0.000 A 
ATOM     10  C   UNL     1       7.279   5.910  16.637  0.00  0.00    +0.000 A 
ATOM     11  C   UNL     1       6.425   4.908  16.154  0.00  0.00    +0.000 A 
ATOM     12  C   UNL     1       5.662   4.163  17.075  0.00  0.00    +0.000 A 
BRANCH  11  13
ATOM     13  C   UNL     1       6.330   4.645  14.671  0.00  0.00    +0.000 C 
ATOM     14  F   UNL     1       5.129   5.119  14.170  0.00  0.00    +0.000 F 
ATOM     15  F   UNL     1       7.360   5.287  14.013  0.00  0.00    +0.000 F 
ATOM     16  F   UNL     1       6.400   3.289  14.410  0.00  0.00    +0.000 F 
ENDBRANCH  11  13
ENDBRANCH   6   7
BRANCH   6  17
ATOM     17  O   UNL     1       4.321   2.499  18.758  0.00  0.00    +0.000 OA
ATOM     18  H   UNL     1       5.004   2.052  18.191  0.00  0.00    +0.000 HD
ENDBRANCH   6  17
ENDBRANCH   5   6
ENDBRANCH   3   5
ENDBRANCH   1   3
BRANCH   1  19
ATOM     19  C   UNL     1       2.721   6.286  18.617  0.00  0.00    +0.000 C 
BRANCH  19  23
ATOM     20  C   UNL     1       0.903   9.946  19.985  0.00  0.00    +0.000 A 
ATOM     21  C   UNL     1       1.123   8.887  20.868  0.00  0.00    +0.000 A 
ATOM     22  C   UNL     1       1.705   7.701  20.439  0.00  0.00    +0.000 A 
ATOM     23  C   UNL     1       2.084   7.566  19.084  0.00  0.00    +0.000 A 
ATOM     24  C   UNL     1       1.868   8.619  18.202  0.00  0.00    +0.000 A 
ATOM     25  C   UNL     1       1.286   9.811  18.637  0.00  0.00    +0.000 A 
BRANCH  20  26
ATOM     26  O   UNL     1       0.323  11.101  20.389  0.00  0.00    +0.000 OA
BRANCH  26  27
ATOM     27  C   UNL     1      -0.895  11.106  21.058  0.00  0.00    +0.000 C 
BRANCH  27  28
ATOM     28  C   UNL     1      -0.738  11.714  22.420  0.00  0.00    +0.000 C 
BRANCH  28  29
ATOM     29  C   UNL     1      -2.128  11.907  23.028  0.00  0.00    +0.000 C 
BRANCH  29  30
ATOM     30  C   UNL     1      -2.950  12.763  22.093  0.00  0.00    +0.000 C 
BRANCH  30  31
ATOM     31  C   UNL     1      -4.398  12.870  22.555  0.00  0.00    +0.000 C 
BRANCH  31  32
ATOM     32  C   UNL     1      -4.523  14.108  23.434  0.00  0.00    +0.000 C 
BRANCH  32  34
ATOM     33  C   UNL     1      -6.393  12.756  24.050  0.00  0.00    +0.000 C 
ATOM     34  N   UNL     1      -5.721  14.038  24.267  0.00  0.00    +0.000 NA
ATOM     35  H   UNL     1      -5.442  14.095  25.275  0.00  0.00    +0.000 HD
ENDBRANCH  32  34
ENDBRANCH  31  32
ENDBRANCH  30  31
ENDBRANCH  29  30
ENDBRANCH  28  29
ENDBRANCH  27  28
ENDBRANCH  26  27
ENDBRANCH  20  26
ENDBRANCH  19  23
ENDBRANCH   1  19
TORSDOF 16
ENDMDL
MODEL 3
REMARK VINA RESULT:      -6.5      1.454      2.361
REMARK  Name = 
REMARK  18 active torsions:
REMARK  status: ('A' for Active; 'I' for Inactive)
REMARK    1  A    between atoms: C_1  and  N_2
REMARK    2  A    between atoms: N_2  and  C_3
REMARK    3  A    between atoms: C_3  and  C_4
REMARK    4  A    between atoms: C_4  and  C_5
REMARK    5  A    between atoms: C_5  and  C_6
REMARK    6  A    between atoms: C_6  and  C_7
REMARK    7  A    between atoms: C_7  and  C_8
REMARK    8  A    between atoms: C_8  and  O_9
REMARK    9  A    between atoms: O_9  and  C_10
REMARK   10  A    between atoms: C_13  and  C_14
REMARK   11  A    between atoms: C_14  and  C_15
REMARK   12  A    between atoms: C_15  and  C_16
REMARK   13  A    between atoms: C_15  and  N_17
REMARK   14  A    between atoms: N_17  and  C_18
REMARK   15  A    between atoms: C_18  and  C_19
REMARK   16  A    between atoms: C_19  and  O_20
REMARK   17  A    between atoms: C_19  and  C_21
REMARK   18  A    between atoms: C_25  and  C_26
REMARK                            x       y       z     vdW  Elec       q    Type
REMARK                         _______ _______ _______ _____ _____    ______ ____
ROOT
ATOM      1  C   UNL     1       1.602   4.572  19.358  0.00  0.00    +0.000 C 
ATOM      2  C   UNL     1       1.584   4.732  17.816  0.00  0.00    +0.000 C 
ENDROOT
BRANCH   1   3
ATOM      3  N   UNL     1       2.067   3.213  19.710  0.00  0.00    +0.000 NA
ATOM      4  H   UNL     1       1.278   2.544  19.566  0.00  0.00    +0.000 HD
BRANCH   3   5
ATOM      5  C   UNL     1       3.206   2.796  18.875  0.00  0.00    +0.000 C 
BRANCH   5   6
ATOM      6  C   UNL     1       4.542   3.067  19.563  0.00  0.00    +0.000 C 
BRANCH   6   7
ATOM      7  C   UNL     1       5.343   4.058  18.740  0.00  0.00    +0.000 A 
ATOM      8  C   UNL     1       6.037   5.126  19.341  0.00  0.00    +0.000 A 
ATOM      9  C   UNL     1       6.773   6.014  18.555  0.00  0.00    +0.000 A 
ATOM     10  C   UNL     1       6.817   5.852  17.174  0.00  0.00    +0.000 A 
ATOM     11  C   UNL     1       6.140   4.793  16.551  0.00  0.00    +0.000 A 
ATOM     12  C   UNL     1       5.406   3.892  17.347  0.00  0.00    +0.000 A 
BRANCH  11  13
ATOM     13  C   UNL     1       6.200   4.635  15.051  0.00  0.00    +0.000 C 
ATOM     14  F   UNL     1       5.195   5.369  14.444  0.00  0.00    +0.000 F 
ATOM     15  F   UNL     1       7.417   5.088  14.580  0.00  0.00    +0.000 F 
ATOM     16  F   UNL     1       6.041   3.309  14.693  0.00  0.00    +0.000 F 
ENDBRANCH  11  13
ENDBRANCH   6   7
BRANCH   6  17
ATOM     17  O   UNL     1       5.274   1.884  19.796  0.00  0.00    +0.000 OA
ATOM     18  H   UNL     1       5.294   1.699  20.771  0.00  0.00    +0.000 HD
ENDBRANCH   6  17
ENDBRANCH   5   6
ENDBRANCH   3   5
ENDBRANCH   1   3
BRANCH   1  19
ATOM     19  C   UNL     1       2.521   5.649  19.987  0.00  0.00    +0.000 C 
BRANCH  19  23
ATOM     20  C   UNL     1       1.502   9.691  18.891  0.00  0.00    +0.000 A 
ATOM     21  C   UNL     1       1.097   9.162  20.118  0.00  0.00    +0.000 A 
ATOM     22  C   UNL     1       1.416   7.860  20.481  0.00  0.00    +0.000 A 
ATOM     23  C   UNL     1       2.167   7.057  19.593  0.00  0.00    +0.000 A 
ATOM     24  C   UNL     1       2.573   7.580  18.371  0.00  0.00    +0.000 A 
ATOM     25  C   UNL     1       2.254   8.891  18.010  0.00  0.00    +0.000 A 
BRANCH  20  26
ATOM     26  O   UNL     1       1.184  10.954  18.519  0.00  0.00    +0.000 OA
BRANCH  26  27
ATOM     27  C   UNL     1       1.246  12.012  19.420  0.00  0.00    +0.000 C 
BRANCH  27  28
ATOM     28  C   UNL     1      -0.072  12.180  20.115  0.00  0.00    +0.000 C 
BRANCH  28  29
ATOM     29  C   UNL     1      -0.917  13.174  19.317  0.00  0.00    +0.000 C 
BRANCH  29  30
ATOM     30  C   UNL     1      -1.466  12.472  18.097  0.00  0.00    +0.000 C 
BRANCH  30  31
ATOM     31  C   UNL     1      -2.591  11.511  18.459  0.00  0.00    +0.000 C 
BRANCH  31  32
ATOM     32  C   UNL     1      -2.181  10.113  18.011  0.00  0.00    +0.000 C 
BRANCH  32  34
ATOM     33  C   UNL     1      -2.903   9.981  15.738  0.00  0.00    +0.000 C 
ATOM     34  N   UNL     1      -1.742  10.121  16.618  0.00  0.00    +0.000 NA
ATOM     35  H   UNL     1      -1.281  11.038  16.409  0.00  0.00    +0.000 HD
ENDBRANCH  32  34
ENDBRANCH  31  32
ENDBRANCH  30  31
ENDBRANCH  29  30
ENDBRANCH  28  29
ENDBRANCH  27  28
ENDBRANCH  26  27
ENDBRANCH  20  26
ENDBRANCH  19  23
ENDBRANCH   1  19
TORSDOF 16
ENDMDL
MODEL 4
REMARK VINA RESULT:      -6.5      5.617      8.567
REMARK  Name = 
REMARK  18 active torsions:
REMARK  status: ('A' for Active; 'I' for Inactive)
REMARK    1  A    between atoms: C_1  and  N_2
REMARK    2  A    between atoms: N_2  and  C_3
REMARK    3  A    between atoms: C_3  and  C_4
REMARK    4  A    between atoms: C_4  and  C_5
REMARK    5  A    between atoms: C_5  and  C_6
REMARK    6  A    between atoms: C_6  and  C_7
REMARK    7  A    between atoms: C_7  and  C_8
REMARK    8  A    between atoms: C_8  and  O_9
REMARK    9  A    between atoms: O_9  and  C_10
REMARK   10  A    between atoms: C_13  and  C_14
REMARK   11  A    between atoms: C_14  and  C_15
REMARK   12  A    between atoms: C_15  and  C_16
REMARK   13  A    between atoms: C_15  and  N_17
REMARK   14  A    between atoms: N_17  and  C_18
REMARK   15  A    between atoms: C_18  and  C_19
REMARK   16  A    between atoms: C_19  and  O_20
REMARK   17  A    between atoms: C_19  and  C_21
REMARK   18  A    between atoms: C_25  and  C_26
REMARK                            x       y       z     vdW  Elec       q    Type
REMARK                         _______ _______ _______ _____ _____    ______ ____
ROOT
ATOM      1  C   UNL     1       2.340   4.195  18.969  0.00  0.00    +0.000 C 
ATOM      2  C   UNL     1       2.532   4.333  20.501  0.00  0.00    +0.000 C 
ENDROOT
BRANCH   1   3
ATOM      3  N   UNL     1       2.074   5.526  18.382  0.00  0.00    +0.000 NA
ATOM      4  H   UNL     1       1.085   5.549  18.044  0.00  0.00    +0.000 HD
BRANCH   3   5
ATOM      5  C   UNL     1       2.268   6.603  19.367  0.00  0.00    +0.000 C 
BRANCH   5   6
ATOM      6  C   UNL     1       2.461   7.959  18.694  0.00  0.00    +0.000 C 
BRANCH   6   7
ATOM      7  C   UNL     1       1.448   8.945  19.242  0.00  0.00    +0.000 A 
ATOM      8  C   UNL     1       0.896   9.962  18.438  0.00  0.00    +0.000 A 
ATOM      9  C   UNL     1      -0.044  10.845  18.972  0.00  0.00    +0.000 A 
ATOM     10  C   UNL     1      -0.431  10.730  20.304  0.00  0.00    +0.000 A 
ATOM     11  C   UNL     1       0.097   9.723  21.124  0.00  0.00    +0.000 A 
ATOM     12  C   UNL     1       1.038   8.826  20.580  0.00  0.00    +0.000 A 
BRANCH  11  13
ATOM     13  C   UNL     1      -0.337   9.616  22.565  0.00  0.00    +0.000 C 
ATOM     14  F   UNL     1      -1.127  10.697  22.917  0.00  0.00    +0.000 F 
ATOM     15  F   UNL     1      -1.072   8.461  22.749  0.00  0.00    +0.000 F 
ATOM     16  F   UNL     1       0.760   9.593  23.406  0.00  0.00    +0.000 F 
ENDBRANCH  11  13
ENDBRANCH   6   7
BRANCH   6  17
ATOM     17  O   UNL     1       2.387   7.876  17.288  0.00  0.00    +0.000 OA
ATOM     18  H   UNL     1       2.093   6.963  17.029  0.00  0.00    +0.000 HD
ENDBRANCH   6  17
ENDBRANCH   5   6
ENDBRANCH   3   5
ENDBRANCH   1   3
BRANCH   1  19
ATOM     19  C   UNL     1       3.602   3.556  18.337  0.00  0.00    +0.000 C 
BRANCH  19  23
ATOM     20  C   UNL     1       6.720   6.382  17.405  0.00  0.00    +0.000 A 
ATOM     21  C   UNL     1       6.658   5.779  18.663  0.00  0.00    +0.000 A 
ATOM     22  C   UNL     1       5.655   4.870  18.977  0.00  0.00    +0.000 A 
ATOM     23  C   UNL     1       4.684   4.546  18.003  0.00  0.00    +0.000 A 
ATOM     24  C   UNL     1       4.743   5.143  16.749  0.00  0.00    +0.000 A 
ATOM     25  C   UNL     1       5.753   6.054  16.435  0.00  0.00    +0.000 A 
BRANCH  20  26
ATOM     26  O   UNL     1       7.683   7.281  17.092  0.00  0.00    +0.000 OA
BRANCH  26  27
ATOM     27  C   UNL     1       7.621   8.595  17.540  0.00  0.00    +0.000 C 
BRANCH  27  28
ATOM     28  C   UNL     1       8.681   8.843  18.572  0.00  0.00    +0.000 C 
BRANCH  28  29
ATOM     29  C   UNL     1       9.226  10.258  18.377  0.00  0.00    +0.000 C 
BRANCH  29  30
ATOM     30  C   UNL     1       9.546  10.845  19.732  0.00  0.00    +0.000 C 
BRANCH  30  31
ATOM     31  C   UNL     1      10.906  11.530  19.742  0.00  0.00    +0.000 C 
BRANCH  31  32
ATOM     32  C   UNL     1      10.726  12.944  19.204  0.00  0.00    +0.000 C 
BRANCH  32  34
ATOM     33  C   UNL     1      11.114  13.399  16.892  0.00  0.00    +0.000 C 
ATOM     34  N   UNL     1      11.745  13.255  18.204  0.00  0.00    +0.000 NA
ATOM     35  H   UNL     1      12.200  14.165  18.451  0.00  0.00    +0.000 HD
ENDBRANCH  32  34
ENDBRANCH  31  32
ENDBRANCH  30  31
ENDBRANCH  29  30
ENDBRANCH  28  29
ENDBRANCH  27  28
ENDBRANCH  26  27
ENDBRANCH  20  26
ENDBRANCH  19  23
ENDBRANCH   1  19
TORSDOF 16
ENDMDL
MODEL 5
REMARK VINA RESULT:      -6.5      2.410      3.007
REMARK  Name = 
REMARK  18 active torsions:
REMARK  status: ('A' for Active; 'I' for Inactive)
REMARK    1  A    between atoms: C_1  and  N_2
REMARK    2  A    between atoms: N_2  and  C_3
REMARK    3  A    between atoms: C_3  and  C_4
REMARK    4  A    between atoms: C_4  and  C_5
REMARK    5  A    between atoms: C_5  and  C_6
REMARK    6  A    between atoms: C_6  and  C_7
REMARK    7  A    between atoms: C_7  and  C_8
REMARK    8  A    between atoms: C_8  and  O_9
REMARK    9  A    between atoms: O_9  and  C_10
REMARK   10  A    between atoms: C_13  and  C_14
REMARK   11  A    between atoms: C_14  and  C_15
REMARK   12  A    between atoms: C_15  and  C_16
REMARK   13  A    between atoms: C_15  and  N_17
REMARK   14  A    between atoms: N_17  and  C_18
REMARK   15  A    between atoms: C_18  and  C_19
REMARK   16  A    between atoms: C_19  and  O_20
REMARK   17  A    between atoms: C_19  and  C_21
REMARK   18  A    between atoms: C_25  and  C_26
REMARK                            x       y       z     vdW  Elec       q    Type
REMARK                         _______ _______ _______ _____ _____    ______ ____
ROOT
ATOM      1  C   UNL     1       2.137   3.736  20.422  0.00  0.00    +0.000 C 
ATOM      2  C   UNL     1       0.737   4.332  20.130  0.00  0.00    +0.000 C 
ENDROOT
BRANCH   1   3
ATOM      3  N   UNL     1       2.379   2.580  19.531  0.00  0.00    +0.000 NA
ATOM      4  H   UNL     1       1.694   2.619  18.743  0.00  0.00    +0.000 HD
BRANCH   3   5
ATOM      5  C   UNL     1       3.744   2.595  18.980  0.00  0.00    +0.000 C 
BRANCH   5   6
ATOM      6  C   UNL     1       3.743   2.786  17.466  0.00  0.00    +0.000 C 
BRANCH   6   7
ATOM      7  C   UNL     1       4.775   3.830  17.087  0.00  0.00    +0.000 A 
ATOM      8  C   UNL     1       4.828   4.381  15.791  0.00  0.00    +0.000 A 
ATOM      9  C   UNL     1       5.785   5.349  15.480  0.00  0.00    +0.000 A 
ATOM     10  C   UNL     1       6.696   5.765  16.445  0.00  0.00    +0.000 A 
ATOM     11  C   UNL     1       6.661   5.237  17.744  0.00  0.00    +0.000 A 
ATOM     12  C   UNL     1       5.688   4.269  18.060  0.00  0.00    +0.000 A 
BRANCH  11  13
ATOM     13  C   UNL     1       7.659   5.703  18.777  0.00  0.00    +0.000 C 
ATOM     14  F   UNL     1       8.734   4.832  18.843  0.00  0.00    +0.000 F 
ATOM     15  F   UNL     1       8.133   6.956  18.440  0.00  0.00    +0.000 F 
ATOM     16  F   UNL     1       7.075   5.761  20.029  0.00  0.00    +0.000 F 
ENDBRANCH  11  13
ENDBRANCH   6   7
BRANCH   6  17
ATOM     17  O   UNL     1       2.467   3.123  16.969  0.00  0.00    +0.000 OA
ATOM     18  H   UNL     1       2.087   2.342  16.487  0.00  0.00    +0.000 HD
ENDBRANCH   6  17
ENDBRANCH   5   6
ENDBRANCH   3   5
ENDBRANCH   1   3
BRANCH   1  19
ATOM     19  C   UNL     1       3.223   4.823  20.221  0.00  0.00    +0.000 C 
BRANCH  19  23
ATOM     20  C   UNL     1       1.659   8.652  19.009  0.00  0.00    +0.000 A 
ATOM     21  C   UNL     1       1.516   8.209  20.325  0.00  0.00    +0.000 A 
ATOM     22  C   UNL     1       2.012   6.975  20.727  0.00  0.00    +0.000 A 
ATOM     23  C   UNL     1       2.677   6.155  19.787  0.00  0.00    +0.000 A 
ATOM     24  C   UNL     1       2.823   6.594  18.476  0.00  0.00    +0.000 A 
ATOM     25  C   UNL     1       2.326   7.836  18.075  0.00  0.00    +0.000 A 
BRANCH  20  26
ATOM     26  O   UNL     1       1.166   9.845  18.601  0.00  0.00    +0.000 OA
BRANCH  26  27
ATOM     27  C   UNL     1       0.890  10.863  19.507  0.00  0.00    +0.000 C 
BRANCH  27  28
ATOM     28  C   UNL     1       0.146  11.975  18.829  0.00  0.00    +0.000 C 
BRANCH  28  29
ATOM     29  C   UNL     1      -0.848  12.571  19.826  0.00  0.00    +0.000 C 
BRANCH  29  30
ATOM     30  C   UNL     1      -2.223  12.021  19.526  0.00  0.00    +0.000 C 
BRANCH  30  31
ATOM     31  C   UNL     1      -2.430  11.807  18.032  0.00  0.00    +0.000 C 
BRANCH  31  32
ATOM     32  C   UNL     1      -3.599  10.847  17.850  0.00  0.00    +0.000 C 
BRANCH  32  34
ATOM     33  C   UNL     1      -2.766   9.924  15.811  0.00  0.00    +0.000 C 
ATOM     34  N   UNL     1      -3.168   9.620  17.184  0.00  0.00    +0.000 NA
ATOM     35  H   UNL     1      -2.338   9.230  17.690  0.00  0.00    +0.000 HD
ENDBRANCH  32  34
ENDBRANCH  31  32
ENDBRANCH  30  31
ENDBRANCH  29  30
ENDBRANCH  28  29
ENDBRANCH  27  28
ENDBRANCH  26  27
ENDBRANCH  20  26
ENDBRANCH  19  23
ENDBRANCH   1  19
TORSDOF 16
ENDMDL
MODEL 6
REMARK VINA RESULT:      -6.5      2.644      3.319
REMARK  Name = 
REMARK  18 active torsions:
REMARK  status: ('A' for Active; 'I' for Inactive)
REMARK    1  A    between atoms: C_1  and  N_2
REMARK    2  A    between atoms: N_2  and  C_3
REMARK    3  A    between atoms: C_3  and  C_4
REMARK    4  A    between atoms: C_4  and  C_5
REMARK    5  A    between atoms: C_5  and  C_6
REMARK    6  A    between atoms: C_6  and  C_7
REMARK    7  A    between atoms: C_7  and  C_8
REMARK    8  A    between atoms: C_8  and  O_9
REMARK    9  A    between atoms: O_9  and  C_10
REMARK   10  A    between atoms: C_13  and  C_14
REMARK   11  A    between atoms: C_14  and  C_15
REMARK   12  A    between atoms: C_15  and  C_16
REMARK   13  A    between atoms: C_15  and  N_17
REMARK   14  A    between atoms: N_17  and  C_18
REMARK   15  A    between atoms: C_18  and  C_19
REMARK   16  A    between atoms: C_19  and  O_20
REMARK   17  A    between atoms: C_19  and  C_21
REMARK   18  A    between atoms: C_25  and  C_26
REMARK                            x       y       z     vdW  Elec       q    Type
REMARK                         _______ _______ _______ _____ _____    ______ ____
ROOT
ATOM      1  C   UNL     1       1.750   2.771  18.874  0.00  0.00    +0.000 C 
ATOM      2  C   UNL     1       0.275   2.468  19.244  0.00  0.00    +0.000 C 
ENDROOT
BRANCH   1   3
ATOM      3  N   UNL     1       2.337   1.603  18.182  0.00  0.00    +0.000 NA
ATOM      4  H   UNL     1       1.996   1.596  17.194  0.00  0.00    +0.000 HD
BRANCH   3   5
ATOM      5  C   UNL     1       3.808   1.656  18.180  0.00  0.00    +0.000 C 
BRANCH   5   6
ATOM      6  C   UNL     1       4.345   2.566  19.282  0.00  0.00    +0.000 C 
BRANCH   6   7
ATOM      7  C   UNL     1       4.978   3.795  18.660  0.00  0.00    +0.000 A 
ATOM      8  C   UNL     1       5.477   4.849  19.449  0.00  0.00    +0.000 A 
ATOM      9  C   UNL     1       6.064   5.962  18.844  0.00  0.00    +0.000 A 
ATOM     10  C   UNL     1       6.150   6.037  17.457  0.00  0.00    +0.000 A 
ATOM     11  C   UNL     1       5.667   4.998  16.648  0.00  0.00    +0.000 A 
ATOM     12  C   UNL     1       5.084   3.872  17.262  0.00  0.00    +0.000 A 
BRANCH  11  13
ATOM     13  C   UNL     1       5.770   5.099  15.145  0.00  0.00    +0.000 C 
ATOM     14  F   UNL     1       4.896   4.214  14.537  0.00  0.00    +0.000 F 
ATOM     15  F   UNL     1       5.448   6.379  14.737  0.00  0.00    +0.000 F 
ATOM     16  F   UNL     1       7.051   4.797  14.722  0.00  0.00    +0.000 F 
ENDBRANCH  11  13
ENDBRANCH   6   7
BRANCH   6  17
ATOM     17  O   UNL     1       5.249   1.900  20.135  0.00  0.00    +0.000 OA
ATOM     18  H   UNL     1       4.870   1.017  20.388  0.00  0.00    +0.000 HD
ENDBRANCH   6  17
ENDBRANCH   5   6
ENDBRANCH   3   5
ENDBRANCH   1   3
BRANCH   1  19
ATOM     19  C   UNL     1       1.818   4.033  17.979  0.00  0.00    +0.000 C 
BRANCH  19  23
ATOM     20  C   UNL     1       1.893   7.752  20.157  0.00  0.00    +0.000 A 
ATOM     21  C   UNL     1       2.162   7.724  18.787  0.00  0.00    +0.000 A 
ATOM     22  C   UNL     1       2.145   6.531  18.075  0.00  0.00    +0.000 A 
ATOM     23  C   UNL     1       1.845   5.325  18.749  0.00  0.00    +0.000 A 
ATOM     24  C   UNL     1       1.575   5.350  20.112  0.00  0.00    +0.000 A 
ATOM     25  C   UNL     1       1.590   6.551  20.826  0.00  0.00    +0.000 A 
BRANCH  20  26
ATOM     26  O   UNL     1       1.921   8.906  20.865  0.00  0.00    +0.000 OA
BRANCH  26  27
ATOM     27  C   UNL     1       1.262   9.026  22.083  0.00  0.00    +0.000 C 
BRANCH  27  28
ATOM     28  C   UNL     1      -0.185   9.352  21.862  0.00  0.00    +0.000 C 
BRANCH  28  29
ATOM     29  C   UNL     1      -0.726  10.032  23.120  0.00  0.00    +0.000 C 
BRANCH  29  30
ATOM     30  C   UNL     1      -0.984  11.488  22.809  0.00  0.00    +0.000 C 
BRANCH  30  31
ATOM     31  C   UNL     1      -2.387  11.912  23.225  0.00  0.00    +0.000 C 
BRANCH  31  32
ATOM     32  C   UNL     1      -3.022  12.655  22.056  0.00  0.00    +0.000 C 
BRANCH  32  34
ATOM     33  C   UNL     1      -3.217  15.031  22.209  0.00  0.00    +0.000 C 
ATOM     34  N   UNL     1      -2.342  13.926  21.816  0.00  0.00    +0.000 NA
ATOM     35  H   UNL     1      -1.477  13.968  22.405  0.00  0.00    +0.000 HD
ENDBRANCH  32  34
ENDBRANCH  31  32
ENDBRANCH  30  31
ENDBRANCH  29  30
ENDBRANCH  28  29
ENDBRANCH  27  28
ENDBRANCH  26  27
ENDBRANCH  20  26
ENDBRANCH  19  23
ENDBRANCH   1  19
TORSDOF 16
ENDMDL
MODEL 7
REMARK VINA RESULT:      -6.5      2.947      4.008
REMARK  Name = 
REMARK  18 active torsions:
REMARK  status: ('A' for Active; 'I' for Inactive)
REMARK    1  A    between atoms: C_1  and  N_2
REMARK    2  A    between atoms: N_2  and  C_3
REMARK    3  A    between atoms: C_3  and  C_4
REMARK    4  A    between atoms: C_4  and  C_5
REMARK    5  A    between atoms: C_5  and  C_6
REMARK    6  A    between atoms: C_6  and  C_7
REMARK    7  A    between atoms: C_7  and  C_8
REMARK    8  A    between atoms: C_8  and  O_9
REMARK    9  A    between atoms: O_9  and  C_10
REMARK   10  A    between atoms: C_13  and  C_14
REMARK   11  A    between atoms: C_14  and  C_15
REMARK   12  A    between atoms: C_15  and  C_16
REMARK   13  A    between atoms: C_15  and  N_17
REMARK   14  A    between atoms: N_17  and  C_18
REMARK   15  A    between atoms: C_18  and  C_19
REMARK   16  A    between atoms: C_19  and  O_20
REMARK   17  A    between atoms: C_19  and  C_21
REMARK   18  A    between atoms: C_25  and  C_26
REMARK                            x       y       z     vdW  Elec       q    Type
REMARK                         _______ _______ _______ _____ _____    ______ ____
ROOT
ATOM      1  C   UNL     1       1.407   3.855  20.821  0.00  0.00    +0.000 C 
ATOM      2  C   UNL     1       0.535   4.181  19.582  0.00  0.00    +0.000 C 
ENDROOT
BRANCH   1   3
ATOM      3  N   UNL     1       1.960   2.489  20.691  0.00  0.00    +0.000 NA
ATOM      4  H   UNL     1       1.264   1.810  21.074  0.00  0.00    +0.000 HD
BRANCH   3   5
ATOM      5  C   UNL     1       2.239   2.147  19.287  0.00  0.00    +0.000 C 
BRANCH   5   6
ATOM      6  C   UNL     1       3.726   1.901  19.047  0.00  0.00    +0.000 C 
BRANCH   6   7
ATOM      7  C   UNL     1       4.308   3.054  18.252  0.00  0.00    +0.000 A 
ATOM      8  C   UNL     1       3.746   3.466  17.028  0.00  0.00    +0.000 A 
ATOM      9  C   UNL     1       4.301   4.538  16.328  0.00  0.00    +0.000 A 
ATOM     10  C   UNL     1       5.418   5.198  16.832  0.00  0.00    +0.000 A 
ATOM     11  C   UNL     1       5.993   4.812  18.051  0.00  0.00    +0.000 A 
ATOM     12  C   UNL     1       5.425   3.736  18.762  0.00  0.00    +0.000 A 
BRANCH  11  13
ATOM     13  C   UNL     1       7.204   5.541  18.581  0.00  0.00    +0.000 C 
ATOM     14  F   UNL     1       8.344   4.772  18.419  0.00  0.00    +0.000 F 
ATOM     15  F   UNL     1       7.376   6.726  17.893  0.00  0.00    +0.000 F 
ATOM     16  F   UNL     1       7.058   5.816  19.928  0.00  0.00    +0.000 F 
ENDBRANCH  11  13
ENDBRANCH   6   7
BRANCH   6  17
ATOM     17  O   UNL     1       3.969   0.666  18.412  0.00  0.00    +0.000 OA
ATOM     18  H   UNL     1       3.113   0.172  18.317  0.00  0.00    +0.000 HD
ENDBRANCH   6  17
ENDBRANCH   5   6
ENDBRANCH   3   5
ENDBRANCH   1   3
BRANCH   1  19
ATOM     19  C   UNL     1       2.543   4.899  20.953  0.00  0.00    +0.000 C 
BRANCH  19  23
ATOM     20  C   UNL     1       1.753   8.597  18.885  0.00  0.00    +0.000 A 
ATOM     21  C   UNL     1       2.458   7.568  18.259  0.00  0.00    +0.000 A 
ATOM     22  C   UNL     1       2.723   6.373  18.916  0.00  0.00    +0.000 A 
ATOM     23  C   UNL     1       2.265   6.195  20.242  0.00  0.00    +0.000 A 
ATOM     24  C   UNL     1       1.561   7.216  20.868  0.00  0.00    +0.000 A 
ATOM     25  C   UNL     1       1.294   8.416  20.204  0.00  0.00    +0.000 A 
BRANCH  20  26
ATOM     26  O   UNL     1       1.502   9.772  18.261  0.00  0.00    +0.000 OA
BRANCH  26  27
ATOM     27  C   UNL     1       0.558  10.667  18.752  0.00  0.00    +0.000 C 
BRANCH  27  28
ATOM     28  C   UNL     1       1.227  11.927  19.214  0.00  0.00    +0.000 C 
BRANCH  28  29
ATOM     29  C   UNL     1       0.260  12.684  20.124  0.00  0.00    +0.000 C 
BRANCH  29  30
ATOM     30  C   UNL     1      -0.240  11.739  21.192  0.00  0.00    +0.000 C 
BRANCH  30  31
ATOM     31  C   UNL     1      -1.652  12.094  21.642  0.00  0.00    +0.000 C 
BRANCH  31  32
ATOM     32  C   UNL     1      -1.794  11.699  23.106  0.00  0.00    +0.000 C 
BRANCH  32  34
ATOM     33  C   UNL     1      -3.527  13.295  23.497  0.00  0.00    +0.000 C 
ATOM     34  N   UNL     1      -3.170  11.878  23.563  0.00  0.00    +0.000 NA
ATOM     35  H   UNL     1      -3.813  11.348  22.929  0.00  0.00    +0.000 HD
ENDBRANCH  32  34
ENDBRANCH  31  32
ENDBRANCH  30  31
ENDBRANCH  29  30
ENDBRANCH  28  29
ENDBRANCH  27  28
ENDBRANCH  26  27
ENDBRANCH  20  26
ENDBRANCH  19  23
ENDBRANCH   1  19
TORSDOF 16
ENDMDL
MODEL 8
REMARK VINA RESULT:      -6.5      2.912      4.126
REMARK  Name = 
REMARK  18 active torsions:
REMARK  status: ('A' for Active; 'I' for Inactive)
REMARK    1  A    between atoms: C_1  and  N_2
REMARK    2  A    between atoms: N_2  and  C_3
REMARK    3  A    between atoms: C_3  and  C_4
REMARK    4  A    between atoms: C_4  and  C_5
REMARK    5  A    between atoms: C_5  and  C_6
REMARK    6  A    between atoms: C_6  and  C_7
REMARK    7  A    between atoms: C_7  and  C_8
REMARK    8  A    between atoms: C_8  and  O_9
REMARK    9  A    between atoms: O_9  and  C_10
REMARK   10  A    between atoms: C_13  and  C_14
REMARK   11  A    between atoms: C_14  and  C_15
REMARK   12  A    between atoms: C_15  and  C_16
REMARK   13  A    between atoms: C_15  and  N_17
REMARK   14  A    between atoms: N_17  and  C_18
REMARK   15  A    between atoms: C_18  and  C_19
REMARK   16  A    between atoms: C_19  and  O_20
REMARK   17  A    between atoms: C_19  and  C_21
REMARK   18  A    between atoms: C_25  and  C_26
REMARK                            x       y       z     vdW  Elec       q    Type
REMARK                         _______ _______ _______ _____ _____    ______ ____
ROOT
ATOM      1  C   UNL     1       3.733   4.694  18.197  0.00  0.00    +0.000 C 
ATOM      2  C   UNL     1       2.598   3.942  17.455  0.00  0.00    +0.000 C 
ENDROOT
BRANCH   1   3
ATOM      3  N   UNL     1       5.008   3.966  18.020  0.00  0.00    +0.000 NA
ATOM      4  H   UNL     1       4.921   3.029  18.474  0.00  0.00    +0.000 HD
BRANCH   3   5
ATOM      5  C   UNL     1       5.333   3.779  16.596  0.00  0.00    +0.000 C 
BRANCH   5   6
ATOM      6  C   UNL     1       6.471   4.694  16.149  0.00  0.00    +0.000 C 
BRANCH   6   7
ATOM      7  C   UNL     1       6.634   4.600  14.645  0.00  0.00    +0.000 A 
ATOM      8  C   UNL     1       7.756   5.143  13.988  0.00  0.00    +0.000 A 
ATOM      9  C   UNL     1       7.880   5.030  12.603  0.00  0.00    +0.000 A 
ATOM     10  C   UNL     1       6.891   4.388  11.864  0.00  0.00    +0.000 A 
ATOM     11  C   UNL     1       5.767   3.833  12.493  0.00  0.00    +0.000 A 
ATOM     12  C   UNL     1       5.649   3.940  13.893  0.00  0.00    +0.000 A 
BRANCH  11  13
ATOM     13  C   UNL     1       4.706   3.141  11.674  0.00  0.00    +0.000 C 
ATOM     14  F   UNL     1       4.351   3.916  10.582  0.00  0.00    +0.000 F 
ATOM     15  F   UNL     1       5.185   1.931  11.211  0.00  0.00    +0.000 F 
ATOM     16  F   UNL     1       3.570   2.919  12.431  0.00  0.00    +0.000 F 
ENDBRANCH  11  13
ENDBRANCH   6   7
BRANCH   6  17
ATOM     17  O   UNL     1       7.681   4.408  16.815  0.00  0.00    +0.000 OA
ATOM     18  H   UNL     1       7.875   5.134  17.465  0.00  0.00    +0.000 HD
ENDBRANCH   6  17
ENDBRANCH   5   6
ENDBRANCH   3   5
ENDBRANCH   1   3
BRANCH   1  19
ATOM     19  C   UNL     1       3.845   6.141  17.656  0.00  0.00    +0.000 C 
BRANCH  19  23
ATOM     20  C   UNL     1       1.208   8.926  19.622  0.00  0.00    +0.000 A 
ATOM     21  C   UNL     1       1.642   7.773  20.278  0.00  0.00    +0.000 A 
ATOM     22  C   UNL     1       2.489   6.866  19.654  0.00  0.00    +0.000 A 
ATOM     23  C   UNL     1       2.922   7.118  18.332  0.00  0.00    +0.000 A 
ATOM     24  C   UNL     1       2.492   8.265  17.676  0.00  0.00    +0.000 A 
ATOM     25  C   UNL     1       1.643   9.178  18.307  0.00  0.00    +0.000 A 
BRANCH  20  26
ATOM     26  O   UNL     1       0.371   9.811  20.215  0.00  0.00    +0.000 OA
BRANCH  26  27
ATOM     27  C   UNL     1       0.581  10.248  21.518  0.00  0.00    +0.000 C 
BRANCH  27  28
ATOM     28  C   UNL     1      -0.046  11.594  21.722  0.00  0.00    +0.000 C 
BRANCH  28  29
ATOM     29  C   UNL     1       0.124  12.408  20.439  0.00  0.00    +0.000 C 
BRANCH  29  30
ATOM     30  C   UNL     1       1.436  13.155  20.509  0.00  0.00    +0.000 C 
BRANCH  30  31
ATOM     31  C   UNL     1       2.233  13.016  19.218  0.00  0.00    +0.000 C 
BRANCH  31  32
ATOM     32  C   UNL     1       3.188  14.199  19.123  0.00  0.00    +0.000 C 
BRANCH  32  34
ATOM     33  C   UNL     1       5.105  14.859  17.861  0.00  0.00    +0.000 C 
ATOM     34  N   UNL     1       3.753  14.307  17.780  0.00  0.00    +0.000 NA
ATOM     35  H   UNL     1       3.813  13.351  17.357  0.00  0.00    +0.000 HD
ENDBRANCH  32  34
ENDBRANCH  31  32
ENDBRANCH  30  31
ENDBRANCH  29  30
ENDBRANCH  28  29
ENDBRANCH  27  28
ENDBRANCH  26  27
ENDBRANCH  20  26
ENDBRANCH  19  23
ENDBRANCH   1  19
TORSDOF 16
ENDMDL
MODEL 9
REMARK VINA RESULT:      -6.4      2.687      4.063
REMARK  Name = 
REMARK  18 active torsions:
REMARK  status: ('A' for Active; 'I' for Inactive)
REMARK    1  A    between atoms: C_1  and  N_2
REMARK    2  A    between atoms: N_2  and  C_3
REMARK    3  A    between atoms: C_3  and  C_4
REMARK    4  A    between atoms: C_4  and  C_5
REMARK    5  A    between atoms: C_5  and  C_6
REMARK    6  A    between atoms: C_6  and  C_7
REMARK    7  A    between atoms: C_7  and  C_8
REMARK    8  A    between atoms: C_8  and  O_9
REMARK    9  A    between atoms: O_9  and  C_10
REMARK   10  A    between atoms: C_13  and  C_14
REMARK   11  A    between atoms: C_14  and  C_15
REMARK   12  A    between atoms: C_15  and  C_16
REMARK   13  A    between atoms: C_15  and  N_17
REMARK   14  A    between atoms: N_17  and  C_18
REMARK   15  A    between atoms: C_18  and  C_19
REMARK   16  A    between atoms: C_19  and  O_20
REMARK   17  A    between atoms: C_19  and  C_21
REMARK   18  A    between atoms: C_25  and  C_26
REMARK                            x       y       z     vdW  Elec       q    Type
REMARK                         _______ _______ _______ _____ _____    ______ ____
ROOT
ATOM      1  C   UNL     1       2.323   6.026  19.078  0.00  0.00    +0.000 C 
ATOM      2  C   UNL     1       2.075   5.062  17.890  0.00  0.00    +0.000 C 
ENDROOT
BRANCH   1   3
ATOM      3  N   UNL     1       3.366   5.463  19.963  0.00  0.00    +0.000 NA
ATOM      4  H   UNL     1       3.106   5.665  20.954  0.00  0.00    +0.000 HD
BRANCH   3   5
ATOM      5  C   UNL     1       3.496   4.006  19.790  0.00  0.00    +0.000 C 
BRANCH   5   6
ATOM      6  C   UNL     1       4.957   3.563  19.789  0.00  0.00    +0.000 C 
BRANCH   6   7
ATOM      7  C   UNL     1       5.750   4.434  18.834  0.00  0.00    +0.000 A 
ATOM      8  C   UNL     1       6.598   5.459  19.298  0.00  0.00    +0.000 A 
ATOM      9  C   UNL     1       7.321   6.235  18.391  0.00  0.00    +0.000 A 
ATOM     10  C   UNL     1       7.200   6.004  17.024  0.00  0.00    +0.000 A 
ATOM     11  C   UNL     1       6.368   4.986  16.535  0.00  0.00    +0.000 A 
ATOM     12  C   UNL     1       5.647   4.198  17.453  0.00  0.00    +0.000 A 
BRANCH  11  13
ATOM     13  C   UNL     1       6.252   4.752  15.049  0.00  0.00    +0.000 C 
ATOM     14  F   UNL     1       6.024   3.412  14.783  0.00  0.00    +0.000 F 
ATOM     15  F   UNL     1       5.196   5.483  14.540  0.00  0.00    +0.000 F 
ATOM     16  F   UNL     1       7.416   5.127  14.402  0.00  0.00    +0.000 F 
ENDBRANCH  11  13
ENDBRANCH   6   7
BRANCH   6  17
ATOM     17  O   UNL     1       5.103   2.196  19.477  0.00  0.00    +0.000 OA
ATOM     18  H   UNL     1       4.221   1.826  19.208  0.00  0.00    +0.000 HD
ENDBRANCH   6  17
ENDBRANCH   5   6
ENDBRANCH   3   5
ENDBRANCH   1   3
BRANCH   1  19
ATOM     19  C   UNL     1       2.744   7.418  18.546  0.00  0.00    +0.000 C 
BRANCH  19  23
ATOM     20  C   UNL     1      -0.002  10.587  19.542  0.00  0.00    +0.000 A 
ATOM     21  C   UNL     1       0.491  10.454  18.243  0.00  0.00    +0.000 A 
ATOM     22  C   UNL     1       1.380   9.440  17.910  0.00  0.00    +0.000 A 
ATOM     23  C   UNL     1       1.789   8.522  18.905  0.00  0.00    +0.000 A 
ATOM     24  C   UNL     1       1.298   8.649  20.199  0.00  0.00    +0.000 A 
ATOM     25  C   UNL     1       0.403   9.669  20.530  0.00  0.00    +0.000 A 
BRANCH  20  26
ATOM     26  O   UNL     1      -0.857  11.580  19.882  0.00  0.00    +0.000 OA
BRANCH  26  27
ATOM     27  C   UNL     1      -2.115  11.684  19.301  0.00  0.00    +0.000 C 
BRANCH  27  28
ATOM     28  C   UNL     1      -2.978  12.622  20.092  0.00  0.00    +0.000 C 
BRANCH  28  29
ATOM     29  C   UNL     1      -2.083  13.695  20.713  0.00  0.00    +0.000 C 
BRANCH  29  30
ATOM     30  C   UNL     1      -2.022  13.469  22.206  0.00  0.00    +0.000 C 
BRANCH  30  31
ATOM     31  C   UNL     1      -0.751  14.052  22.811  0.00  0.00    +0.000 C 
BRANCH  31  32
ATOM     32  C   UNL     1       0.237  14.308  21.679  0.00  0.00    +0.000 C 
BRANCH  32  34
ATOM     33  C   UNL     1       2.138  13.494  20.484  0.00  0.00    +0.000 C 
ATOM     34  N   UNL     1       1.217  13.228  21.589  0.00  0.00    +0.000 NA
ATOM     35  H   UNL     1       1.771  13.193  22.477  0.00  0.00    +0.000 HD
ENDBRANCH  32  34
ENDBRANCH  31  32
ENDBRANCH  30  31
ENDBRANCH  29  30
ENDBRANCH  28  29
ENDBRANCH  27  28
ENDBRANCH  26  27
ENDBRANCH  20  26
ENDBRANCH  19  23
ENDBRANCH   1  19
TORSDOF 16
ENDMDL
