MODEL 1
REMARK VINA RESULT:      -5.8      0.000      0.000
REMARK  Name = 
REMARK  3 active torsions:
REMARK  status: ('A' for Active; 'I' for Inactive)
REMARK    1  A    between atoms: C_1  and  C_2
REMARK    2  A    between atoms: CA_3  and  C_4
REMARK    3  A    between atoms: C_4  and  OXT_6
REMARK                            x       y       z     vdW  Elec       q    Type
REMARK                         _______ _______ _______ _____ _____    ______ ____
ROOT
ATOM      1  C   UNL     1       4.987   6.846  16.261  0.00  0.00    +0.000 C 
ATOM      2  C   UNL     1       5.111   5.715  17.210  0.00  0.00    +0.000 A 
ATOM      3  CA  UNL     1       6.102   4.766  17.451  0.00  0.00    +0.000 A 
ATOM      4  N   UNL     1       5.620   3.889  18.404  0.00  0.00    +0.000 N 
ATOM      5  C   UNL     1       4.365   4.274  18.791  0.00  0.00    +0.000 A 
ATOM      6  C   UNL     1       3.359   3.849  19.689  0.00  0.00    +0.000 A 
ATOM      7 BR   UNL     1       3.533   2.361  20.830  0.00  0.00    +0.000 Br
ATOM      8  C   UNL     1       2.254   4.661  19.607  0.00  0.00    +0.000 A 
ATOM      9  S   UNL     1       2.423   5.937  18.464  0.00  0.00    +0.000 S 
ATOM     10  C   UNL     1       4.021   5.380  18.075  0.00  0.00    +0.000 A 
ATOM     11  H   UNL     1       6.103   3.074  18.772  0.00  0.00    +0.000 HD
ENDROOT
BRANCH   3  12
ATOM     12  C   UNL     1       7.418   4.532  16.885  0.00  0.00    +0.000 C 
ATOM     13  O   UNL     1       7.703   4.697  15.709  0.00  0.00    +0.000 OA
BRANCH  12  14
ATOM     14  OXT UNL     1       8.296   4.029  17.781  0.00  0.00    +0.000 OA
ATOM     15  HXT UNL     1       9.168   4.453  17.717  0.00  0.00    +0.000 HD
ENDBRANCH  12  14
ENDBRANCH   3  12
TORSDOF 2
ENDMDL
MODEL 2
REMARK VINA RESULT:      -5.8      1.543      1.744
REMARK  Name = 
REMARK  3 active torsions:
REMARK  status: ('A' for Active; 'I' for Inactive)
REMARK    1  A    between atoms: C_1  and  C_2
REMARK    2  A    between atoms: CA_3  and  C_4
REMARK    3  A    between atoms: C_4  and  OXT_6
REMARK                            x       y       z     vdW  Elec       q    Type
REMARK                         _______ _______ _______ _____ _____    ______ ____
ROOT
ATOM      1  C   UNL     1       5.316   4.635  15.682  0.00  0.00    +0.000 C 
ATOM      2  C   UNL     1       5.149   4.399  17.135  0.00  0.00    +0.000 A 
ATOM      3  CA  UNL     1       6.006   4.489  18.230  0.00  0.00    +0.000 A 
ATOM      4  N   UNL     1       5.313   4.053  19.343  0.00  0.00    +0.000 N 
ATOM      5  C   UNL     1       4.035   3.718  18.987  0.00  0.00    +0.000 A 
ATOM      6  C   UNL     1       2.857   3.236  19.603  0.00  0.00    +0.000 A 
ATOM      7 BR   UNL     1       2.709   2.884  21.447  0.00  0.00    +0.000 Br
ATOM      8  C   UNL     1       1.856   3.060  18.680  0.00  0.00    +0.000 A 
ATOM      9  S   UNL     1       2.320   3.481  17.076  0.00  0.00    +0.000 S 
ATOM     10  C   UNL     1       3.904   3.910  17.645  0.00  0.00    +0.000 A 
ATOM     11  H   UNL     1       5.677   3.979  20.288  0.00  0.00    +0.000 HD
ENDROOT
BRANCH   3  12
ATOM     12  C   UNL     1       7.397   4.877  18.378  0.00  0.00    +0.000 C 
ATOM     13  O   UNL     1       7.775   5.871  18.981  0.00  0.00    +0.000 OA
BRANCH  12  14
ATOM     14  OXT UNL     1       8.246   4.067  17.710  0.00  0.00    +0.000 OA
ATOM     15  HXT UNL     1       9.176   4.287  17.884  0.00  0.00    +0.000 HD
ENDBRANCH  12  14
ENDBRANCH   3  12
TORSDOF 2
ENDMDL
MODEL 3
REMARK VINA RESULT:      -5.7      3.071      4.159
REMARK  Name = 
REMARK  3 active torsions:
REMARK  status: ('A' for Active; 'I' for Inactive)
REMARK    1  A    between atoms: C_1  and  C_2
REMARK    2  A    between atoms: CA_3  and  C_4
REMARK    3  A    between atoms: C_4  and  OXT_6
REMARK                            x       y       z     vdW  Elec       q    Type
REMARK                         _______ _______ _______ _____ _____    ______ ____
ROOT
ATOM      1  C   UNL     1       1.863   3.511  19.905  0.00  0.00    +0.000 C 
ATOM      2  C   UNL     1       3.238   3.740  19.402  0.00  0.00    +0.000 A 
ATOM      3  CA  UNL     1       4.424   3.013  19.481  0.00  0.00    +0.000 A 
ATOM      4  N   UNL     1       5.421   3.773  18.899  0.00  0.00    +0.000 N 
ATOM      5  C   UNL     1       4.891   4.945  18.430  0.00  0.00    +0.000 A 
ATOM      6  C   UNL     1       5.329   6.107  17.755  0.00  0.00    +0.000 A 
ATOM      7 BR   UNL     1       7.105   6.386  17.193  0.00  0.00    +0.000 Br
ATOM      8  C   UNL     1       4.293   6.991  17.575  0.00  0.00    +0.000 A 
ATOM      9  S   UNL     1       2.794   6.426  18.205  0.00  0.00    +0.000 S 
ATOM     10  C   UNL     1       3.563   4.960  18.728  0.00  0.00    +0.000 A 
ATOM     11  H   UNL     1       6.403   3.524  18.824  0.00  0.00    +0.000 HD
ENDROOT
BRANCH   3  12
ATOM     12  C   UNL     1       4.772   1.731  20.065  0.00  0.00    +0.000 C 
ATOM     13  O   UNL     1       5.190   1.581  21.203  0.00  0.00    +0.000 OA
BRANCH  12  14
ATOM     14  OXT UNL     1       4.663   0.706  19.191  0.00  0.00    +0.000 OA
ATOM     15  HXT UNL     1       4.095   0.928  18.435  0.00  0.00    +0.000 HD
ENDBRANCH  12  14
ENDBRANCH   3  12
TORSDOF 2
ENDMDL
MODEL 4
REMARK VINA RESULT:      -5.7      3.412      4.490
REMARK  Name = 
REMARK  3 active torsions:
REMARK  status: ('A' for Active; 'I' for Inactive)
REMARK    1  A    between atoms: C_1  and  C_2
REMARK    2  A    between atoms: CA_3  and  C_4
REMARK    3  A    between atoms: C_4  and  OXT_6
REMARK                            x       y       z     vdW  Elec       q    Type
REMARK                         _______ _______ _______ _____ _____    ______ ____
ROOT
ATOM      1  C   UNL     1       2.564   4.959  19.675  0.00  0.00    +0.000 C 
ATOM      2  C   UNL     1       3.318   4.371  18.544  0.00  0.00    +0.000 A 
ATOM      3  CA  UNL     1       3.588   3.064  18.144  0.00  0.00    +0.000 A 
ATOM      4  N   UNL     1       4.431   3.126  17.050  0.00  0.00    +0.000 N 
ATOM      5  C   UNL     1       4.676   4.434  16.732  0.00  0.00    +0.000 A 
ATOM      6  C   UNL     1       5.406   5.168  15.769  0.00  0.00    +0.000 A 
ATOM      7 BR   UNL     1       6.409   4.376  14.386  0.00  0.00    +0.000 Br
ATOM      8  C   UNL     1       5.285   6.519  15.987  0.00  0.00    +0.000 A 
ATOM      9  S   UNL     1       4.290   6.910  17.336  0.00  0.00    +0.000 S 
ATOM     10  C   UNL     1       4.019   5.219  17.628  0.00  0.00    +0.000 A 
ATOM     11  H   UNL     1       4.824   2.335  16.547  0.00  0.00    +0.000 HD
ENDROOT
BRANCH   3  12
ATOM     12  C   UNL     1       3.212   1.762  18.665  0.00  0.00    +0.000 C 
ATOM     13  O   UNL     1       2.169   1.532  19.259  0.00  0.00    +0.000 OA
BRANCH  12  14
ATOM     14  OXT UNL     1       4.174   0.829  18.499  0.00  0.00    +0.000 OA
ATOM     15  HXT UNL     1       5.020   1.219  18.222  0.00  0.00    +0.000 HD
ENDBRANCH  12  14
ENDBRANCH   3  12
TORSDOF 2
ENDMDL
MODEL 5
REMARK VINA RESULT:      -5.7      2.985      4.263
REMARK  Name = 
REMARK  3 active torsions:
REMARK  status: ('A' for Active; 'I' for Inactive)
REMARK    1  A    between atoms: C_1  and  C_2
REMARK    2  A    between atoms: CA_3  and  C_4
REMARK    3  A    between atoms: C_4  and  OXT_6
REMARK                            x       y       z     vdW  Elec       q    Type
REMARK                         _______ _______ _______ _____ _____    ______ ____
ROOT
ATOM      1  C   UNL     1       2.361   4.998  20.431  0.00  0.00    +0.000 C 
ATOM      2  C   UNL     1       3.471   4.508  19.579  0.00  0.00    +0.000 A 
ATOM      3  CA  UNL     1       4.281   3.375  19.613  0.00  0.00    +0.000 A 
ATOM      4  N   UNL     1       5.219   3.500  18.606  0.00  0.00    +0.000 N 
ATOM      5  C   UNL     1       5.006   4.665  17.920  0.00  0.00    +0.000 A 
ATOM      6  C   UNL     1       5.564   5.364  16.826  0.00  0.00    +0.000 A 
ATOM      7 BR   UNL     1       7.022   4.735  15.813  0.00  0.00    +0.000 Br
ATOM      8  C   UNL     1       4.906   6.551  16.615  0.00  0.00    +0.000 A 
ATOM      9  S   UNL     1       3.613   6.824  17.719  0.00  0.00    +0.000 S 
ATOM     10  C   UNL     1       3.952   5.308  18.494  0.00  0.00    +0.000 A 
ATOM     11  H   UNL     1       5.965   2.843  18.392  0.00  0.00    +0.000 HD
ENDROOT
BRANCH   3  12
ATOM     12  C   UNL     1       4.337   2.213  20.482  0.00  0.00    +0.000 C 
ATOM     13  O   UNL     1       3.677   2.083  21.502  0.00  0.00    +0.000 OA
BRANCH  12  14
ATOM     14  OXT UNL     1       5.260   1.307  20.093  0.00  0.00    +0.000 OA
ATOM     15  HXT UNL     1       5.299   1.216  19.127  0.00  0.00    +0.000 HD
ENDBRANCH  12  14
ENDBRANCH   3  12
TORSDOF 2
ENDMDL
MODEL 6
REMARK VINA RESULT:      -5.6      1.697      1.893
REMARK  Name = 
REMARK  3 active torsions:
REMARK  status: ('A' for Active; 'I' for Inactive)
REMARK    1  A    between atoms: C_1  and  C_2
REMARK    2  A    between atoms: CA_3  and  C_4
REMARK    3  A    between atoms: C_4  and  OXT_6
REMARK                            x       y       z     vdW  Elec       q    Type
REMARK                         _______ _______ _______ _____ _____    ______ ____
ROOT
ATOM      1  C   UNL     1       6.109   7.148  17.029  0.00  0.00    +0.000 C 
ATOM      2  C   UNL     1       5.762   5.707  17.000  0.00  0.00    +0.000 A 
ATOM      3  CA  UNL     1       6.057   4.664  16.124  0.00  0.00    +0.000 A 
ATOM      4  N   UNL     1       5.377   3.544  16.563  0.00  0.00    +0.000 N 
ATOM      5  C   UNL     1       4.685   3.843  17.705  0.00  0.00    +0.000 A 
ATOM      6  C   UNL     1       3.837   3.190  18.629  0.00  0.00    +0.000 A 
ATOM      7 BR   UNL     1       3.367   1.370  18.515  0.00  0.00    +0.000 Br
ATOM      8  C   UNL     1       3.408   4.060  19.601  0.00  0.00    +0.000 A 
ATOM      9  S   UNL     1       4.028   5.655  19.416  0.00  0.00    +0.000 S 
ATOM     10  C   UNL     1       4.892   5.157  17.995  0.00  0.00    +0.000 A 
ATOM     11  H   UNL     1       5.371   2.630  16.118  0.00  0.00    +0.000 HD
ENDROOT
BRANCH   3  12
ATOM     12  C   UNL     1       6.844   4.575  14.908  0.00  0.00    +0.000 C 
ATOM     13  O   UNL     1       7.732   5.356  14.602  0.00  0.00    +0.000 OA
BRANCH  12  14
ATOM     14  OXT UNL     1       6.445   3.574  14.093  0.00  0.00    +0.000 OA
ATOM     15  HXT UNL     1       5.554   3.726  13.735  0.00  0.00    +0.000 HD
ENDBRANCH  12  14
ENDBRANCH   3  12
TORSDOF 2
ENDMDL
MODEL 7
REMARK VINA RESULT:      -5.6      4.234      5.354
REMARK  Name = 
REMARK  3 active torsions:
REMARK  status: ('A' for Active; 'I' for Inactive)
REMARK    1  A    between atoms: C_1  and  C_2
REMARK    2  A    between atoms: CA_3  and  C_4
REMARK    3  A    between atoms: C_4  and  OXT_6
REMARK                            x       y       z     vdW  Elec       q    Type
REMARK                         _______ _______ _______ _____ _____    ______ ____
ROOT
ATOM      1  C   UNL     1       4.503   2.212  19.750  0.00  0.00    +0.000 C 
ATOM      2  C   UNL     1       3.716   3.465  19.660  0.00  0.00    +0.000 A 
ATOM      3  CA  UNL     1       2.504   3.881  20.207  0.00  0.00    +0.000 A 
ATOM      4  N   UNL     1       2.220   5.132  19.692  0.00  0.00    +0.000 N 
ATOM      5  C   UNL     1       3.231   5.528  18.859  0.00  0.00    +0.000 A 
ATOM      6  C   UNL     1       3.564   6.643  18.056  0.00  0.00    +0.000 A 
ATOM      7 BR   UNL     1       2.499   8.190  17.918  0.00  0.00    +0.000 Br
ATOM      8  C   UNL     1       4.752   6.437  17.398  0.00  0.00    +0.000 A 
ATOM      9  S   UNL     1       5.476   4.915  17.750  0.00  0.00    +0.000 S 
ATOM     10  C   UNL     1       4.156   4.530  18.811  0.00  0.00    +0.000 A 
ATOM     11  H   UNL     1       1.392   5.688  19.884  0.00  0.00    +0.000 HD
ENDROOT
BRANCH   3  12
ATOM     12  C   UNL     1       1.548   3.259  21.105  0.00  0.00    +0.000 C 
ATOM     13  O   UNL     1       1.807   2.889  22.240  0.00  0.00    +0.000 OA
BRANCH  12  14
ATOM     14  OXT UNL     1       0.343   3.053  20.531  0.00  0.00    +0.000 OA
ATOM     15  HXT UNL     1      -0.333   3.664  20.868  0.00  0.00    +0.000 HD
ENDBRANCH  12  14
ENDBRANCH   3  12
TORSDOF 2
ENDMDL
MODEL 8
REMARK VINA RESULT:      -5.6      3.812      4.846
REMARK  Name = 
REMARK  3 active torsions:
REMARK  status: ('A' for Active; 'I' for Inactive)
REMARK    1  A    between atoms: C_1  and  C_2
REMARK    2  A    between atoms: CA_3  and  C_4
REMARK    3  A    between atoms: C_4  and  OXT_6
REMARK                            x       y       z     vdW  Elec       q    Type
REMARK                         _______ _______ _______ _____ _____    ______ ____
ROOT
ATOM      1  C   UNL     1       1.903   3.728  17.494  0.00  0.00    +0.000 C 
ATOM      2  C   UNL     1       3.024   4.298  18.277  0.00  0.00    +0.000 A 
ATOM      3  CA  UNL     1       3.118   4.879  19.541  0.00  0.00    +0.000 A 
ATOM      4  N   UNL     1       4.418   5.316  19.706  0.00  0.00    +0.000 N 
ATOM      5  C   UNL     1       5.154   5.002  18.596  0.00  0.00    +0.000 A 
ATOM      6  C   UNL     1       6.482   5.144  18.133  0.00  0.00    +0.000 A 
ATOM      7 BR   UNL     1       7.863   5.938  19.138  0.00  0.00    +0.000 Br
ATOM      8  C   UNL     1       6.618   4.632  16.866  0.00  0.00    +0.000 A 
ATOM      9  S   UNL     1       5.159   3.973  16.232  0.00  0.00    +0.000 S 
ATOM     10  C   UNL     1       4.332   4.387  17.702  0.00  0.00    +0.000 A 
ATOM     11  H   UNL     1       4.792   5.803  20.516  0.00  0.00    +0.000 HD
ENDROOT
BRANCH   3  12
ATOM     12  C   UNL     1       2.155   5.128  20.598  0.00  0.00    +0.000 C 
ATOM     13  O   UNL     1       1.474   4.264  21.129  0.00  0.00    +0.000 OA
BRANCH  12  14
ATOM     14  OXT UNL     1       2.022   6.440  20.892  0.00  0.00    +0.000 OA
ATOM     15  HXT UNL     1       2.881   6.892  20.948  0.00  0.00    +0.000 HD
ENDBRANCH  12  14
ENDBRANCH   3  12
TORSDOF 2
ENDMDL
MODEL 9
REMARK VINA RESULT:      -5.6      1.980      2.179
REMARK  Name = 
REMARK  3 active torsions:
REMARK  status: ('A' for Active; 'I' for Inactive)
REMARK    1  A    between atoms: C_1  and  C_2
REMARK    2  A    between atoms: CA_3  and  C_4
REMARK    3  A    between atoms: C_4  and  OXT_6
REMARK                            x       y       z     vdW  Elec       q    Type
REMARK                         _______ _______ _______ _____ _____    ______ ____
ROOT
ATOM      1  C   UNL     1       6.263   4.297  16.189  0.00  0.00    +0.000 C 
ATOM      2  C   UNL     1       5.652   4.521  17.520  0.00  0.00    +0.000 A 
ATOM      3  CA  UNL     1       6.098   5.128  18.693  0.00  0.00    +0.000 A 
ATOM      4  N   UNL     1       5.118   4.955  19.652  0.00  0.00    +0.000 N 
ATOM      5  C   UNL     1       4.057   4.282  19.110  0.00  0.00    +0.000 A 
ATOM      6  C   UNL     1       2.787   3.810  19.514  0.00  0.00    +0.000 A 
ATOM      7 BR   UNL     1       2.077   4.059  21.241  0.00  0.00    +0.000 Br
ATOM      8  C   UNL     1       2.158   3.152  18.486  0.00  0.00    +0.000 A 
ATOM      9  S   UNL     1       3.082   3.107  17.034  0.00  0.00    +0.000 S 
ATOM     10  C   UNL     1       4.354   3.995  17.813  0.00  0.00    +0.000 A 
ATOM     11  H   UNL     1       5.160   5.266  20.619  0.00  0.00    +0.000 HD
ENDROOT
BRANCH   3  12
ATOM     12  C   UNL     1       7.328   5.805  19.061  0.00  0.00    +0.000 C 
ATOM     13  O   UNL     1       7.941   6.569  18.331  0.00  0.00    +0.000 OA
BRANCH  12  14
ATOM     14  OXT UNL     1       7.782   5.446  20.281  0.00  0.00    +0.000 OA
ATOM     15  HXT UNL     1       8.431   4.723  20.233  0.00  0.00    +0.000 HD
ENDBRANCH  12  14
ENDBRANCH   3  12
TORSDOF 2
ENDMDL
