MODEL 1
REMARK VINA RESULT:      -6.5      0.000      0.000
REMARK  Name = 
REMARK  5 active torsions:
REMARK  status: ('A' for Active; 'I' for Inactive)
REMARK    1  A    between atoms: C_1  and  O_2
REMARK    2  A    between atoms: O_2  and  C_3
REMARK    3  A    between atoms: C_3  and  C_5
REMARK    4  A    between atoms: N_7  and  C_8
REMARK    5  A    between atoms: C_11  and  C_12
REMARK                            x       y       z     vdW  Elec       q    Type
REMARK                         _______ _______ _______ _____ _____    ______ ____
ROOT
ATOM      1  C   UNL     1       3.921   5.101  18.757  0.00  0.00    +0.000 C 
ATOM      2  C   UNL     1       2.705   4.954  19.689  0.00  0.00    +0.000 C 
ATOM      3  N   UNL     1       2.217   3.568  19.766  0.00  0.00    +0.000 NA
ATOM      4  C   UNL     1       1.099   3.443  20.700  0.00  0.00    +0.000 C 
ATOM      5  C   UNL     1       1.847   3.042  18.448  0.00  0.00    +0.000 C 
ATOM      6  C   UNL     1       3.029   3.087  17.485  0.00  0.00    +0.000 C 
ATOM      7  C   UNL     1       3.606   4.509  17.370  0.00  0.00    +0.000 C 
ENDROOT
BRANCH   7   8
ATOM      8  C   UNL     1       4.724   4.657  16.347  0.00  0.00    +0.000 A 
ATOM      9  C   UNL     1       5.138   5.942  15.957  0.00  0.00    +0.000 A 
ATOM     10  C   UNL     1       6.080   6.111  14.938  0.00  0.00    +0.000 A 
ATOM     11  C   UNL     1       6.627   4.998  14.306  0.00  0.00    +0.000 A 
ATOM     12 CL   UNL     1       7.740   5.204  13.010  0.00  0.00    +0.000 Cl
ATOM     13  C   UNL     1       6.267   3.717  14.712  0.00  0.00    +0.000 A 
ATOM     14  C   UNL     1       5.328   3.549  15.734  0.00  0.00    +0.000 A 
ENDBRANCH   7   8
BRANCH   1  15
ATOM     15  C   UNL     1       5.147   4.501  19.426  0.00  0.00    +0.000 C 
ATOM     16  O   UNL     1       5.331   3.316  19.664  0.00  0.00    +0.000 OA
BRANCH  15  18
ATOM     17  C   UNL     1       7.239   5.471  18.968  0.00  0.00    +0.000 C 
ATOM     18  O   UNL     1       6.033   5.496  19.735  0.00  0.00    +0.000 OA
ENDBRANCH  15  18
ENDBRANCH   1  15
TORSDOF 3
ENDMDL
MODEL 2
REMARK VINA RESULT:      -6.5      0.248      1.163
REMARK  Name = 
REMARK  5 active torsions:
REMARK  status: ('A' for Active; 'I' for Inactive)
REMARK    1  A    between atoms: C_1  and  O_2
REMARK    2  A    between atoms: O_2  and  C_3
REMARK    3  A    between atoms: C_3  and  C_5
REMARK    4  A    between atoms: N_7  and  C_8
REMARK    5  A    between atoms: C_11  and  C_12
REMARK                            x       y       z     vdW  Elec       q    Type
REMARK                         _______ _______ _______ _____ _____    ______ ____
ROOT
ATOM      1  C   UNL     1       3.910   5.049  18.917  0.00  0.00    +0.000 C 
ATOM      2  C   UNL     1       2.784   4.835  19.943  0.00  0.00    +0.000 C 
ATOM      3  N   UNL     1       2.339   3.434  20.009  0.00  0.00    +0.000 NA
ATOM      4  C   UNL     1       1.309   3.244  21.029  0.00  0.00    +0.000 C 
ATOM      5  C   UNL     1       1.869   2.946  18.708  0.00  0.00    +0.000 C 
ATOM      6  C   UNL     1       2.961   3.058  17.649  0.00  0.00    +0.000 C 
ATOM      7  C   UNL     1       3.490   4.500  17.541  0.00  0.00    +0.000 C 
ENDROOT
BRANCH   7   8
ATOM      8  C   UNL     1       4.511   4.716  16.432  0.00  0.00    +0.000 A 
ATOM      9  C   UNL     1       5.103   3.603  15.810  0.00  0.00    +0.000 A 
ATOM     10  C   UNL     1       6.125   3.768  14.871  0.00  0.00    +0.000 A 
ATOM     11  C   UNL     1       6.558   5.047  14.534  0.00  0.00    +0.000 A 
ATOM     12 CL   UNL     1       7.858   5.250  13.424  0.00  0.00    +0.000 Cl
ATOM     13  C   UNL     1       5.952   6.162  15.101  0.00  0.00    +0.000 A 
ATOM     14  C   UNL     1       4.928   5.997  16.037  0.00  0.00    +0.000 A 
ENDBRANCH   7   8
BRANCH   1  15
ATOM     15  C   UNL     1       5.205   4.459  19.454  0.00  0.00    +0.000 C 
ATOM     16  O   UNL     1       5.438   3.272  19.629  0.00  0.00    +0.000 OA
BRANCH  15  18
ATOM     17  C   UNL     1       7.209   5.522  18.838  0.00  0.00    +0.000 C 
ATOM     18  O   UNL     1       6.089   5.467  19.725  0.00  0.00    +0.000 OA
ENDBRANCH  15  18
ENDBRANCH   1  15
TORSDOF 3
ENDMDL
MODEL 3
REMARK VINA RESULT:      -6.3      3.500      5.612
REMARK  Name = 
REMARK  5 active torsions:
REMARK  status: ('A' for Active; 'I' for Inactive)
REMARK    1  A    between atoms: C_1  and  O_2
REMARK    2  A    between atoms: O_2  and  C_3
REMARK    3  A    between atoms: C_3  and  C_5
REMARK    4  A    between atoms: N_7  and  C_8
REMARK    5  A    between atoms: C_11  and  C_12
REMARK                            x       y       z     vdW  Elec       q    Type
REMARK                         _______ _______ _______ _____ _____    ______ ____
ROOT
ATOM      1  C   UNL     1       4.242   4.423  17.799  0.00  0.00    +0.000 C 
ATOM      2  C   UNL     1       4.987   3.807  16.603  0.00  0.00    +0.000 C 
ATOM      3  N   UNL     1       5.971   4.729  16.014  0.00  0.00    +0.000 NA
ATOM      4  C   UNL     1       6.706   4.102  14.916  0.00  0.00    +0.000 C 
ATOM      5  C   UNL     1       5.352   5.982  15.569  0.00  0.00    +0.000 C 
ATOM      6  C   UNL     1       4.653   6.692  16.723  0.00  0.00    +0.000 C 
ATOM      7  C   UNL     1       3.619   5.774  17.402  0.00  0.00    +0.000 C 
ENDROOT
BRANCH   7   8
ATOM      8  C   UNL     1       2.803   6.445  18.499  0.00  0.00    +0.000 A 
ATOM      9  C   UNL     1       2.532   7.821  18.415  0.00  0.00    +0.000 A 
ATOM     10  C   UNL     1       1.885   8.488  19.460  0.00  0.00    +0.000 A 
ATOM     11  C   UNL     1       1.493   7.784  20.595  0.00  0.00    +0.000 A 
ATOM     12 CL   UNL     1       0.753   8.614  21.909  0.00  0.00    +0.000 Cl
ATOM     13  C   UNL     1       1.708   6.413  20.676  0.00  0.00    +0.000 A 
ATOM     14  C   UNL     1       2.351   5.746  19.629  0.00  0.00    +0.000 A 
ENDBRANCH   7   8
BRANCH   1  15
ATOM     15  C   UNL     1       5.178   4.497  18.995  0.00  0.00    +0.000 C 
ATOM     16  O   UNL     1       5.801   5.482  19.364  0.00  0.00    +0.000 OA
BRANCH  15  18
ATOM     17  C   UNL     1       3.956   2.653  19.792  0.00  0.00    +0.000 C 
ATOM     18  O   UNL     1       5.230   3.277  19.612  0.00  0.00    +0.000 OA
ENDBRANCH  15  18
ENDBRANCH   1  15
TORSDOF 3
ENDMDL
MODEL 4
REMARK VINA RESULT:      -6.3      3.452      5.562
REMARK  Name = 
REMARK  5 active torsions:
REMARK  status: ('A' for Active; 'I' for Inactive)
REMARK    1  A    between atoms: C_1  and  O_2
REMARK    2  A    between atoms: O_2  and  C_3
REMARK    3  A    between atoms: C_3  and  C_5
REMARK    4  A    between atoms: N_7  and  C_8
REMARK    5  A    between atoms: C_11  and  C_12
REMARK                            x       y       z     vdW  Elec       q    Type
REMARK                         _______ _______ _______ _____ _____    ______ ____
ROOT
ATOM      1  C   UNL     1       6.464   4.801  16.922  0.00  0.00    +0.000 C 
ATOM      2  C   UNL     1       7.455   4.762  15.745  0.00  0.00    +0.000 C 
ATOM      3  N   UNL     1       6.836   5.162  14.472  0.00  0.00    +0.000 NA
ATOM      4  C   UNL     1       7.809   5.172  13.381  0.00  0.00    +0.000 C 
ATOM      5  C   UNL     1       5.688   4.315  14.129  0.00  0.00    +0.000 C 
ATOM      6  C   UNL     1       4.624   4.360  15.221  0.00  0.00    +0.000 C 
ATOM      7  C   UNL     1       5.210   3.971  16.591  0.00  0.00    +0.000 C 
ENDROOT
BRANCH   7   8
ATOM      8  C   UNL     1       4.186   3.891  17.715  0.00  0.00    +0.000 A 
ATOM      9  C   UNL     1       4.568   3.369  18.963  0.00  0.00    +0.000 A 
ATOM     10  C   UNL     1       3.626   3.177  19.977  0.00  0.00    +0.000 A 
ATOM     11  C   UNL     1       2.293   3.514  19.759  0.00  0.00    +0.000 A 
ATOM     12 CL   UNL     1       1.120   3.220  20.984  0.00  0.00    +0.000 Cl
ATOM     13  C   UNL     1       1.904   4.077  18.550  0.00  0.00    +0.000 A 
ATOM     14  C   UNL     1       2.847   4.274  17.538  0.00  0.00    +0.000 A 
ENDBRANCH   7   8
BRANCH   1  15
ATOM     15  C   UNL     1       6.175   6.247  17.293  0.00  0.00    +0.000 C 
ATOM     16  O   UNL     1       5.192   6.893  16.960  0.00  0.00    +0.000 OA
BRANCH  15  18
ATOM     17  C   UNL     1       7.740   7.973  17.605  0.00  0.00    +0.000 C 
ATOM     18  O   UNL     1       7.193   6.734  18.065  0.00  0.00    +0.000 OA
ENDBRANCH  15  18
ENDBRANCH   1  15
TORSDOF 3
ENDMDL
MODEL 5
REMARK VINA RESULT:      -6.2      1.870      2.415
REMARK  Name = 
REMARK  5 active torsions:
REMARK  status: ('A' for Active; 'I' for Inactive)
REMARK    1  A    between atoms: C_1  and  O_2
REMARK    2  A    between atoms: O_2  and  C_3
REMARK    3  A    between atoms: C_3  and  C_5
REMARK    4  A    between atoms: N_7  and  C_8
REMARK    5  A    between atoms: C_11  and  C_12
REMARK                            x       y       z     vdW  Elec       q    Type
REMARK                         _______ _______ _______ _____ _____    ______ ____
ROOT
ATOM      1  C   UNL     1       2.724   4.424  18.170  0.00  0.00    +0.000 C 
ATOM      2  C   UNL     1       1.790   3.765  19.200  0.00  0.00    +0.000 C 
ATOM      3  N   UNL     1       2.476   3.450  20.463  0.00  0.00    +0.000 NA
ATOM      4  C   UNL     1       1.558   2.876  21.445  0.00  0.00    +0.000 C 
ATOM      5  C   UNL     1       3.627   2.564  20.258  0.00  0.00    +0.000 C 
ATOM      6  C   UNL     1       4.637   3.185  19.300  0.00  0.00    +0.000 C 
ATOM      7  C   UNL     1       3.981   3.561  17.958  0.00  0.00    +0.000 C 
ENDROOT
BRANCH   7   8
ATOM      8  C   UNL     1       4.948   4.093  16.909  0.00  0.00    +0.000 A 
ATOM      9  C   UNL     1       4.545   4.151  15.564  0.00  0.00    +0.000 A 
ATOM     10  C   UNL     1       5.446   4.525  14.563  0.00  0.00    +0.000 A 
ATOM     11  C   UNL     1       6.756   4.857  14.897  0.00  0.00    +0.000 A 
ATOM     12 CL   UNL     1       7.884   5.258  13.660  0.00  0.00    +0.000 Cl
ATOM     13  C   UNL     1       7.161   4.854  16.227  0.00  0.00    +0.000 A 
ATOM     14  C   UNL     1       6.258   4.483  17.227  0.00  0.00    +0.000 A 
ENDBRANCH   7   8
BRANCH   1  15
ATOM     15  C   UNL     1       3.015   5.855  18.594  0.00  0.00    +0.000 C 
ATOM     16  O   UNL     1       3.796   6.203  19.468  0.00  0.00    +0.000 OA
BRANCH  15  18
ATOM     17  C   UNL     1       2.394   8.091  18.218  0.00  0.00    +0.000 C 
ATOM     18  O   UNL     1       2.261   6.717  17.846  0.00  0.00    +0.000 OA
ENDBRANCH  15  18
ENDBRANCH   1  15
TORSDOF 3
ENDMDL
MODEL 6
REMARK VINA RESULT:      -6.2      3.579      4.847
REMARK  Name = 
REMARK  5 active torsions:
REMARK  status: ('A' for Active; 'I' for Inactive)
REMARK    1  A    between atoms: C_1  and  O_2
REMARK    2  A    between atoms: O_2  and  C_3
REMARK    3  A    between atoms: C_3  and  C_5
REMARK    4  A    between atoms: N_7  and  C_8
REMARK    5  A    between atoms: C_11  and  C_12
REMARK                            x       y       z     vdW  Elec       q    Type
REMARK                         _______ _______ _______ _____ _____    ______ ____
ROOT
ATOM      1  C   UNL     1       3.808   4.842  19.608  0.00  0.00    +0.000 C 
ATOM      2  C   UNL     1       3.923   3.308  19.643  0.00  0.00    +0.000 C 
ATOM      3  N   UNL     1       3.617   2.689  18.343  0.00  0.00    +0.000 NA
ATOM      4  C   UNL     1       3.787   1.238  18.385  0.00  0.00    +0.000 C 
ATOM      5  C   UNL     1       2.271   3.035  17.874  0.00  0.00    +0.000 C 
ATOM      6  C   UNL     1       2.104   4.545  17.743  0.00  0.00    +0.000 C 
ATOM      7  C   UNL     1       2.430   5.262  19.066  0.00  0.00    +0.000 C 
ENDROOT
BRANCH   7   8
ATOM      8  C   UNL     1       2.186   6.765  19.046  0.00  0.00    +0.000 A 
ATOM      9  C   UNL     1       1.811   7.420  20.232  0.00  0.00    +0.000 A 
ATOM     10  C   UNL     1       1.469   8.776  20.223  0.00  0.00    +0.000 A 
ATOM     11  C   UNL     1       1.510   9.494  19.031  0.00  0.00    +0.000 A 
ATOM     12 CL   UNL     1       1.030  11.147  19.006  0.00  0.00    +0.000 Cl
ATOM     13  C   UNL     1       1.926   8.876  17.857  0.00  0.00    +0.000 A 
ATOM     14  C   UNL     1       2.271   7.522  17.868  0.00  0.00    +0.000 A 
ENDBRANCH   7   8
BRANCH   1  15
ATOM     15  C   UNL     1       4.984   5.420  18.836  0.00  0.00    +0.000 C 
ATOM     16  O   UNL     1       4.988   5.729  17.654  0.00  0.00    +0.000 OA
BRANCH  15  18
ATOM     17  C   UNL     1       7.319   5.641  18.995  0.00  0.00    +0.000 C 
ATOM     18  O   UNL     1       6.062   5.544  19.669  0.00  0.00    +0.000 OA
ENDBRANCH  15  18
ENDBRANCH   1  15
TORSDOF 3
ENDMDL
MODEL 7
REMARK VINA RESULT:      -6.2      3.449      5.671
REMARK  Name = 
REMARK  5 active torsions:
REMARK  status: ('A' for Active; 'I' for Inactive)
REMARK    1  A    between atoms: C_1  and  O_2
REMARK    2  A    between atoms: O_2  and  C_3
REMARK    3  A    between atoms: C_3  and  C_5
REMARK    4  A    between atoms: N_7  and  C_8
REMARK    5  A    between atoms: C_11  and  C_12
REMARK                            x       y       z     vdW  Elec       q    Type
REMARK                         _______ _______ _______ _____ _____    ______ ____
ROOT
ATOM      1  C   UNL     1       6.201   5.358  16.542  0.00  0.00    +0.000 C 
ATOM      2  C   UNL     1       7.352   5.434  15.523  0.00  0.00    +0.000 C 
ATOM      3  N   UNL     1       6.909   5.144  14.150  0.00  0.00    +0.000 NA
ATOM      4  C   UNL     1       8.007   5.277  13.192  0.00  0.00    +0.000 C 
ATOM      5  C   UNL     1       6.290   3.819  14.040  0.00  0.00    +0.000 C 
ATOM      6  C   UNL     1       5.090   3.693  14.972  0.00  0.00    +0.000 C 
ATOM      7  C   UNL     1       5.476   4.004  16.430  0.00  0.00    +0.000 C 
ENDROOT
BRANCH   7   8
ATOM      8  C   UNL     1       4.355   3.798  17.438  0.00  0.00    +0.000 A 
ATOM      9  C   UNL     1       3.027   3.707  16.987  0.00  0.00    +0.000 A 
ATOM     10  C   UNL     1       1.966   3.633  17.895  0.00  0.00    +0.000 A 
ATOM     11  C   UNL     1       2.222   3.637  19.263  0.00  0.00    +0.000 A 
ATOM     12 CL   UNL     1       0.915   3.608  20.383  0.00  0.00    +0.000 Cl
ATOM     13  C   UNL     1       3.532   3.676  19.729  0.00  0.00    +0.000 A 
ATOM     14  C   UNL     1       4.591   3.746  18.821  0.00  0.00    +0.000 A 
ENDBRANCH   7   8
BRANCH   1  15
ATOM     15  C   UNL     1       5.294   6.566  16.372  0.00  0.00    +0.000 C 
ATOM     16  O   UNL     1       4.965   7.077  15.312  0.00  0.00    +0.000 OA
BRANCH  15  18
ATOM     17  C   UNL     1       3.512   7.378  17.673  0.00  0.00    +0.000 C 
ATOM     18  O   UNL     1       4.892   7.013  17.601  0.00  0.00    +0.000 OA
ENDBRANCH  15  18
ENDBRANCH   1  15
TORSDOF 3
ENDMDL
MODEL 8
REMARK VINA RESULT:      -6.2      2.577      3.402
REMARK  Name = 
REMARK  5 active torsions:
REMARK  status: ('A' for Active; 'I' for Inactive)
REMARK    1  A    between atoms: C_1  and  O_2
REMARK    2  A    between atoms: O_2  and  C_3
REMARK    3  A    between atoms: C_3  and  C_5
REMARK    4  A    between atoms: N_7  and  C_8
REMARK    5  A    between atoms: C_11  and  C_12
REMARK                            x       y       z     vdW  Elec       q    Type
REMARK                         _______ _______ _______ _____ _____    ______ ____
ROOT
ATOM      1  C   UNL     1       2.630   5.061  18.102  0.00  0.00    +0.000 C 
ATOM      2  C   UNL     1       1.489   4.034  18.007  0.00  0.00    +0.000 C 
ATOM      3  N   UNL     1       1.713   2.859  18.864  0.00  0.00    +0.000 NA
ATOM      4  C   UNL     1       0.591   1.924  18.800  0.00  0.00    +0.000 C 
ATOM      5  C   UNL     1       2.970   2.175  18.541  0.00  0.00    +0.000 C 
ATOM      6  C   UNL     1       4.162   3.115  18.685  0.00  0.00    +0.000 C 
ATOM      7  C   UNL     1       3.985   4.382  17.827  0.00  0.00    +0.000 C 
ENDROOT
BRANCH   7   8
ATOM      8  C   UNL     1       5.181   5.323  17.836  0.00  0.00    +0.000 A 
ATOM      9  C   UNL     1       6.231   5.099  18.744  0.00  0.00    +0.000 A 
ATOM     10  C   UNL     1       7.287   6.008  18.855  0.00  0.00    +0.000 A 
ATOM     11  C   UNL     1       7.311   7.146  18.053  0.00  0.00    +0.000 A 
ATOM     12 CL   UNL     1       8.577   8.298  18.232  0.00  0.00    +0.000 Cl
ATOM     13  C   UNL     1       6.308   7.360  17.115  0.00  0.00    +0.000 A 
ATOM     14  C   UNL     1       5.255   6.449  17.001  0.00  0.00    +0.000 A 
ENDBRANCH   7   8
BRANCH   1  15
ATOM     15  C   UNL     1       2.554   5.780  19.440  0.00  0.00    +0.000 C 
ATOM     16  O   UNL     1       2.531   5.252  20.542  0.00  0.00    +0.000 OA
BRANCH  15  18
ATOM     17  C   UNL     1       1.784   7.857  20.228  0.00  0.00    +0.000 C 
ATOM     18  O   UNL     1       2.509   7.131  19.232  0.00  0.00    +0.000 OA
ENDBRANCH  15  18
ENDBRANCH   1  15
TORSDOF 3
ENDMDL
MODEL 9
REMARK VINA RESULT:      -6.1      3.457      5.554
REMARK  Name = 
REMARK  5 active torsions:
REMARK  status: ('A' for Active; 'I' for Inactive)
REMARK    1  A    between atoms: C_1  and  O_2
REMARK    2  A    between atoms: O_2  and  C_3
REMARK    3  A    between atoms: C_3  and  C_5
REMARK    4  A    between atoms: N_7  and  C_8
REMARK    5  A    between atoms: C_11  and  C_12
REMARK                            x       y       z     vdW  Elec       q    Type
REMARK                         _______ _______ _______ _____ _____    ______ ____
ROOT
ATOM      1  C   UNL     1       6.518   5.049  16.538  0.00  0.00    +0.000 C 
ATOM      2  C   UNL     1       7.579   5.036  15.423  0.00  0.00    +0.000 C 
ATOM      3  N   UNL     1       6.987   5.140  14.080  0.00  0.00    +0.000 NA
ATOM      4  C   UNL     1       8.016   5.182  13.042  0.00  0.00    +0.000 C 
ATOM      5  C   UNL     1       6.034   4.057  13.815  0.00  0.00    +0.000 C 
ATOM      6  C   UNL     1       4.907   4.050  14.842  0.00  0.00    +0.000 C 
ATOM      7  C   UNL     1       5.456   3.965  16.277  0.00  0.00    +0.000 C 
ENDROOT
BRANCH   7   8
ATOM      8  C   UNL     1       4.388   3.849  17.356  0.00  0.00    +0.000 A 
ATOM      9  C   UNL     1       3.034   3.781  16.985  0.00  0.00    +0.000 A 
ATOM     10  C   UNL     1       2.026   3.790  17.953  0.00  0.00    +0.000 A 
ATOM     11  C   UNL     1       2.359   3.855  19.303  0.00  0.00    +0.000 A 
ATOM     12 CL   UNL     1       1.118   3.928  20.493  0.00  0.00    +0.000 Cl
ATOM     13  C   UNL     1       3.694   3.872  19.692  0.00  0.00    +0.000 A 
ATOM     14  C   UNL     1       4.702   3.860  18.725  0.00  0.00    +0.000 A 
ENDBRANCH   7   8
BRANCH   1  15
ATOM     15  C   UNL     1       5.952   6.453  16.683  0.00  0.00    +0.000 C 
ATOM     16  O   UNL     1       4.791   6.785  16.497  0.00  0.00    +0.000 OA
BRANCH  15  18
ATOM     17  C   UNL     1       7.668   6.912  18.223  0.00  0.00    +0.000 C 
ATOM     18  O   UNL     1       6.950   7.313  17.054  0.00  0.00    +0.000 OA
ENDBRANCH  15  18
ENDBRANCH   1  15
TORSDOF 3
ENDMDL
