MODEL 1
REMARK VINA RESULT:      -8.3      0.000      0.000
REMARK  Name = 
REMARK  6 active torsions:
REMARK  status: ('A' for Active; 'I' for Inactive)
REMARK    1  A    between atoms: C_1  and  O_2
REMARK    2  A    between atoms: O_2  and  C_3
REMARK    3  A    between atoms: C_6  and  C_7
REMARK    4  A    between atoms: C_9  and  C_10
REMARK    5  A    between atoms: N_17  and  S_18
REMARK    6  A    between atoms: S_18  and  C_21
REMARK                            x       y       z     vdW  Elec       q    Type
REMARK                         _______ _______ _______ _____ _____    ______ ____
ROOT
ATOM      1  C   UNL     1       5.113   5.655  17.438  0.00  0.00    +0.000 C 
ATOM      2  C   UNL     1       4.416   7.020  17.287  0.00  0.00    +0.000 C 
ATOM      3  C   UNL     1       3.224   6.850  18.195  0.00  0.00    +0.000 C 
ATOM      4  N   UNL     1       3.008   5.640  18.608  0.00  0.00    +0.000 NA
ATOM      5  N   UNL     1       4.035   4.820  18.007  0.00  0.00    +0.000 N 
ENDROOT
BRANCH   1   9
ATOM      6  C   UNL     1       6.641   4.438  13.580  0.00  0.00    +0.000 A 
ATOM      7  C   UNL     1       5.304   4.211  13.911  0.00  0.00    +0.000 A 
ATOM      8  C   UNL     1       4.811   4.569  15.169  0.00  0.00    +0.000 A 
ATOM      9  C   UNL     1       5.658   5.158  16.118  0.00  0.00    +0.000 A 
ATOM     10  C   UNL     1       7.014   5.327  15.796  0.00  0.00    +0.000 A 
ATOM     11  C   UNL     1       7.501   4.965  14.539  0.00  0.00    +0.000 A 
BRANCH   6  13
ATOM     12  C   UNL     1       6.370   2.922  11.798  0.00  0.00    +0.000 C 
ATOM     13  O   UNL     1       7.010   4.088  12.310  0.00  0.00    +0.000 OA
ENDBRANCH   6  13
ENDBRANCH   1   9
BRANCH   3  14
ATOM     14  C   UNL     1       2.365   7.988  18.584  0.00  0.00    +0.000 A 
ATOM     15  C   UNL     1       2.161   9.077  17.730  0.00  0.00    +0.000 A 
ATOM     16  C   UNL     1       1.386  10.156  18.155  0.00  0.00    +0.000 A 
ATOM     17  C   UNL     1       0.809  10.149  19.426  0.00  0.00    +0.000 A 
ATOM     18  C   UNL     1       0.985   9.053  20.269  0.00  0.00    +0.000 A 
ATOM     19  C   UNL     1       1.758   7.971  19.846  0.00  0.00    +0.000 A 
ENDBRANCH   3  14
BRANCH   5  20
ATOM     20  S   UNL     1       4.324   3.256  18.617  0.00  0.00    +0.000 S 
ATOM     21  O   UNL     1       4.172   2.291  17.550  0.00  0.00    +0.000 OA
ATOM     22  O   UNL     1       5.536   3.283  19.414  0.00  0.00    +0.000 OA
BRANCH  20  23
ATOM     23  C   UNL     1       2.970   2.976  19.742  0.00  0.00    +0.000 A 
ATOM     24  C   UNL     1       3.217   2.881  21.116  0.00  0.00    +0.000 A 
ATOM     25  C   UNL     1       2.144   2.719  21.998  0.00  0.00    +0.000 A 
ATOM     26  C   UNL     1       0.837   2.672  21.508  0.00  0.00    +0.000 A 
ATOM     27  C   UNL     1       0.594   2.790  20.139  0.00  0.00    +0.000 A 
ATOM     28  C   UNL     1       1.661   2.941  19.252  0.00  0.00    +0.000 A 
ENDBRANCH  20  23
ENDBRANCH   5  20
TORSDOF 5
ENDMDL
MODEL 2
REMARK VINA RESULT:      -8.2      0.185      1.298
REMARK  Name = 
REMARK  6 active torsions:
REMARK  status: ('A' for Active; 'I' for Inactive)
REMARK    1  A    between atoms: C_1  and  O_2
REMARK    2  A    between atoms: O_2  and  C_3
REMARK    3  A    between atoms: C_6  and  C_7
REMARK    4  A    between atoms: C_9  and  C_10
REMARK    5  A    between atoms: N_17  and  S_18
REMARK    6  A    between atoms: S_18  and  C_21
REMARK                            x       y       z     vdW  Elec       q    Type
REMARK                         _______ _______ _______ _____ _____    ______ ____
ROOT
ATOM      1  C   UNL     1       5.037   5.763  17.366  0.00  0.00    +0.000 C 
ATOM      2  C   UNL     1       4.307   7.116  17.262  0.00  0.00    +0.000 C 
ATOM      3  C   UNL     1       3.149   6.904  18.206  0.00  0.00    +0.000 C 
ATOM      4  N   UNL     1       2.973   5.683  18.603  0.00  0.00    +0.000 NA
ATOM      5  N   UNL     1       3.996   4.896  17.955  0.00  0.00    +0.000 N 
ENDROOT
BRANCH   1   9
ATOM      6  C   UNL     1       6.530   4.242  13.604  0.00  0.00    +0.000 A 
ATOM      7  C   UNL     1       7.382   4.921  14.476  0.00  0.00    +0.000 A 
ATOM      8  C   UNL     1       6.899   5.447  15.678  0.00  0.00    +0.000 A 
ATOM      9  C   UNL     1       5.548   5.302  16.020  0.00  0.00    +0.000 A 
ATOM     10  C   UNL     1       4.688   4.669  15.109  0.00  0.00    +0.000 A 
ATOM     11  C   UNL     1       5.175   4.149  13.908  0.00  0.00    +0.000 A 
BRANCH   6  13
ATOM     12  C   UNL     1       6.319   2.782  11.768  0.00  0.00    +0.000 C 
ATOM     13  O   UNL     1       7.112   3.731  12.475  0.00  0.00    +0.000 OA
ENDBRANCH   6  13
ENDBRANCH   1   9
BRANCH   3  14
ATOM     14  C   UNL     1       2.279   8.016  18.642  0.00  0.00    +0.000 A 
ATOM     15  C   UNL     1       1.825   8.117  19.961  0.00  0.00    +0.000 A 
ATOM     16  C   UNL     1       0.961   9.152  20.321  0.00  0.00    +0.000 A 
ATOM     17  C   UNL     1       0.556  10.090  19.370  0.00  0.00    +0.000 A 
ATOM     18  C   UNL     1       1.029  10.010  18.061  0.00  0.00    +0.000 A 
ATOM     19  C   UNL     1       1.894   8.977  17.699  0.00  0.00    +0.000 A 
ENDBRANCH   3  14
BRANCH   5  20
ATOM     20  S   UNL     1       4.339   3.329  18.528  0.00  0.00    +0.000 S 
ATOM     21  O   UNL     1       4.177   2.379  17.448  0.00  0.00    +0.000 OA
ATOM     22  O   UNL     1       5.575   3.370  19.288  0.00  0.00    +0.000 OA
BRANCH  20  23
ATOM     23  C   UNL     1       3.027   2.998  19.689  0.00  0.00    +0.000 A 
ATOM     24  C   UNL     1       3.314   2.914  21.055  0.00  0.00    +0.000 A 
ATOM     25  C   UNL     1       2.272   2.712  21.965  0.00  0.00    +0.000 A 
ATOM     26  C   UNL     1       0.955   2.614  21.510  0.00  0.00    +0.000 A 
ATOM     27  C   UNL     1       0.672   2.721  20.148  0.00  0.00    +0.000 A 
ATOM     28  C   UNL     1       1.708   2.912  19.233  0.00  0.00    +0.000 A 
ENDBRANCH  20  23
ENDBRANCH   5  20
TORSDOF 5
ENDMDL
MODEL 3
REMARK VINA RESULT:      -8.1      0.184      1.304
REMARK  Name = 
REMARK  6 active torsions:
REMARK  status: ('A' for Active; 'I' for Inactive)
REMARK    1  A    between atoms: C_1  and  O_2
REMARK    2  A    between atoms: O_2  and  C_3
REMARK    3  A    between atoms: C_6  and  C_7
REMARK    4  A    between atoms: C_9  and  C_10
REMARK    5  A    between atoms: N_17  and  S_18
REMARK    6  A    between atoms: S_18  and  C_21
REMARK                            x       y       z     vdW  Elec       q    Type
REMARK                         _______ _______ _______ _____ _____    ______ ____
ROOT
ATOM      1  C   UNL     1       5.027   5.802  17.357  0.00  0.00    +0.000 C 
ATOM      2  C   UNL     1       4.320   7.164  17.232  0.00  0.00    +0.000 C 
ATOM      3  C   UNL     1       3.149   6.981  18.166  0.00  0.00    +0.000 C 
ATOM      4  N   UNL     1       2.950   5.766  18.574  0.00  0.00    +0.000 NA
ATOM      5  N   UNL     1       3.967   4.957  17.944  0.00  0.00    +0.000 N 
ENDROOT
BRANCH   1   9
ATOM      6  C   UNL     1       6.531   4.219  13.624  0.00  0.00    +0.000 A 
ATOM      7  C   UNL     1       7.387   4.886  14.501  0.00  0.00    +0.000 A 
ATOM      8  C   UNL     1       6.902   5.431  15.693  0.00  0.00    +0.000 A 
ATOM      9  C   UNL     1       5.544   5.319  16.021  0.00  0.00    +0.000 A 
ATOM     10  C   UNL     1       4.681   4.698  15.103  0.00  0.00    +0.000 A 
ATOM     11  C   UNL     1       5.170   4.158  13.913  0.00  0.00    +0.000 A 
BRANCH   6  13
ATOM     12  C   UNL     1       6.305   2.758  11.791  0.00  0.00    +0.000 C 
ATOM     13  O   UNL     1       7.115   3.687  12.506  0.00  0.00    +0.000 OA
ENDBRANCH   6  13
ENDBRANCH   1   9
BRANCH   3  14
ATOM     14  C   UNL     1       2.293   8.110  18.583  0.00  0.00    +0.000 A 
ATOM     15  C   UNL     1       2.031   9.186  17.728  0.00  0.00    +0.000 A 
ATOM     16  C   UNL     1       1.262  10.259  18.178  0.00  0.00    +0.000 A 
ATOM     17  C   UNL     1       0.747  10.259  19.476  0.00  0.00    +0.000 A 
ATOM     18  C   UNL     1       0.982   9.176  20.322  0.00  0.00    +0.000 A 
ATOM     19  C   UNL     1       1.749   8.101  19.874  0.00  0.00    +0.000 A 
ENDBRANCH   3  14
BRANCH   5  20
ATOM     20  S   UNL     1       4.279   3.390  18.535  0.00  0.00    +0.000 S 
ATOM     21  O   UNL     1       4.073   2.429  17.474  0.00  0.00    +0.000 OA
ATOM     22  O   UNL     1       5.528   3.410  19.274  0.00  0.00    +0.000 OA
BRANCH  20  23
ATOM     23  C   UNL     1       2.979   3.112  19.723  0.00  0.00    +0.000 A 
ATOM     24  C   UNL     1       1.654   2.998  19.289  0.00  0.00    +0.000 A 
ATOM     25  C   UNL     1       0.647   2.722  20.219  0.00  0.00    +0.000 A 
ATOM     26  C   UNL     1       0.968   2.545  21.566  0.00  0.00    +0.000 A 
ATOM     27  C   UNL     1       2.294   2.636  21.990  0.00  0.00    +0.000 A 
ATOM     28  C   UNL     1       3.303   2.922  21.069  0.00  0.00    +0.000 A 
ENDBRANCH  20  23
ENDBRANCH   5  20
TORSDOF 5
ENDMDL
MODEL 4
REMARK VINA RESULT:      -8.1      0.719      1.186
REMARK  Name = 
REMARK  6 active torsions:
REMARK  status: ('A' for Active; 'I' for Inactive)
REMARK    1  A    between atoms: C_1  and  O_2
REMARK    2  A    between atoms: O_2  and  C_3
REMARK    3  A    between atoms: C_6  and  C_7
REMARK    4  A    between atoms: C_9  and  C_10
REMARK    5  A    between atoms: N_17  and  S_18
REMARK    6  A    between atoms: S_18  and  C_21
REMARK                            x       y       z     vdW  Elec       q    Type
REMARK                         _______ _______ _______ _____ _____    ______ ____
ROOT
ATOM      1  C   UNL     1       4.691   5.462  17.437  0.00  0.00    +0.000 C 
ATOM      2  C   UNL     1       4.336   6.958  17.519  0.00  0.00    +0.000 C 
ATOM      3  C   UNL     1       2.925   6.903  18.049  0.00  0.00    +0.000 C 
ATOM      4  N   UNL     1       2.377   5.729  18.047  0.00  0.00    +0.000 NA
ATOM      5  N   UNL     1       3.358   4.826  17.491  0.00  0.00    +0.000 N 
ENDROOT
BRANCH   1   9
ATOM      6  C   UNL     1       6.923   4.763  13.800  0.00  0.00    +0.000 A 
ATOM      7  C   UNL     1       5.583   4.381  13.888  0.00  0.00    +0.000 A 
ATOM      8  C   UNL     1       4.865   4.571  15.072  0.00  0.00    +0.000 A 
ATOM      9  C   UNL     1       5.484   5.145  16.190  0.00  0.00    +0.000 A 
ATOM     10  C   UNL     1       6.848   5.471  16.110  0.00  0.00    +0.000 A 
ATOM     11  C   UNL     1       7.561   5.276  14.926  0.00  0.00    +0.000 A 
BRANCH   6  13
ATOM     12  C   UNL     1       6.920   3.567  11.771  0.00  0.00    +0.000 C 
ATOM     13  O   UNL     1       7.522   4.570  12.585  0.00  0.00    +0.000 OA
ENDBRANCH   6  13
ENDBRANCH   1   9
BRANCH   3  14
ATOM     14  C   UNL     1       2.221   8.108  18.535  0.00  0.00    +0.000 A 
ATOM     15  C   UNL     1       2.091   9.251  17.739  0.00  0.00    +0.000 A 
ATOM     16  C   UNL     1       1.467  10.388  18.254  0.00  0.00    +0.000 A 
ATOM     17  C   UNL     1       0.966  10.385  19.557  0.00  0.00    +0.000 A 
ATOM     18  C   UNL     1       1.068   9.239  20.343  0.00  0.00    +0.000 A 
ATOM     19  C   UNL     1       1.690   8.100  19.830  0.00  0.00    +0.000 A 
ENDBRANCH   3  14
BRANCH   5  20
ATOM     20  S   UNL     1       3.161   3.146  17.688  0.00  0.00    +0.000 S 
ATOM     21  O   UNL     1       2.125   2.677  16.794  0.00  0.00    +0.000 OA
ATOM     22  O   UNL     1       4.470   2.520  17.687  0.00  0.00    +0.000 OA
BRANCH  20  23
ATOM     23  C   UNL     1       2.509   2.981  19.340  0.00  0.00    +0.000 A 
ATOM     24  C   UNL     1       1.132   3.091  19.557  0.00  0.00    +0.000 A 
ATOM     25  C   UNL     1       0.622   2.903  20.845  0.00  0.00    +0.000 A 
ATOM     26  C   UNL     1       1.482   2.590  21.900  0.00  0.00    +0.000 A 
ATOM     27  C   UNL     1       2.853   2.459  21.673  0.00  0.00    +0.000 A 
ATOM     28  C   UNL     1       3.370   2.655  20.392  0.00  0.00    +0.000 A 
ENDBRANCH  20  23
ENDBRANCH   5  20
TORSDOF 5
ENDMDL
MODEL 5
REMARK VINA RESULT:      -8.0      0.183      1.306
REMARK  Name = 
REMARK  6 active torsions:
REMARK  status: ('A' for Active; 'I' for Inactive)
REMARK    1  A    between atoms: C_1  and  O_2
REMARK    2  A    between atoms: O_2  and  C_3
REMARK    3  A    between atoms: C_6  and  C_7
REMARK    4  A    between atoms: C_9  and  C_10
REMARK    5  A    between atoms: N_17  and  S_18
REMARK    6  A    between atoms: S_18  and  C_21
REMARK                            x       y       z     vdW  Elec       q    Type
REMARK                         _______ _______ _______ _____ _____    ______ ____
ROOT
ATOM      1  C   UNL     1       5.153   5.648  17.335  0.00  0.00    +0.000 C 
ATOM      2  C   UNL     1       4.468   7.019  17.180  0.00  0.00    +0.000 C 
ATOM      3  C   UNL     1       3.267   6.857  18.079  0.00  0.00    +0.000 C 
ATOM      4  N   UNL     1       3.039   5.648  18.488  0.00  0.00    +0.000 NA
ATOM      5  N   UNL     1       4.063   4.821  17.894  0.00  0.00    +0.000 N 
ENDROOT
BRANCH   1   9
ATOM      6  C   UNL     1       6.664   4.412  13.477  0.00  0.00    +0.000 A 
ATOM      7  C   UNL     1       5.395   4.011  13.897  0.00  0.00    +0.000 A 
ATOM      8  C   UNL     1       4.913   4.377  15.157  0.00  0.00    +0.000 A 
ATOM      9  C   UNL     1       5.704   5.149  16.019  0.00  0.00    +0.000 A 
ATOM     10  C   UNL     1       7.001   5.497  15.610  0.00  0.00    +0.000 A 
ATOM     11  C   UNL     1       7.478   5.126  14.352  0.00  0.00    +0.000 A 
BRANCH   6  13
ATOM     12  C   UNL     1       6.379   2.857  11.731  0.00  0.00    +0.000 C 
ATOM     13  O   UNL     1       7.022   4.035  12.211  0.00  0.00    +0.000 OA
ENDBRANCH   6  13
ENDBRANCH   1   9
BRANCH   3  14
ATOM     14  C   UNL     1       2.414   8.001  18.463  0.00  0.00    +0.000 A 
ATOM     15  C   UNL     1       1.834   8.089  19.732  0.00  0.00    +0.000 A 
ATOM     16  C   UNL     1       0.991   9.158  20.038  0.00  0.00    +0.000 A 
ATOM     17  C   UNL     1       0.732  10.143  19.082  0.00  0.00    +0.000 A 
ATOM     18  C   UNL     1       1.331  10.074  17.826  0.00  0.00    +0.000 A 
ATOM     19  C   UNL     1       2.175   9.007  17.518  0.00  0.00    +0.000 A 
ENDBRANCH   3  14
BRANCH   5  20
ATOM     20  S   UNL     1       4.336   3.254  18.504  0.00  0.00    +0.000 S 
ATOM     21  O   UNL     1       4.117   2.286  17.451  0.00  0.00    +0.000 OA
ATOM     22  O   UNL     1       5.579   3.254  19.253  0.00  0.00    +0.000 OA
BRANCH  20  23
ATOM     23  C   UNL     1       3.020   3.017  19.684  0.00  0.00    +0.000 A 
ATOM     24  C   UNL     1       1.696   2.934  19.241  0.00  0.00    +0.000 A 
ATOM     25  C   UNL     1       0.675   2.690  20.165  0.00  0.00    +0.000 A 
ATOM     26  C   UNL     1       0.982   2.514  21.516  0.00  0.00    +0.000 A 
ATOM     27  C   UNL     1       2.307   2.575  21.950  0.00  0.00    +0.000 A 
ATOM     28  C   UNL     1       3.330   2.829  21.034  0.00  0.00    +0.000 A 
ENDBRANCH  20  23
ENDBRANCH   5  20
TORSDOF 5
ENDMDL
MODEL 6
REMARK VINA RESULT:      -7.9      0.673      1.193
REMARK  Name = 
REMARK  6 active torsions:
REMARK  status: ('A' for Active; 'I' for Inactive)
REMARK    1  A    between atoms: C_1  and  O_2
REMARK    2  A    between atoms: O_2  and  C_3
REMARK    3  A    between atoms: C_6  and  C_7
REMARK    4  A    between atoms: C_9  and  C_10
REMARK    5  A    between atoms: N_17  and  S_18
REMARK    6  A    between atoms: S_18  and  C_21
REMARK                            x       y       z     vdW  Elec       q    Type
REMARK                         _______ _______ _______ _____ _____    ______ ____
ROOT
ATOM      1  C   UNL     1       4.675   5.458  17.316  0.00  0.00    +0.000 C 
ATOM      2  C   UNL     1       4.282   6.942  17.443  0.00  0.00    +0.000 C 
ATOM      3  C   UNL     1       2.913   6.837  18.067  0.00  0.00    +0.000 C 
ATOM      4  N   UNL     1       2.402   5.646  18.086  0.00  0.00    +0.000 NA
ATOM      5  N   UNL     1       3.369   4.781  17.452  0.00  0.00    +0.000 N 
ENDROOT
BRANCH   1   9
ATOM      6  C   UNL     1       6.751   4.457  13.657  0.00  0.00    +0.000 A 
ATOM      7  C   UNL     1       7.440   5.047  14.718  0.00  0.00    +0.000 A 
ATOM      8  C   UNL     1       6.769   5.406  15.891  0.00  0.00    +0.000 A 
ATOM      9  C   UNL     1       5.391   5.181  16.014  0.00  0.00    +0.000 A 
ATOM     10  C   UNL     1       4.698   4.642  14.919  0.00  0.00    +0.000 A 
ATOM     11  C   UNL     1       5.372   4.288  13.749  0.00  0.00    +0.000 A 
BRANCH   6  13
ATOM     12  C   UNL     1       6.920   3.130  11.720  0.00  0.00    +0.000 C 
ATOM     13  O   UNL     1       7.509   4.108  12.573  0.00  0.00    +0.000 OA
ENDBRANCH   6  13
ENDBRANCH   1   9
BRANCH   3  14
ATOM     14  C   UNL     1       2.208   8.014  18.616  0.00  0.00    +0.000 A 
ATOM     15  C   UNL     1       2.005   9.168  17.853  0.00  0.00    +0.000 A 
ATOM     16  C   UNL     1       1.382  10.278  18.425  0.00  0.00    +0.000 A 
ATOM     17  C   UNL     1       0.956  10.236  19.753  0.00  0.00    +0.000 A 
ATOM     18  C   UNL     1       1.130   9.078  20.509  0.00  0.00    +0.000 A 
ATOM     19  C   UNL     1       1.750   7.966  19.939  0.00  0.00    +0.000 A 
ENDBRANCH   3  14
BRANCH   5  20
ATOM     20  S   UNL     1       3.238   3.093  17.640  0.00  0.00    +0.000 S 
ATOM     21  O   UNL     1       2.265   2.581  16.699  0.00  0.00    +0.000 OA
ATOM     22  O   UNL     1       4.572   2.525  17.697  0.00  0.00    +0.000 OA
BRANCH  20  23
ATOM     23  C   UNL     1       2.520   2.895  19.260  0.00  0.00    +0.000 A 
ATOM     24  C   UNL     1       3.351   2.712  20.370  0.00  0.00    +0.000 A 
ATOM     25  C   UNL     1       2.785   2.616  21.645  0.00  0.00    +0.000 A 
ATOM     26  C   UNL     1       1.401   2.720  21.805  0.00  0.00    +0.000 A 
ATOM     27  C   UNL     1       0.579   2.925  20.697  0.00  0.00    +0.000 A 
ATOM     28  C   UNL     1       1.136   3.012  19.420  0.00  0.00    +0.000 A 
ENDBRANCH  20  23
ENDBRANCH   5  20
TORSDOF 5
ENDMDL
MODEL 7
REMARK VINA RESULT:      -7.7      0.877      1.383
REMARK  Name = 
REMARK  6 active torsions:
REMARK  status: ('A' for Active; 'I' for Inactive)
REMARK    1  A    between atoms: C_1  and  O_2
REMARK    2  A    between atoms: O_2  and  C_3
REMARK    3  A    between atoms: C_6  and  C_7
REMARK    4  A    between atoms: C_9  and  C_10
REMARK    5  A    between atoms: N_17  and  S_18
REMARK    6  A    between atoms: S_18  and  C_21
REMARK                            x       y       z     vdW  Elec       q    Type
REMARK                         _______ _______ _______ _____ _____    ______ ____
ROOT
ATOM      1  C   UNL     1       4.691   5.343  17.479  0.00  0.00    +0.000 C 
ATOM      2  C   UNL     1       4.357   6.842  17.604  0.00  0.00    +0.000 C 
ATOM      3  C   UNL     1       2.938   6.791  18.113  0.00  0.00    +0.000 C 
ATOM      4  N   UNL     1       2.373   5.625  18.066  0.00  0.00    +0.000 NA
ATOM      5  N   UNL     1       3.349   4.726  17.495  0.00  0.00    +0.000 N 
ENDROOT
BRANCH   1   9
ATOM      6  C   UNL     1       6.975   4.728  13.859  0.00  0.00    +0.000 A 
ATOM      7  C   UNL     1       5.613   4.426  13.892  0.00  0.00    +0.000 A 
ATOM      8  C   UNL     1       4.875   4.588  15.068  0.00  0.00    +0.000 A 
ATOM      9  C   UNL     1       5.498   5.054  16.234  0.00  0.00    +0.000 A 
ATOM     10  C   UNL     1       6.880   5.299  16.206  0.00  0.00    +0.000 A 
ATOM     11  C   UNL     1       7.613   5.132  15.029  0.00  0.00    +0.000 A 
BRANCH   6  13
ATOM     12  C   UNL     1       7.851   5.786  11.946  0.00  0.00    +0.000 C 
ATOM     13  O   UNL     1       7.593   4.573  12.648  0.00  0.00    +0.000 OA
ENDBRANCH   6  13
ENDBRANCH   1   9
BRANCH   3  14
ATOM     14  C   UNL     1       2.245   7.990  18.626  0.00  0.00    +0.000 A 
ATOM     15  C   UNL     1       1.710   8.031  19.917  0.00  0.00    +0.000 A 
ATOM     16  C   UNL     1       1.016   9.163  20.346  0.00  0.00    +0.000 A 
ATOM     17  C   UNL     1       0.861  10.257  19.493  0.00  0.00    +0.000 A 
ATOM     18  C   UNL     1       1.418  10.232  18.216  0.00  0.00    +0.000 A 
ATOM     19  C   UNL     1       2.114   9.103  17.785  0.00  0.00    +0.000 A 
ENDBRANCH   3  14
BRANCH   5  20
ATOM     20  S   UNL     1       3.125   3.044  17.637  0.00  0.00    +0.000 S 
ATOM     21  O   UNL     1       2.076   2.622  16.735  0.00  0.00    +0.000 OA
ATOM     22  O   UNL     1       4.424   2.396  17.605  0.00  0.00    +0.000 OA
BRANCH  20  23
ATOM     23  C   UNL     1       2.483   2.833  19.287  0.00  0.00    +0.000 A 
ATOM     24  C   UNL     1       3.364   2.646  20.357  0.00  0.00    +0.000 A 
ATOM     25  C   UNL     1       2.856   2.540  21.655  0.00  0.00    +0.000 A 
ATOM     26  C   UNL     1       1.481   2.638  21.879  0.00  0.00    +0.000 A 
ATOM     27  C   UNL     1       0.608   2.847  20.811  0.00  0.00    +0.000 A 
ATOM     28  C   UNL     1       1.107   2.944  19.511  0.00  0.00    +0.000 A 
ENDBRANCH  20  23
ENDBRANCH   5  20
TORSDOF 5
ENDMDL
MODEL 8
REMARK VINA RESULT:      -7.6      1.433      1.965
REMARK  Name = 
REMARK  6 active torsions:
REMARK  status: ('A' for Active; 'I' for Inactive)
REMARK    1  A    between atoms: C_1  and  O_2
REMARK    2  A    between atoms: O_2  and  C_3
REMARK    3  A    between atoms: C_6  and  C_7
REMARK    4  A    between atoms: C_9  and  C_10
REMARK    5  A    between atoms: N_17  and  S_18
REMARK    6  A    between atoms: S_18  and  C_21
REMARK                            x       y       z     vdW  Elec       q    Type
REMARK                         _______ _______ _______ _____ _____    ______ ____
ROOT
ATOM      1  C   UNL     1       4.011   5.922  18.140  0.00  0.00    +0.000 C 
ATOM      2  C   UNL     1       3.907   7.450  18.306  0.00  0.00    +0.000 C 
ATOM      3  C   UNL     1       2.414   7.638  18.420  0.00  0.00    +0.000 C 
ATOM      4  N   UNL     1       1.699   6.598  18.124  0.00  0.00    +0.000 NA
ATOM      5  N   UNL     1       2.632   5.560  17.749  0.00  0.00    +0.000 N 
ENDROOT
BRANCH   1   9
ATOM      6  C   UNL     1       7.144   5.022  15.299  0.00  0.00    +0.000 A 
ATOM      7  C   UNL     1       5.980   5.670  14.881  0.00  0.00    +0.000 A 
ATOM      8  C   UNL     1       4.948   5.932  15.786  0.00  0.00    +0.000 A 
ATOM      9  C   UNL     1       5.067   5.544  17.127  0.00  0.00    +0.000 A 
ATOM     10  C   UNL     1       6.217   4.842  17.523  0.00  0.00    +0.000 A 
ATOM     11  C   UNL     1       7.243   4.579  16.615  0.00  0.00    +0.000 A 
BRANCH   6  13
ATOM     12  C   UNL     1       7.671   5.058  13.004  0.00  0.00    +0.000 C 
ATOM     13  O   UNL     1       8.109   4.851  14.344  0.00  0.00    +0.000 OA
ENDBRANCH   6  13
ENDBRANCH   1   9
BRANCH   3  14
ATOM     14  C   UNL     1       1.814   8.921  18.841  0.00  0.00    +0.000 A 
ATOM     15  C   UNL     1       1.895  10.065  18.040  0.00  0.00    +0.000 A 
ATOM     16  C   UNL     1       1.363  11.271  18.497  0.00  0.00    +0.000 A 
ATOM     17  C   UNL     1       0.744  11.337  19.746  0.00  0.00    +0.000 A 
ATOM     18  C   UNL     1       0.635  10.193  20.535  0.00  0.00    +0.000 A 
ATOM     19  C   UNL     1       1.165   8.985  20.080  0.00  0.00    +0.000 A 
ENDBRANCH   3  14
BRANCH   5  20
ATOM     20  S   UNL     1       2.105   3.943  17.676  0.00  0.00    +0.000 S 
ATOM     21  O   UNL     1       0.695   3.912  17.354  0.00  0.00    +0.000 OA
ATOM     22  O   UNL     1       3.054   3.177  16.889  0.00  0.00    +0.000 OA
BRANCH  20  23
ATOM     23  C   UNL     1       2.247   3.369  19.359  0.00  0.00    +0.000 A 
ATOM     24  C   UNL     1       1.142   3.446  20.214  0.00  0.00    +0.000 A 
ATOM     25  C   UNL     1       1.243   2.941  21.514  0.00  0.00    +0.000 A 
ATOM     26  C   UNL     1       2.432   2.349  21.945  0.00  0.00    +0.000 A 
ATOM     27  C   UNL     1       3.524   2.255  21.080  0.00  0.00    +0.000 A 
ATOM     28  C   UNL     1       3.434   2.766  19.785  0.00  0.00    +0.000 A 
ENDBRANCH  20  23
ENDBRANCH   5  20
TORSDOF 5
ENDMDL
MODEL 9
REMARK VINA RESULT:      -7.4      1.473      2.197
REMARK  Name = 
REMARK  6 active torsions:
REMARK  status: ('A' for Active; 'I' for Inactive)
REMARK    1  A    between atoms: C_1  and  O_2
REMARK    2  A    between atoms: O_2  and  C_3
REMARK    3  A    between atoms: C_6  and  C_7
REMARK    4  A    between atoms: C_9  and  C_10
REMARK    5  A    between atoms: N_17  and  S_18
REMARK    6  A    between atoms: S_18  and  C_21
REMARK                            x       y       z     vdW  Elec       q    Type
REMARK                         _______ _______ _______ _____ _____    ______ ____
ROOT
ATOM      1  C   UNL     1       3.970   6.017  18.245  0.00  0.00    +0.000 C 
ATOM      2  C   UNL     1       3.805   7.525  18.514  0.00  0.00    +0.000 C 
ATOM      3  C   UNL     1       2.305   7.649  18.615  0.00  0.00    +0.000 C 
ATOM      4  N   UNL     1       1.635   6.605  18.237  0.00  0.00    +0.000 NA
ATOM      5  N   UNL     1       2.612   5.632  17.808  0.00  0.00    +0.000 N 
ENDROOT
BRANCH   1   9
ATOM      6  C   UNL     1       6.954   5.077  15.261  0.00  0.00    +0.000 A 
ATOM      7  C   UNL     1       7.096   4.611  16.569  0.00  0.00    +0.000 A 
ATOM      8  C   UNL     1       6.154   4.941  17.548  0.00  0.00    +0.000 A 
ATOM      9  C   UNL     1       5.054   5.748  17.228  0.00  0.00    +0.000 A 
ATOM     10  C   UNL     1       4.953   6.258  15.924  0.00  0.00    +0.000 A 
ATOM     11  C   UNL     1       5.898   5.929  14.951  0.00  0.00    +0.000 A 
BRANCH   6  13
ATOM     12  C   UNL     1       7.743   5.151  13.043  0.00  0.00    +0.000 C 
ATOM     13  O   UNL     1       7.908   4.663  14.371  0.00  0.00    +0.000 OA
ENDBRANCH   6  13
ENDBRANCH   1   9
BRANCH   3  14
ATOM     14  C   UNL     1       1.651   8.877  19.111  0.00  0.00    +0.000 A 
ATOM     15  C   UNL     1       1.086   8.941  20.389  0.00  0.00    +0.000 A 
ATOM     16  C   UNL     1       0.430  10.102  20.801  0.00  0.00    +0.000 A 
ATOM     17  C   UNL     1       0.343  11.200  19.944  0.00  0.00    +0.000 A 
ATOM     18  C   UNL     1       0.929  11.151  18.680  0.00  0.00    +0.000 A 
ATOM     19  C   UNL     1       1.587   9.992  18.267  0.00  0.00    +0.000 A 
ENDBRANCH   3  14
BRANCH   5  20
ATOM     20  S   UNL     1       2.148   4.004  17.617  0.00  0.00    +0.000 S 
ATOM     21  O   UNL     1       0.756   3.946  17.228  0.00  0.00    +0.000 OA
ATOM     22  O   UNL     1       3.159   3.320  16.831  0.00  0.00    +0.000 OA
BRANCH  20  23
ATOM     23  C   UNL     1       2.236   3.336  19.268  0.00  0.00    +0.000 A 
ATOM     24  C   UNL     1       3.443   2.812  19.742  0.00  0.00    +0.000 A 
ATOM     25  C   UNL     1       3.519   2.342  21.057  0.00  0.00    +0.000 A 
ATOM     26  C   UNL     1       2.402   2.415  21.892  0.00  0.00    +0.000 A 
ATOM     27  C   UNL     1       1.207   2.959  21.421  0.00  0.00    +0.000 A 
ATOM     28  C   UNL     1       1.120   3.420  20.106  0.00  0.00    +0.000 A 
ENDBRANCH  20  23
ENDBRANCH   5  20
TORSDOF 5
ENDMDL
