MODEL 1
REMARK VINA RESULT:      -8.8      0.000      0.000
REMARK  Name = 
REMARK  4 active torsions:
REMARK  status: ('A' for Active; 'I' for Inactive)
REMARK    1  A    between atoms: C_1  and  N_2
REMARK    2  A    between atoms: C_6  and  C_7
REMARK    3  A    between atoms: C_6  and  C_20
REMARK    4  A    between atoms: C_11  and  C_12
REMARK                            x       y       z     vdW  Elec       q    Type
REMARK                         _______ _______ _______ _____ _____    ______ ____
ROOT
ATOM      1  C   UNL     1       0.672   2.529  19.474  0.00  0.00    +0.000 C 
ATOM      2  N   UNL     1       1.592   3.631  19.653  0.00  0.00    +0.000 N 
ATOM      3  C   UNL     1       2.230   4.044  20.772  0.00  0.00    +0.000 C 
ATOM      4  N   UNL     1       2.151   3.503  21.930  0.00  0.00    +0.000 NA
ATOM      5  N   UNL     1       2.998   5.121  20.514  0.00  0.00    +0.000 N 
ATOM      6  C   UNL     1       2.991   5.485  19.114  0.00  0.00    +0.000 C 
ATOM      7  C   UNL     1       1.985   4.407  18.574  0.00  0.00    +0.000 C 
ATOM      8  O   UNL     1       1.643   4.246  17.408  0.00  0.00    +0.000 OA
ATOM      9  H   UNL     1       1.521   2.702  21.924  0.00  0.00    +0.000 HD
ATOM     10  H   UNL     1       3.667   5.474  21.177  0.00  0.00    +0.000 HD
ENDROOT
BRANCH   6  11
ATOM     11  C   UNL     1       2.438   6.896  18.896  0.00  0.00    +0.000 A 
ATOM     12  C   UNL     1       2.723   7.650  17.749  0.00  0.00    +0.000 A 
ATOM     13  C   UNL     1       2.300   8.972  17.643  0.00  0.00    +0.000 A 
ATOM     14  C   UNL     1       1.591   9.569  18.687  0.00  0.00    +0.000 A 
ATOM     15  C   UNL     1       1.250   8.851  19.844  0.00  0.00    +0.000 A 
ATOM     16  C   UNL     1       1.666   7.506  19.906  0.00  0.00    +0.000 A 
BRANCH  15  17
ATOM     17  C   UNL     1       0.513   9.476  20.970  0.00  0.00    +0.000 A 
ATOM     18  C   UNL     1       0.609   8.969  22.282  0.00  0.00    +0.000 A 
ATOM     19  C   UNL     1      -0.093   9.543  23.347  0.00  0.00    +0.000 A 
ATOM     20  C   UNL     1      -0.894  10.658  23.130  0.00  0.00    +0.000 A 
ATOM     21  C   UNL     1      -0.991  11.188  21.848  0.00  0.00    +0.000 A 
ATOM     22 CL   UNL     1      -1.965  12.582  21.574  0.00  0.00    +0.000 Cl
ATOM     23  C   UNL     1      -0.306  10.604  20.779  0.00  0.00    +0.000 A 
ENDBRANCH  15  17
ENDBRANCH   6  11
BRANCH   6  24
ATOM     24  C   UNL     1       4.357   5.311  18.473  0.00  0.00    +0.000 C 
ATOM     25  C   UNL     1       5.635   5.300  19.280  0.00  0.00    +0.000 C 
ATOM     26  C   UNL     1       5.178   4.041  18.596  0.00  0.00    +0.000 C 
ENDBRANCH   6  24
TORSDOF 3
ENDMDL
MODEL 2
REMARK VINA RESULT:      -8.6      4.649      8.117
REMARK  Name = 
REMARK  4 active torsions:
REMARK  status: ('A' for Active; 'I' for Inactive)
REMARK    1  A    between atoms: C_1  and  N_2
REMARK    2  A    between atoms: C_6  and  C_7
REMARK    3  A    between atoms: C_6  and  C_20
REMARK    4  A    between atoms: C_11  and  C_12
REMARK                            x       y       z     vdW  Elec       q    Type
REMARK                         _______ _______ _______ _____ _____    ______ ____
ROOT
ATOM      1  C   UNL     1       1.829   7.343  20.392  0.00  0.00    +0.000 C 
ATOM      2  N   UNL     1       2.423   6.109  19.924  0.00  0.00    +0.000 N 
ATOM      3  C   UNL     1       2.685   4.970  20.605  0.00  0.00    +0.000 C 
ATOM      4  N   UNL     1       2.431   4.754  21.841  0.00  0.00    +0.000 NA
ATOM      5  N   UNL     1       3.253   4.052  19.798  0.00  0.00    +0.000 N 
ATOM      6  C   UNL     1       3.350   4.502  18.427  0.00  0.00    +0.000 C 
ATOM      7  C   UNL     1       2.758   5.948  18.589  0.00  0.00    +0.000 C 
ATOM      8  O   UNL     1       2.578   6.768  17.697  0.00  0.00    +0.000 OA
ATOM      9  H   UNL     1       2.003   5.567  22.281  0.00  0.00    +0.000 HD
ATOM     10  H   UNL     1       3.375   3.094  20.078  0.00  0.00    +0.000 HD
ENDROOT
BRANCH   6  11
ATOM     11  C   UNL     1       4.803   4.565  17.951  0.00  0.00    +0.000 A 
ATOM     12  C   UNL     1       5.869   4.862  18.813  0.00  0.00    +0.000 A 
ATOM     13  C   UNL     1       7.160   5.026  18.317  0.00  0.00    +0.000 A 
ATOM     14  C   UNL     1       7.408   4.906  16.949  0.00  0.00    +0.000 A 
ATOM     15  C   UNL     1       6.385   4.577  16.046  0.00  0.00    +0.000 A 
ATOM     16  C   UNL     1       5.097   4.386  16.583  0.00  0.00    +0.000 A 
BRANCH  15  17
ATOM     17  C   UNL     1       6.631   4.463  14.587  0.00  0.00    +0.000 A 
ATOM     18  C   UNL     1       7.585   5.273  13.937  0.00  0.00    +0.000 A 
ATOM     19  C   UNL     1       7.812   5.184  12.561  0.00  0.00    +0.000 A 
ATOM     20  C   UNL     1       7.106   4.261  11.799  0.00  0.00    +0.000 A 
ATOM     21  C   UNL     1       6.171   3.439  12.419  0.00  0.00    +0.000 A 
ATOM     22 CL   UNL     1       5.306   2.279  11.485  0.00  0.00    +0.000 Cl
ATOM     23  C   UNL     1       5.928   3.540  13.791  0.00  0.00    +0.000 A 
ENDBRANCH  15  17
ENDBRANCH   6  11
BRANCH   6  24
ATOM     24  C   UNL     1       2.487   3.673  17.492  0.00  0.00    +0.000 C 
ATOM     25  C   UNL     1       2.486   2.161  17.518  0.00  0.00    +0.000 C 
ATOM     26  C   UNL     1       1.257   2.911  17.950  0.00  0.00    +0.000 C 
ENDBRANCH   6  24
TORSDOF 3
ENDMDL
MODEL 3
REMARK VINA RESULT:      -8.5      4.644      8.049
REMARK  Name = 
REMARK  4 active torsions:
REMARK  status: ('A' for Active; 'I' for Inactive)
REMARK    1  A    between atoms: C_1  and  N_2
REMARK    2  A    between atoms: C_6  and  C_7
REMARK    3  A    between atoms: C_6  and  C_20
REMARK    4  A    between atoms: C_11  and  C_12
REMARK                            x       y       z     vdW  Elec       q    Type
REMARK                         _______ _______ _______ _____ _____    ______ ____
ROOT
ATOM      1  C   UNL     1       2.011   2.557  21.281  0.00  0.00    +0.000 C 
ATOM      2  N   UNL     1       2.303   3.120  19.981  0.00  0.00    +0.000 N 
ATOM      3  C   UNL     1       1.919   2.695  18.756  0.00  0.00    +0.000 C 
ATOM      4  N   UNL     1       1.178   1.681  18.506  0.00  0.00    +0.000 NA
ATOM      5  N   UNL     1       2.413   3.500  17.794  0.00  0.00    +0.000 N 
ATOM      6  C   UNL     1       3.141   4.627  18.335  0.00  0.00    +0.000 C 
ATOM      7  C   UNL     1       3.029   4.295  19.866  0.00  0.00    +0.000 C 
ATOM      8  O   UNL     1       3.459   4.969  20.793  0.00  0.00    +0.000 OA
ATOM      9  H   UNL     1       0.905   1.200  19.361  0.00  0.00    +0.000 HD
ATOM     10  H   UNL     1       2.109   3.442  16.838  0.00  0.00    +0.000 HD
ENDROOT
BRANCH   6  11
ATOM     11  C   UNL     1       4.604   4.626  17.888  0.00  0.00    +0.000 A 
ATOM     12  C   UNL     1       5.664   4.878  18.771  0.00  0.00    +0.000 A 
ATOM     13  C   UNL     1       6.971   4.985  18.301  0.00  0.00    +0.000 A 
ATOM     14  C   UNL     1       7.241   4.852  16.939  0.00  0.00    +0.000 A 
ATOM     15  C   UNL     1       6.223   4.566  16.015  0.00  0.00    +0.000 A 
ATOM     16  C   UNL     1       4.917   4.432  16.527  0.00  0.00    +0.000 A 
BRANCH  15  17
ATOM     17  C   UNL     1       6.493   4.439  14.561  0.00  0.00    +0.000 A 
ATOM     18  C   UNL     1       7.566   5.120  13.951  0.00  0.00    +0.000 A 
ATOM     19  C   UNL     1       7.819   5.019  12.580  0.00  0.00    +0.000 A 
ATOM     20  C   UNL     1       7.016   4.211  11.784  0.00  0.00    +0.000 A 
ATOM     21  C   UNL     1       5.961   3.515  12.365  0.00  0.00    +0.000 A 
ATOM     22 CL   UNL     1       4.973   2.497  11.388  0.00  0.00    +0.000 Cl
ATOM     23  C   UNL     1       5.694   3.631  13.731  0.00  0.00    +0.000 A 
ENDBRANCH  15  17
ENDBRANCH   6  11
BRANCH   6  24
ATOM     24  C   UNL     1       2.459   5.948  18.023  0.00  0.00    +0.000 C 
ATOM     25  C   UNL     1       2.396   7.083  19.022  0.00  0.00    +0.000 C 
ATOM     26  C   UNL     1       3.218   7.238  17.772  0.00  0.00    +0.000 C 
ENDBRANCH   6  24
TORSDOF 3
ENDMDL
MODEL 4
REMARK VINA RESULT:      -8.2      3.035      4.768
REMARK  Name = 
REMARK  4 active torsions:
REMARK  status: ('A' for Active; 'I' for Inactive)
REMARK    1  A    between atoms: C_1  and  N_2
REMARK    2  A    between atoms: C_6  and  C_7
REMARK    3  A    between atoms: C_6  and  C_20
REMARK    4  A    between atoms: C_11  and  C_12
REMARK                            x       y       z     vdW  Elec       q    Type
REMARK                         _______ _______ _______ _____ _____    ______ ____
ROOT
ATOM      1  C   UNL     1       8.440   6.180  19.369  0.00  0.00    +0.000 C 
ATOM      2  N   UNL     1       7.418   6.169  18.345  0.00  0.00    +0.000 N 
ATOM      3  C   UNL     1       7.142   7.094  17.398  0.00  0.00    +0.000 C 
ATOM      4  N   UNL     1       7.772   8.193  17.209  0.00  0.00    +0.000 NA
ATOM      5  N   UNL     1       6.099   6.704  16.639  0.00  0.00    +0.000 N 
ATOM      6  C   UNL     1       5.620   5.386  16.991  0.00  0.00    +0.000 C 
ATOM      7  C   UNL     1       6.582   5.075  18.193  0.00  0.00    +0.000 C 
ATOM      8  O   UNL     1       6.623   4.040  18.847  0.00  0.00    +0.000 OA
ATOM      9  H   UNL     1       8.527   8.309  17.882  0.00  0.00    +0.000 HD
ATOM     10  H   UNL     1       5.847   7.178  15.789  0.00  0.00    +0.000 HD
ENDROOT
BRANCH   6  11
ATOM     11  C   UNL     1       4.163   5.416  17.460  0.00  0.00    +0.000 A 
ATOM     12  C   UNL     1       3.291   4.331  17.289  0.00  0.00    +0.000 A 
ATOM     13  C   UNL     1       1.944   4.443  17.621  0.00  0.00    +0.000 A 
ATOM     14  C   UNL     1       1.440   5.644  18.122  0.00  0.00    +0.000 A 
ATOM     15  C   UNL     1       2.275   6.751  18.345  0.00  0.00    +0.000 A 
ATOM     16  C   UNL     1       3.638   6.596  18.027  0.00  0.00    +0.000 A 
BRANCH  15  17
ATOM     17  C   UNL     1       1.751   8.041  18.859  0.00  0.00    +0.000 A 
ATOM     18  C   UNL     1       1.522   9.136  18.001  0.00  0.00    +0.000 A 
ATOM     19  C   UNL     1       1.043  10.359  18.478  0.00  0.00    +0.000 A 
ATOM     20  C   UNL     1       0.755  10.512  19.829  0.00  0.00    +0.000 A 
ATOM     21  C   UNL     1       0.956   9.441  20.694  0.00  0.00    +0.000 A 
ATOM     22 CL   UNL     1       0.583   9.617  22.366  0.00  0.00    +0.000 Cl
ATOM     23  C   UNL     1       1.454   8.224  20.222  0.00  0.00    +0.000 A 
ENDBRANCH  15  17
ENDBRANCH   6  11
BRANCH   6  24
ATOM     24  C   UNL     1       5.827   4.385  15.867  0.00  0.00    +0.000 C 
ATOM     25  C   UNL     1       5.493   4.702  14.427  0.00  0.00    +0.000 C 
ATOM     26  C   UNL     1       6.929   4.513  14.831  0.00  0.00    +0.000 C 
ENDBRANCH   6  24
TORSDOF 3
ENDMDL
MODEL 5
REMARK VINA RESULT:      -8.1      5.242      8.030
REMARK  Name = 
REMARK  4 active torsions:
REMARK  status: ('A' for Active; 'I' for Inactive)
REMARK    1  A    between atoms: C_1  and  N_2
REMARK    2  A    between atoms: C_6  and  C_7
REMARK    3  A    between atoms: C_6  and  C_20
REMARK    4  A    between atoms: C_11  and  C_12
REMARK                            x       y       z     vdW  Elec       q    Type
REMARK                         _______ _______ _______ _____ _____    ______ ____
ROOT
ATOM      1  C   UNL     1       4.934   1.621  20.962  0.00  0.00    +0.000 C 
ATOM      2  N   UNL     1       4.263   2.170  19.805  0.00  0.00    +0.000 N 
ATOM      3  C   UNL     1       3.869   1.553  18.667  0.00  0.00    +0.000 C 
ATOM      4  N   UNL     1       4.008   0.309  18.395  0.00  0.00    +0.000 NA
ATOM      5  N   UNL     1       3.281   2.428  17.828  0.00  0.00    +0.000 N 
ATOM      6  C   UNL     1       3.161   3.751  18.401  0.00  0.00    +0.000 C 
ATOM      7  C   UNL     1       3.872   3.499  19.779  0.00  0.00    +0.000 C 
ATOM      8  O   UNL     1       4.015   4.310  20.686  0.00  0.00    +0.000 OA
ATOM      9  H   UNL     1       4.475  -0.187  19.153  0.00  0.00    +0.000 HD
ATOM     10  H   UNL     1       2.784   2.132  17.006  0.00  0.00    +0.000 HD
ENDROOT
BRANCH   6  11
ATOM     11  C   UNL     1       3.924   4.796  17.583  0.00  0.00    +0.000 A 
ATOM     12  C   UNL     1       3.865   6.168  17.867  0.00  0.00    +0.000 A 
ATOM     13  C   UNL     1       4.477   7.095  17.027  0.00  0.00    +0.000 A 
ATOM     14  C   UNL     1       5.152   6.668  15.883  0.00  0.00    +0.000 A 
ATOM     15  C   UNL     1       5.271   5.305  15.568  0.00  0.00    +0.000 A 
ATOM     16  C   UNL     1       4.667   4.391  16.455  0.00  0.00    +0.000 A 
BRANCH  15  17
ATOM     17  C   UNL     1       5.969   4.837  14.345  0.00  0.00    +0.000 A 
ATOM     18  C   UNL     1       7.197   5.400  13.941  0.00  0.00    +0.000 A 
ATOM     19  C   UNL     1       7.855   4.976  12.782  0.00  0.00    +0.000 A 
ATOM     20  C   UNL     1       7.312   3.958  12.009  0.00  0.00    +0.000 A 
ATOM     21  C   UNL     1       6.110   3.374  12.396  0.00  0.00    +0.000 A 
ATOM     22 CL   UNL     1       5.441   2.098  11.453  0.00  0.00    +0.000 Cl
ATOM     23  C   UNL     1       5.441   3.810  13.542  0.00  0.00    +0.000 A 
ENDBRANCH  15  17
ENDBRANCH   6  11
BRANCH   6  24
ATOM     24  C   UNL     1       1.711   4.152  18.613  0.00  0.00    +0.000 C 
ATOM     25  C   UNL     1       0.603   3.134  18.760  0.00  0.00    +0.000 C 
ATOM     26  C   UNL     1       0.987   3.988  19.936  0.00  0.00    +0.000 C 
ENDBRANCH   6  24
TORSDOF 3
ENDMDL
MODEL 6
REMARK VINA RESULT:      -7.9      1.502      2.556
REMARK  Name = 
REMARK  4 active torsions:
REMARK  status: ('A' for Active; 'I' for Inactive)
REMARK    1  A    between atoms: C_1  and  N_2
REMARK    2  A    between atoms: C_6  and  C_7
REMARK    3  A    between atoms: C_6  and  C_20
REMARK    4  A    between atoms: C_11  and  C_12
REMARK                            x       y       z     vdW  Elec       q    Type
REMARK                         _______ _______ _______ _____ _____    ______ ____
ROOT
ATOM      1  C   UNL     1       5.426   3.782  17.549  0.00  0.00    +0.000 C 
ATOM      2  N   UNL     1       4.128   4.234  18.001  0.00  0.00    +0.000 N 
ATOM      3  C   UNL     1       2.896   3.861  17.586  0.00  0.00    +0.000 C 
ATOM      4  N   UNL     1       2.634   2.987  16.688  0.00  0.00    +0.000 NA
ATOM      5  N   UNL     1       1.941   4.530  18.261  0.00  0.00    +0.000 N 
ATOM      6  C   UNL     1       2.487   5.393  19.286  0.00  0.00    +0.000 C 
ATOM      7  C   UNL     1       4.019   5.141  19.044  0.00  0.00    +0.000 C 
ATOM      8  O   UNL     1       4.948   5.616  19.685  0.00  0.00    +0.000 OA
ATOM      9  H   UNL     1       3.487   2.592  16.293  0.00  0.00    +0.000 HD
ATOM     10  H   UNL     1       0.969   4.278  18.207  0.00  0.00    +0.000 HD
ENDROOT
BRANCH   6  11
ATOM     11  C   UNL     1       2.137   6.862  19.039  0.00  0.00    +0.000 A 
ATOM     12  C   UNL     1       2.615   7.577  17.931  0.00  0.00    +0.000 A 
ATOM     13  C   UNL     1       2.370   8.942  17.807  0.00  0.00    +0.000 A 
ATOM     14  C   UNL     1       1.651   9.620  18.792  0.00  0.00    +0.000 A 
ATOM     15  C   UNL     1       1.121   8.948  19.904  0.00  0.00    +0.000 A 
ATOM     16  C   UNL     1       1.360   7.562  19.985  0.00  0.00    +0.000 A 
BRANCH  15  17
ATOM     17  C   UNL     1       0.370   9.658  20.969  0.00  0.00    +0.000 A 
ATOM     18  C   UNL     1       0.323   9.165  22.289  0.00  0.00    +0.000 A 
ATOM     19  C   UNL     1      -0.393   9.818  23.296  0.00  0.00    +0.000 A 
ATOM     20  C   UNL     1      -1.064  11.002  23.012  0.00  0.00    +0.000 A 
ATOM     21  C   UNL     1      -1.020  11.519  21.722  0.00  0.00    +0.000 A 
ATOM     22 CL   UNL     1      -1.832  12.996  21.368  0.00  0.00    +0.000 Cl
ATOM     23  C   UNL     1      -0.320  10.856  20.710  0.00  0.00    +0.000 A 
ENDBRANCH  15  17
ENDBRANCH   6  11
BRANCH   6  24
ATOM     24  C   UNL     1       2.086   4.946  20.681  0.00  0.00    +0.000 C 
ATOM     25  C   UNL     1       1.126   3.803  20.921  0.00  0.00    +0.000 C 
ATOM     26  C   UNL     1       2.569   3.653  21.312  0.00  0.00    +0.000 C 
ENDBRANCH   6  24
TORSDOF 3
ENDMDL
MODEL 7
REMARK VINA RESULT:      -7.9      4.860      8.124
REMARK  Name = 
REMARK  4 active torsions:
REMARK  status: ('A' for Active; 'I' for Inactive)
REMARK    1  A    between atoms: C_1  and  N_2
REMARK    2  A    between atoms: C_6  and  C_7
REMARK    3  A    between atoms: C_6  and  C_20
REMARK    4  A    between atoms: C_11  and  C_12
REMARK                            x       y       z     vdW  Elec       q    Type
REMARK                         _______ _______ _______ _____ _____    ______ ____
ROOT
ATOM      1  C   UNL     1       3.665   0.639  19.118  0.00  0.00    +0.000 C 
ATOM      2  N   UNL     1       3.600   2.035  18.743  0.00  0.00    +0.000 N 
ATOM      3  C   UNL     1       2.783   2.649  17.857  0.00  0.00    +0.000 C 
ATOM      4  N   UNL     1       1.861   2.090  17.167  0.00  0.00    +0.000 NA
ATOM      5  N   UNL     1       3.052   3.968  17.794  0.00  0.00    +0.000 N 
ATOM      6  C   UNL     1       4.073   4.372  18.737  0.00  0.00    +0.000 C 
ATOM      7  C   UNL     1       4.414   2.971  19.361  0.00  0.00    +0.000 C 
ATOM      8  O   UNL     1       5.215   2.748  20.261  0.00  0.00    +0.000 OA
ATOM      9  H   UNL     1       1.812   1.090  17.353  0.00  0.00    +0.000 HD
ATOM     10  H   UNL     1       2.452   4.616  17.315  0.00  0.00    +0.000 HD
ENDROOT
BRANCH   6  11
ATOM     11  C   UNL     1       5.297   4.961  18.032  0.00  0.00    +0.000 A 
ATOM     12  C   UNL     1       6.140   5.901  18.642  0.00  0.00    +0.000 A 
ATOM     13  C   UNL     1       7.172   6.501  17.925  0.00  0.00    +0.000 A 
ATOM     14  C   UNL     1       7.376   6.179  16.583  0.00  0.00    +0.000 A 
ATOM     15  C   UNL     1       6.583   5.220  15.932  0.00  0.00    +0.000 A 
ATOM     16  C   UNL     1       5.568   4.609  16.694  0.00  0.00    +0.000 A 
BRANCH  15  17
ATOM     17  C   UNL     1       6.776   4.880  14.501  0.00  0.00    +0.000 A 
ATOM     18  C   UNL     1       7.740   5.541  13.712  0.00  0.00    +0.000 A 
ATOM     19  C   UNL     1       7.919   5.238  12.359  0.00  0.00    +0.000 A 
ATOM     20  C   UNL     1       7.151   4.245  11.763  0.00  0.00    +0.000 A 
ATOM     21  C   UNL     1       6.205   3.566  12.523  0.00  0.00    +0.000 A 
ATOM     22 CL   UNL     1       5.263   2.321  11.797  0.00  0.00    +0.000 Cl
ATOM     23  C   UNL     1       6.011   3.881  13.871  0.00  0.00    +0.000 A 
ENDBRANCH  15  17
ENDBRANCH   6  11
BRANCH   6  24
ATOM     24  C   UNL     1       3.528   5.312  19.799  0.00  0.00    +0.000 C 
ATOM     25  C   UNL     1       2.390   6.269  19.526  0.00  0.00    +0.000 C 
ATOM     26  C   UNL     1       2.182   5.118  20.471  0.00  0.00    +0.000 C 
ENDBRANCH   6  24
TORSDOF 3
ENDMDL
MODEL 8
REMARK VINA RESULT:      -7.8      4.394      7.779
REMARK  Name = 
REMARK  4 active torsions:
REMARK  status: ('A' for Active; 'I' for Inactive)
REMARK    1  A    between atoms: C_1  and  N_2
REMARK    2  A    between atoms: C_6  and  C_7
REMARK    3  A    between atoms: C_6  and  C_20
REMARK    4  A    between atoms: C_11  and  C_12
REMARK                            x       y       z     vdW  Elec       q    Type
REMARK                         _______ _______ _______ _____ _____    ______ ____
ROOT
ATOM      1  C   UNL     1       1.458   2.649  21.403  0.00  0.00    +0.000 C 
ATOM      2  N   UNL     1       1.817   3.270  20.147  0.00  0.00    +0.000 N 
ATOM      3  C   UNL     1       1.467   2.925  18.887  0.00  0.00    +0.000 C 
ATOM      4  N   UNL     1       0.704   1.952  18.555  0.00  0.00    +0.000 NA
ATOM      5  N   UNL     1       2.023   3.762  17.990  0.00  0.00    +0.000 N 
ATOM      6  C   UNL     1       2.766   4.833  18.618  0.00  0.00    +0.000 C 
ATOM      7  C   UNL     1       2.585   4.424  20.123  0.00  0.00    +0.000 C 
ATOM      8  O   UNL     1       3.001   5.033  21.101  0.00  0.00    +0.000 OA
ATOM      9  H   UNL     1       0.383   1.435  19.373  0.00  0.00    +0.000 HD
ATOM     10  H   UNL     1       1.755   3.766  17.021  0.00  0.00    +0.000 HD
ENDROOT
BRANCH   6  11
ATOM     11  C   UNL     1       4.245   4.805  18.225  0.00  0.00    +0.000 A 
ATOM     12  C   UNL     1       5.275   5.067  19.141  0.00  0.00    +0.000 A 
ATOM     13  C   UNL     1       6.599   5.149  18.717  0.00  0.00    +0.000 A 
ATOM     14  C   UNL     1       6.918   4.980  17.369  0.00  0.00    +0.000 A 
ATOM     15  C   UNL     1       5.931   4.683  16.416  0.00  0.00    +0.000 A 
ATOM     16  C   UNL     1       4.606   4.576  16.881  0.00  0.00    +0.000 A 
BRANCH  15  17
ATOM     17  C   UNL     1       6.252   4.519  14.976  0.00  0.00    +0.000 A 
ATOM     18  C   UNL     1       5.589   3.562  14.180  0.00  0.00    +0.000 A 
ATOM     19  C   UNL     1       5.894   3.390  12.827  0.00  0.00    +0.000 A 
ATOM     20  C   UNL     1       6.858   4.191  12.226  0.00  0.00    +0.000 A 
ATOM     21  C   UNL     1       7.514   5.154  12.985  0.00  0.00    +0.000 A 
ATOM     22 CL   UNL     1       8.696   6.163  12.242  0.00  0.00    +0.000 Cl
ATOM     23  C   UNL     1       7.224   5.314  14.342  0.00  0.00    +0.000 A 
ENDBRANCH  15  17
ENDBRANCH   6  11
BRANCH   6  24
ATOM     24  C   UNL     1       2.140   6.192  18.355  0.00  0.00    +0.000 C 
ATOM     25  C   UNL     1       2.297   7.355  19.309  0.00  0.00    +0.000 C 
ATOM     26  C   UNL     1       2.944   7.415  17.953  0.00  0.00    +0.000 C 
ENDBRANCH   6  24
TORSDOF 3
ENDMDL
MODEL 9
REMARK VINA RESULT:      -7.8      2.999      4.593
REMARK  Name = 
REMARK  4 active torsions:
REMARK  status: ('A' for Active; 'I' for Inactive)
REMARK    1  A    between atoms: C_1  and  N_2
REMARK    2  A    between atoms: C_6  and  C_7
REMARK    3  A    between atoms: C_6  and  C_20
REMARK    4  A    between atoms: C_11  and  C_12
REMARK                            x       y       z     vdW  Elec       q    Type
REMARK                         _______ _______ _______ _____ _____    ______ ____
ROOT
ATOM      1  C   UNL     1       8.440   6.249  19.302  0.00  0.00    +0.000 C 
ATOM      2  N   UNL     1       7.376   6.217  18.322  0.00  0.00    +0.000 N 
ATOM      3  C   UNL     1       7.018   7.152  17.412  0.00  0.00    +0.000 C 
ATOM      4  N   UNL     1       7.590   8.283  17.226  0.00  0.00    +0.000 NA
ATOM      5  N   UNL     1       5.961   6.734  16.688  0.00  0.00    +0.000 N 
ATOM      6  C   UNL     1       5.557   5.386  17.024  0.00  0.00    +0.000 C 
ATOM      7  C   UNL     1       6.583   5.090  18.176  0.00  0.00    +0.000 C 
ATOM      8  O   UNL     1       6.699   4.042  18.800  0.00  0.00    +0.000 OA
ATOM      9  H   UNL     1       8.368   8.416  17.870  0.00  0.00    +0.000 HD
ATOM     10  H   UNL     1       5.651   7.217  15.863  0.00  0.00    +0.000 HD
ENDROOT
BRANCH   6  11
ATOM     11  C   UNL     1       4.122   5.340  17.555  0.00  0.00    +0.000 A 
ATOM     12  C   UNL     1       3.236   4.297  17.247  0.00  0.00    +0.000 A 
ATOM     13  C   UNL     1       1.905   4.352  17.652  0.00  0.00    +0.000 A 
ATOM     14  C   UNL     1       1.432   5.454  18.364  0.00  0.00    +0.000 A 
ATOM     15  C   UNL     1       2.282   6.510  18.728  0.00  0.00    +0.000 A 
ATOM     16  C   UNL     1       3.630   6.410  18.330  0.00  0.00    +0.000 A 
BRANCH  15  17
ATOM     17  C   UNL     1       1.790   7.698  19.469  0.00  0.00    +0.000 A 
ATOM     18  C   UNL     1       1.635   7.677  20.870  0.00  0.00    +0.000 A 
ATOM     19  C   UNL     1       1.157   8.786  21.576  0.00  0.00    +0.000 A 
ATOM     20  C   UNL     1       0.844   9.958  20.897  0.00  0.00    +0.000 A 
ATOM     21  C   UNL     1       1.005  10.010  19.517  0.00  0.00    +0.000 A 
ATOM     22 CL   UNL     1       0.638  11.465  18.671  0.00  0.00    +0.000 Cl
ATOM     23  C   UNL     1       1.463   8.896  18.808  0.00  0.00    +0.000 A 
ENDBRANCH  15  17
ENDBRANCH   6  11
BRANCH   6  24
ATOM     24  C   UNL     1       5.759   4.424  15.866  0.00  0.00    +0.000 C 
ATOM     25  C   UNL     1       5.593   4.846  14.424  0.00  0.00    +0.000 C 
ATOM     26  C   UNL     1       6.958   4.480  14.938  0.00  0.00    +0.000 C 
ENDBRANCH   6  24
TORSDOF 3
ENDMDL
