MODEL 1
REMARK VINA RESULT:      -8.2      0.000      0.000
REMARK  Name = 
REMARK  2 active torsions:
REMARK  status: ('A' for Active; 'I' for Inactive)
REMARK    1  A    between atoms: O_1  and  C_2
REMARK    2  A    between atoms: C_2  and  C_3
REMARK                            x       y       z     vdW  Elec       q    Type
REMARK                         _______ _______ _______ _____ _____    ______ ____
ROOT
ATOM      1  C   UNL     1       6.986   4.852  16.422  0.00  0.00    +0.000 C 
ATOM      2  C   UNL     1       7.429   6.250  16.939  0.00  0.00    +0.000 C 
ATOM      3  C   UNL     1       7.517   6.311  18.480  0.00  0.00    +0.000 C 
ATOM      4  C   UNL     1       6.178   5.993  19.173  0.00  0.00    +0.000 C 
ATOM      5  C   UNL     1       5.401   4.942  18.450  0.00  0.00    +0.000 A 
ATOM      6  C   UNL     1       5.774   4.442  17.215  0.00  0.00    +0.000 A 
ATOM      7  N   UNL     1       4.859   3.489  16.852  0.00  0.00    +0.000 N 
ATOM      8  C   UNL     1       3.842   3.439  17.778  0.00  0.00    +0.000 A 
ATOM      9  C   UNL     1       2.662   2.681  17.779  0.00  0.00    +0.000 A 
ATOM     10  C   UNL     1       1.797   2.837  18.865  0.00  0.00    +0.000 A 
ATOM     11 CL   UNL     1       0.327   1.938  18.892  0.00  0.00    +0.000 Cl
ATOM     12  C   UNL     1       2.112   3.704  19.907  0.00  0.00    +0.000 A 
ATOM     13  F   UNL     1       1.277   3.848  20.948  0.00  0.00    +0.000 F 
ATOM     14  C   UNL     1       3.290   4.454  19.900  0.00  0.00    +0.000 A 
ATOM     15  C   UNL     1       4.170   4.326  18.810  0.00  0.00    +0.000 A 
ATOM     16  H   UNL     1       4.882   2.944  15.999  0.00  0.00    +0.000 HD
ENDROOT
BRANCH   1  17
ATOM     17  C   UNL     1       6.790   4.875  14.869  0.00  0.00    +0.000 C 
ATOM     18  F   UNL     1       5.688   5.604  14.546  0.00  0.00    +0.000 F 
ATOM     19  F   UNL     1       7.828   5.435  14.204  0.00  0.00    +0.000 F 
ATOM     20  F   UNL     1       6.599   3.640  14.351  0.00  0.00    +0.000 F 
ENDBRANCH   1  17
BRANCH   1  21
ATOM     21  O   UNL     1       7.993   3.901  16.824  0.00  0.00    +0.000 OA
ATOM     22  H   UNL     1       7.534   3.135  17.212  0.00  0.00    +0.000 HD
ENDBRANCH   1  21
TORSDOF 2
ENDMDL
MODEL 2
REMARK VINA RESULT:      -8.1      2.508      3.211
REMARK  Name = 
REMARK  2 active torsions:
REMARK  status: ('A' for Active; 'I' for Inactive)
REMARK    1  A    between atoms: O_1  and  C_2
REMARK    2  A    between atoms: C_2  and  C_3
REMARK                            x       y       z     vdW  Elec       q    Type
REMARK                         _______ _______ _______ _____ _____    ______ ____
ROOT
ATOM      1  C   UNL     1       6.616   5.964  17.644  0.00  0.00    +0.000 C 
ATOM      2  C   UNL     1       7.111   5.318  16.319  0.00  0.00    +0.000 C 
ATOM      3  C   UNL     1       5.984   5.173  15.274  0.00  0.00    +0.000 C 
ATOM      4  C   UNL     1       4.810   4.307  15.768  0.00  0.00    +0.000 C 
ATOM      5  C   UNL     1       4.539   4.500  17.225  0.00  0.00    +0.000 A 
ATOM      6  C   UNL     1       5.361   5.242  18.054  0.00  0.00    +0.000 A 
ATOM      7  N   UNL     1       4.816   5.226  19.312  0.00  0.00    +0.000 N 
ATOM      8  C   UNL     1       3.716   4.399  19.336  0.00  0.00    +0.000 A 
ATOM      9  C   UNL     1       2.899   4.018  20.410  0.00  0.00    +0.000 A 
ATOM     10  C   UNL     1       1.838   3.151  20.137  0.00  0.00    +0.000 A 
ATOM     11 CL   UNL     1       0.825   2.643  21.436  0.00  0.00    +0.000 Cl
ATOM     12  C   UNL     1       1.603   2.701  18.841  0.00  0.00    +0.000 A 
ATOM     13  F   UNL     1       0.581   1.868  18.587  0.00  0.00    +0.000 F 
ATOM     14  C   UNL     1       2.419   3.087  17.776  0.00  0.00    +0.000 A 
ATOM     15  C   UNL     1       3.503   3.947  18.028  0.00  0.00    +0.000 A 
ATOM     16  H   UNL     1       5.195   5.697  20.124  0.00  0.00    +0.000 HD
ENDROOT
BRANCH   1  17
ATOM     17  C   UNL     1       7.760   5.974  18.713  0.00  0.00    +0.000 C 
ATOM     18  F   UNL     1       8.579   4.903  18.534  0.00  0.00    +0.000 F 
ATOM     19  F   UNL     1       8.547   7.073  18.649  0.00  0.00    +0.000 F 
ATOM     20  F   UNL     1       7.289   5.889  19.978  0.00  0.00    +0.000 F 
ENDBRANCH   1  17
BRANCH   1  21
ATOM     21  O   UNL     1       6.157   7.295  17.333  0.00  0.00    +0.000 OA
ATOM     22  H   UNL     1       6.210   7.821  18.151  0.00  0.00    +0.000 HD
ENDBRANCH   1  21
TORSDOF 2
ENDMDL
MODEL 3
REMARK VINA RESULT:      -7.9      3.780      5.212
REMARK  Name = 
REMARK  2 active torsions:
REMARK  status: ('A' for Active; 'I' for Inactive)
REMARK    1  A    between atoms: O_1  and  C_2
REMARK    2  A    between atoms: C_2  and  C_3
REMARK                            x       y       z     vdW  Elec       q    Type
REMARK                         _______ _______ _______ _____ _____    ______ ____
ROOT
ATOM      1  C   UNL     1       4.374   3.644  18.765  0.00  0.00    +0.000 C 
ATOM      2  C   UNL     1       4.566   3.350  17.249  0.00  0.00    +0.000 C 
ATOM      3  C   UNL     1       5.212   4.532  16.494  0.00  0.00    +0.000 C 
ATOM      4  C   UNL     1       4.387   5.830  16.585  0.00  0.00    +0.000 C 
ATOM      5  C   UNL     1       3.725   5.987  17.916  0.00  0.00    +0.000 A 
ATOM      6  C   UNL     1       3.725   4.997  18.881  0.00  0.00    +0.000 A 
ATOM      7  N   UNL     1       3.050   5.474  19.974  0.00  0.00    +0.000 N 
ATOM      8  C   UNL     1       2.521   6.713  19.695  0.00  0.00    +0.000 A 
ATOM      9  C   UNL     1       1.696   7.537  20.475  0.00  0.00    +0.000 A 
ATOM     10  C   UNL     1       1.304   8.760  19.926  0.00  0.00    +0.000 A 
ATOM     11 CL   UNL     1       0.273   9.791  20.846  0.00  0.00    +0.000 Cl
ATOM     12  C   UNL     1       1.733   9.142  18.658  0.00  0.00    +0.000 A 
ATOM     13  F   UNL     1       1.352  10.319  18.138  0.00  0.00    +0.000 F 
ATOM     14  C   UNL     1       2.555   8.317  17.889  0.00  0.00    +0.000 A 
ATOM     15  C   UNL     1       2.951   7.073  18.413  0.00  0.00    +0.000 A 
ATOM     16  H   UNL     1       2.900   4.971  20.841  0.00  0.00    +0.000 HD
ENDROOT
BRANCH   1  17
ATOM     17  C   UNL     1       3.605   2.472  19.460  0.00  0.00    +0.000 C 
ATOM     18  F   UNL     1       4.010   1.277  18.950  0.00  0.00    +0.000 F 
ATOM     19  F   UNL     1       3.815   2.408  20.796  0.00  0.00    +0.000 F 
ATOM     20  F   UNL     1       2.269   2.539  19.264  0.00  0.00    +0.000 F 
ENDBRANCH   1  17
BRANCH   1  21
ATOM     21  O   UNL     1       5.683   3.844  19.336  0.00  0.00    +0.000 OA
ATOM     22  H   UNL     1       5.595   3.766  20.303  0.00  0.00    +0.000 HD
ENDBRANCH   1  21
TORSDOF 2
ENDMDL
MODEL 4
REMARK VINA RESULT:      -7.9      2.329      3.085
REMARK  Name = 
REMARK  2 active torsions:
REMARK  status: ('A' for Active; 'I' for Inactive)
REMARK    1  A    between atoms: O_1  and  C_2
REMARK    2  A    between atoms: C_2  and  C_3
REMARK                            x       y       z     vdW  Elec       q    Type
REMARK                         _______ _______ _______ _____ _____    ______ ____
ROOT
ATOM      1  C   UNL     1       6.245   6.204  16.467  0.00  0.00    +0.000 C 
ATOM      2  C   UNL     1       7.133   5.250  15.617  0.00  0.00    +0.000 C 
ATOM      3  C   UNL     1       6.300   4.263  14.770  0.00  0.00    +0.000 C 
ATOM      4  C   UNL     1       5.383   3.363  15.620  0.00  0.00    +0.000 C 
ATOM      5  C   UNL     1       4.823   4.083  16.804  0.00  0.00    +0.000 A 
ATOM      6  C   UNL     1       5.222   5.355  17.173  0.00  0.00    +0.000 A 
ATOM      7  N   UNL     1       4.503   5.717  18.282  0.00  0.00    +0.000 N 
ATOM      8  C   UNL     1       3.724   4.663  18.701  0.00  0.00    +0.000 A 
ATOM      9  C   UNL     1       2.895   4.547  19.826  0.00  0.00    +0.000 A 
ATOM     10  C   UNL     1       2.215   3.340  20.004  0.00  0.00    +0.000 A 
ATOM     11 CL   UNL     1       1.202   3.152  21.386  0.00  0.00    +0.000 Cl
ATOM     12  C   UNL     1       2.353   2.303  19.085  0.00  0.00    +0.000 A 
ATOM     13  F   UNL     1       1.697   1.146  19.263  0.00  0.00    +0.000 F 
ATOM     14  C   UNL     1       3.180   2.427  17.967  0.00  0.00    +0.000 A 
ATOM     15  C   UNL     1       3.887   3.627  17.773  0.00  0.00    +0.000 A 
ATOM     16  H   UNL     1       4.574   6.603  18.768  0.00  0.00    +0.000 HD
ENDROOT
BRANCH   1  17
ATOM     17  C   UNL     1       7.130   7.097  17.399  0.00  0.00    +0.000 C 
ATOM     18  F   UNL     1       6.420   8.174  17.829  0.00  0.00    +0.000 F 
ATOM     19  F   UNL     1       7.560   6.454  18.511  0.00  0.00    +0.000 F 
ATOM     20  F   UNL     1       8.222   7.584  16.767  0.00  0.00    +0.000 F 
ENDBRANCH   1  17
BRANCH   1  21
ATOM     21  O   UNL     1       5.458   6.994  15.552  0.00  0.00    +0.000 OA
ATOM     22  H   UNL     1       5.375   6.486  14.725  0.00  0.00    +0.000 HD
ENDBRANCH   1  21
TORSDOF 2
ENDMDL
MODEL 5
REMARK VINA RESULT:      -7.5      5.067      6.738
REMARK  Name = 
REMARK  2 active torsions:
REMARK  status: ('A' for Active; 'I' for Inactive)
REMARK    1  A    between atoms: O_1  and  C_2
REMARK    2  A    between atoms: C_2  and  C_3
REMARK                            x       y       z     vdW  Elec       q    Type
REMARK                         _______ _______ _______ _____ _____    ______ ____
ROOT
ATOM      1  C   UNL     1       2.836   5.424  19.581  0.00  0.00    +0.000 C 
ATOM      2  C   UNL     1       2.914   5.391  18.028  0.00  0.00    +0.000 C 
ATOM      3  C   UNL     1       3.504   6.689  17.436  0.00  0.00    +0.000 C 
ATOM      4  C   UNL     1       2.691   7.945  17.805  0.00  0.00    +0.000 C 
ATOM      5  C   UNL     1       2.130   7.870  19.188  0.00  0.00    +0.000 A 
ATOM      6  C   UNL     1       2.200   6.732  19.970  0.00  0.00    +0.000 A 
ATOM      7  N   UNL     1       1.609   7.011  21.175  0.00  0.00    +0.000 N 
ATOM      8  C   UNL     1       1.063   8.274  21.148  0.00  0.00    +0.000 A 
ATOM      9  C   UNL     1       0.300   8.947  22.113  0.00  0.00    +0.000 A 
ATOM     10  C   UNL     1      -0.129  10.241  21.808  0.00  0.00    +0.000 A 
ATOM     11 CL   UNL     1      -1.087  11.092  22.962  0.00  0.00    +0.000 Cl
ATOM     12  C   UNL     1       0.205  10.834  20.594  0.00  0.00    +0.000 A 
ATOM     13  F   UNL     1      -0.211  12.078  20.309  0.00  0.00    +0.000 F 
ATOM     14  C   UNL     1       0.966  10.159  19.638  0.00  0.00    +0.000 A 
ATOM     15  C   UNL     1       1.398   8.849  19.915  0.00  0.00    +0.000 A 
ATOM     16  H   UNL     1       1.523   6.369  21.953  0.00  0.00    +0.000 HD
ENDROOT
BRANCH   1  17
ATOM     17  C   UNL     1       2.118   4.144  20.124  0.00  0.00    +0.000 C 
ATOM     18  F   UNL     1       2.417   3.962  21.439  0.00  0.00    +0.000 F 
ATOM     19  F   UNL     1       0.768   4.208  20.044  0.00  0.00    +0.000 F 
ATOM     20  F   UNL     1       2.508   3.019  19.483  0.00  0.00    +0.000 F 
ENDBRANCH   1  17
BRANCH   1  21
ATOM     21  O   UNL     1       4.184   5.540  20.080  0.00  0.00    +0.000 OA
ATOM     22  H   UNL     1       4.787   5.406  19.327  0.00  0.00    +0.000 HD
ENDBRANCH   1  21
TORSDOF 2
ENDMDL
MODEL 6
REMARK VINA RESULT:      -7.5      3.325      6.511
REMARK  Name = 
REMARK  2 active torsions:
REMARK  status: ('A' for Active; 'I' for Inactive)
REMARK    1  A    between atoms: O_1  and  C_2
REMARK    2  A    between atoms: C_2  and  C_3
REMARK                            x       y       z     vdW  Elec       q    Type
REMARK                         _______ _______ _______ _____ _____    ______ ____
ROOT
ATOM      1  C   UNL     1       2.148   2.745  20.046  0.00  0.00    +0.000 C 
ATOM      2  C   UNL     1       0.750   3.229  19.564  0.00  0.00    +0.000 C 
ATOM      3  C   UNL     1       0.695   3.456  18.038  0.00  0.00    +0.000 C 
ATOM      4  C   UNL     1       1.712   4.504  17.547  0.00  0.00    +0.000 C 
ATOM      5  C   UNL     1       2.996   4.447  18.309  0.00  0.00    +0.000 A 
ATOM      6  C   UNL     1       3.175   3.656  19.430  0.00  0.00    +0.000 A 
ATOM      7  N   UNL     1       4.463   3.829  19.866  0.00  0.00    +0.000 N 
ATOM      8  C   UNL     1       5.087   4.798  19.115  0.00  0.00    +0.000 A 
ATOM      9  C   UNL     1       6.366   5.358  19.248  0.00  0.00    +0.000 A 
ATOM     10  C   UNL     1       6.739   6.340  18.329  0.00  0.00    +0.000 A 
ATOM     11 CL   UNL     1       8.296   7.067  18.474  0.00  0.00    +0.000 Cl
ATOM     12  C   UNL     1       5.870   6.732  17.314  0.00  0.00    +0.000 A 
ATOM     13  F   UNL     1       6.236   7.677  16.434  0.00  0.00    +0.000 F 
ATOM     14  C   UNL     1       4.599   6.169  17.186  0.00  0.00    +0.000 A 
ATOM     15  C   UNL     1       4.194   5.188  18.109  0.00  0.00    +0.000 A 
ATOM     16  H   UNL     1       4.882   3.366  20.664  0.00  0.00    +0.000 HD
ENDROOT
BRANCH   1  17
ATOM     17  C   UNL     1       2.191   2.650  21.608  0.00  0.00    +0.000 C 
ATOM     18  F   UNL     1       2.350   3.888  22.149  0.00  0.00    +0.000 F 
ATOM     19  F   UNL     1       1.059   2.139  22.147  0.00  0.00    +0.000 F 
ATOM     20  F   UNL     1       3.224   1.900  22.054  0.00  0.00    +0.000 F 
ENDBRANCH   1  17
BRANCH   1  21
ATOM     21  O   UNL     1       2.405   1.471  19.420  0.00  0.00    +0.000 OA
ATOM     22  H   UNL     1       2.203   0.778  20.075  0.00  0.00    +0.000 HD
ENDBRANCH   1  21
TORSDOF 2
ENDMDL
MODEL 7
REMARK VINA RESULT:      -7.5      4.376      6.063
REMARK  Name = 
REMARK  2 active torsions:
REMARK  status: ('A' for Active; 'I' for Inactive)
REMARK    1  A    between atoms: O_1  and  C_2
REMARK    2  A    between atoms: C_2  and  C_3
REMARK                            x       y       z     vdW  Elec       q    Type
REMARK                         _______ _______ _______ _____ _____    ______ ____
ROOT
ATOM      1  C   UNL     1       2.993   3.366  19.501  0.00  0.00    +0.000 C 
ATOM      2  C   UNL     1       3.201   2.800  18.067  0.00  0.00    +0.000 C 
ATOM      3  C   UNL     1       4.219   3.623  17.247  0.00  0.00    +0.000 C 
ATOM      4  C   UNL     1       3.806   5.098  17.079  0.00  0.00    +0.000 C 
ATOM      5  C   UNL     1       3.124   5.637  18.294  0.00  0.00    +0.000 A 
ATOM      6  C   UNL     1       2.762   4.847  19.370  0.00  0.00    +0.000 A 
ATOM      7  N   UNL     1       2.178   5.656  20.310  0.00  0.00    +0.000 N 
ATOM      8  C   UNL     1       2.058   6.936  19.817  0.00  0.00    +0.000 A 
ATOM      9  C   UNL     1       1.456   8.067  20.387  0.00  0.00    +0.000 A 
ATOM     10  C   UNL     1       1.482   9.252  19.647  0.00  0.00    +0.000 A 
ATOM     11 CL   UNL     1       0.734  10.659  20.305  0.00  0.00    +0.000 Cl
ATOM     12  C   UNL     1       2.095   9.298  18.398  0.00  0.00    +0.000 A 
ATOM     13  F   UNL     1       2.116  10.440  17.693  0.00  0.00    +0.000 F 
ATOM     14  C   UNL     1       2.694   8.168  17.838  0.00  0.00    +0.000 A 
ATOM     15  C   UNL     1       2.668   6.959  18.557  0.00  0.00    +0.000 A 
ATOM     16  H   UNL     1       1.825   5.355  21.210  0.00  0.00    +0.000 HD
ENDROOT
BRANCH   1  17
ATOM     17  C   UNL     1       1.865   2.577  20.246  0.00  0.00    +0.000 C 
ATOM     18  F   UNL     1       1.694   1.353  19.677  0.00  0.00    +0.000 F 
ATOM     19  F   UNL     1       2.136   2.356  21.554  0.00  0.00    +0.000 F 
ATOM     20  F   UNL     1       0.666   3.201  20.182  0.00  0.00    +0.000 F 
ENDBRANCH   1  17
BRANCH   1  21
ATOM     21  O   UNL     1       4.258   3.278  20.189  0.00  0.00    +0.000 OA
ATOM     22  H   UNL     1       4.114   3.581  21.103  0.00  0.00    +0.000 HD
ENDBRANCH   1  21
TORSDOF 2
ENDMDL
MODEL 8
REMARK VINA RESULT:      -7.3      4.125      5.651
REMARK  Name = 
REMARK  2 active torsions:
REMARK  status: ('A' for Active; 'I' for Inactive)
REMARK    1  A    between atoms: O_1  and  C_2
REMARK    2  A    between atoms: C_2  and  C_3
REMARK                            x       y       z     vdW  Elec       q    Type
REMARK                         _______ _______ _______ _____ _____    ______ ____
ROOT
ATOM      1  C   UNL     1       3.908   4.218  19.066  0.00  0.00    +0.000 C 
ATOM      2  C   UNL     1       4.151   3.879  17.568  0.00  0.00    +0.000 C 
ATOM      3  C   UNL     1       4.855   5.024  16.808  0.00  0.00    +0.000 C 
ATOM      4  C   UNL     1       4.059   6.343  16.833  0.00  0.00    +0.000 C 
ATOM      5  C   UNL     1       3.351   6.553  18.132  0.00  0.00    +0.000 A 
ATOM      6  C   UNL     1       3.289   5.589  19.122  0.00  0.00    +0.000 A 
ATOM      7  N   UNL     1       2.584   6.111  20.175  0.00  0.00    +0.000 N 
ATOM      8  C   UNL     1       2.098   7.355  19.843  0.00  0.00    +0.000 A 
ATOM      9  C   UNL     1       1.265   8.219  20.568  0.00  0.00    +0.000 A 
ATOM     10  C   UNL     1       0.925   9.436  19.973  0.00  0.00    +0.000 A 
ATOM     11 CL   UNL     1      -0.114  10.516  20.825  0.00  0.00    +0.000 Cl
ATOM     12  C   UNL     1       1.411   9.773  18.713  0.00  0.00    +0.000 A 
ATOM     13  F   UNL     1       1.080  10.944  18.148  0.00  0.00    +0.000 F 
ATOM     14  C   UNL     1       2.242   8.908  17.998  0.00  0.00    +0.000 A 
ATOM     15  C   UNL     1       2.586   7.669  18.569  0.00  0.00    +0.000 A 
ATOM     16  H   UNL     1       2.389   5.636  21.048  0.00  0.00    +0.000 HD
ENDROOT
BRANCH   1  17
ATOM     17  C   UNL     1       3.084   3.084  19.762  0.00  0.00    +0.000 C 
ATOM     18  F   UNL     1       3.271   3.127  21.109  0.00  0.00    +0.000 F 
ATOM     19  F   UNL     1       1.749   3.186  19.558  0.00  0.00    +0.000 F 
ATOM     20  F   UNL     1       3.460   1.848  19.362  0.00  0.00    +0.000 F 
ENDBRANCH   1  17
BRANCH   1  21
ATOM     21  O   UNL     1       5.199   4.402  19.683  0.00  0.00    +0.000 OA
ATOM     22  H   UNL     1       5.045   4.674  20.606  0.00  0.00    +0.000 HD
ENDBRANCH   1  21
TORSDOF 2
ENDMDL
MODEL 9
REMARK VINA RESULT:      -7.3      4.839      6.695
REMARK  Name = 
REMARK  2 active torsions:
REMARK  status: ('A' for Active; 'I' for Inactive)
REMARK    1  A    between atoms: O_1  and  C_2
REMARK    2  A    between atoms: C_2  and  C_3
REMARK                            x       y       z     vdW  Elec       q    Type
REMARK                         _______ _______ _______ _____ _____    ______ ____
ROOT
ATOM      1  C   UNL     1       2.857   4.974  19.795  0.00  0.00    +0.000 C 
ATOM      2  C   UNL     1       3.004   4.513  18.317  0.00  0.00    +0.000 C 
ATOM      3  C   UNL     1       3.784   5.529  17.454  0.00  0.00    +0.000 C 
ATOM      4  C   UNL     1       3.122   6.920  17.414  0.00  0.00    +0.000 C 
ATOM      5  C   UNL     1       2.492   7.285  18.718  0.00  0.00    +0.000 A 
ATOM      6  C   UNL     1       2.377   6.400  19.775  0.00  0.00    +0.000 A 
ATOM      7  N   UNL     1       1.770   7.059  20.813  0.00  0.00    +0.000 N 
ATOM      8  C   UNL     1       1.394   8.321  20.411  0.00  0.00    +0.000 A 
ATOM      9  C   UNL     1       0.679   9.310  21.101  0.00  0.00    +0.000 A 
ATOM     10  C   UNL     1       0.435  10.513  20.434  0.00  0.00    +0.000 A 
ATOM     11 CL   UNL     1      -0.458  11.745  21.243  0.00  0.00    +0.000 Cl
ATOM     12  C   UNL     1       0.900  10.715  19.138  0.00  0.00    +0.000 A 
ATOM     13  F   UNL     1       0.662  11.873  18.503  0.00  0.00    +0.000 F 
ATOM     14  C   UNL     1       1.612   9.725  18.457  0.00  0.00    +0.000 A 
ATOM     15  C   UNL     1       1.858   8.499  19.102  0.00  0.00    +0.000 A 
ATOM     16  H   UNL     1       1.566   6.665  21.723  0.00  0.00    +0.000 HD
ENDROOT
BRANCH   1  17
ATOM     17  C   UNL     1       1.955   3.977  20.597  0.00  0.00    +0.000 C 
ATOM     18  F   UNL     1       2.252   4.039  21.923  0.00  0.00    +0.000 F 
ATOM     19  F   UNL     1       0.632   4.241  20.488  0.00  0.00    +0.000 F 
ATOM     20  F   UNL     1       2.143   2.691  20.222  0.00  0.00    +0.000 F 
ENDBRANCH   1  17
BRANCH   1  21
ATOM     21  O   UNL     1       4.184   5.069  20.353  0.00  0.00    +0.000 OA
ATOM     22  H   UNL     1       4.672   4.271  20.084  0.00  0.00    +0.000 HD
ENDBRANCH   1  21
TORSDOF 2
ENDMDL
