MODEL 1
REMARK VINA RESULT:      -7.8      0.000      0.000
REMARK  Name = 
REMARK  4 active torsions:
REMARK  status: ('A' for Active; 'I' for Inactive)
REMARK    1  A    between atoms: C_2  and  C_17
REMARK    2  A    between atoms: N_3  and  N_4
REMARK    3  A    between atoms: C_5  and  C_6
REMARK    4  A    between atoms: C_7  and  O_8
REMARK                            x       y       z     vdW  Elec       q    Type
REMARK                         _______ _______ _______ _____ _____    ______ ____
ROOT
ATOM      1  N   UNL     1       6.903   4.272  18.186  0.00  0.00    +0.000 NA
ATOM      2  C   UNL     1       5.942   4.754  18.926  0.00  0.00    +0.000 C 
ENDROOT
BRANCH   2   3
ATOM      3  C   UNL     1       4.536   5.062  18.554  0.00  0.00    +0.000 A 
ATOM      4  C   UNL     1       4.215   6.330  18.041  0.00  0.00    +0.000 A 
ATOM      5  C   UNL     1       2.904   6.670  17.746  0.00  0.00    +0.000 A 
ATOM      6  C   UNL     1       1.902   5.718  17.882  0.00  0.00    +0.000 A 
ATOM      7  C   UNL     1       2.199   4.411  18.294  0.00  0.00    +0.000 A 
ATOM      8  C   UNL     1       1.170   3.460  18.348  0.00  0.00    +0.000 A 
ATOM      9  C   UNL     1       1.426   2.145  18.725  0.00  0.00    +0.000 A 
ATOM     10  C   UNL     1       2.716   1.771  19.075  0.00  0.00    +0.000 A 
ATOM     11  C   UNL     1       3.750   2.712  19.048  0.00  0.00    +0.000 A 
ATOM     12  C   UNL     1       3.531   4.055  18.644  0.00  0.00    +0.000 A 
BRANCH   4  13
ATOM     13  O   UNL     1       5.144   7.296  17.766  0.00  0.00    +0.000 OA
ATOM     14  H   UNL     1       5.611   7.059  16.935  0.00  0.00    +0.000 HD
ENDBRANCH   4  13
ENDBRANCH   2   3
BRANCH   1  17
ATOM     15  O   UNL     1       7.500   6.342  16.435  0.00  0.00    +0.000 OA
ATOM     16  C   UNL     1       7.108   5.255  16.026  0.00  0.00    +0.000 C 
ATOM     17  N   UNL     1       6.748   4.180  16.832  0.00  0.00    +0.000 N 
ATOM     18  H   UNL     1       6.603   3.260  16.427  0.00  0.00    +0.000 HD
BRANCH  16  19
ATOM     19  C   UNL     1       7.147   4.983  14.569  0.00  0.00    +0.000 A 
ATOM     20  C   UNL     1       8.007   5.654  13.708  0.00  0.00    +0.000 A 
ATOM     21  N   UNL     1       8.041   5.456  12.366  0.00  0.00    +0.000 NA
ATOM     22  C   UNL     1       7.181   4.534  11.867  0.00  0.00    +0.000 A 
ATOM     23  C   UNL     1       6.298   3.806  12.649  0.00  0.00    +0.000 A 
ATOM     24 BR   UNL     1       5.136   2.544  11.868  0.00  0.00    +0.000 Br
ATOM     25  C   UNL     1       6.279   4.031  14.022  0.00  0.00    +0.000 A 
ENDBRANCH  16  19
ENDBRANCH   1  17
TORSDOF 4
ENDMDL
MODEL 2
REMARK VINA RESULT:      -7.7      3.251      4.905
REMARK  Name = 
REMARK  4 active torsions:
REMARK  status: ('A' for Active; 'I' for Inactive)
REMARK    1  A    between atoms: C_2  and  C_17
REMARK    2  A    between atoms: N_3  and  N_4
REMARK    3  A    between atoms: C_5  and  C_6
REMARK    4  A    between atoms: C_7  and  O_8
REMARK                            x       y       z     vdW  Elec       q    Type
REMARK                         _______ _______ _______ _____ _____    ______ ____
ROOT
ATOM      1  N   UNL     1       3.550   3.576  16.298  0.00  0.00    +0.000 NA
ATOM      2  C   UNL     1       2.457   3.325  16.965  0.00  0.00    +0.000 C 
ENDROOT
BRANCH   2   3
ATOM      3  C   UNL     1       2.137   3.618  18.387  0.00  0.00    +0.000 A 
ATOM      4  C   UNL     1       1.946   2.558  19.289  0.00  0.00    +0.000 A 
ATOM      5  C   UNL     1       1.583   2.796  20.605  0.00  0.00    +0.000 A 
ATOM      6  C   UNL     1       1.486   4.103  21.063  0.00  0.00    +0.000 A 
ATOM      7  C   UNL     1       1.769   5.187  20.219  0.00  0.00    +0.000 A 
ATOM      8  C   UNL     1       1.731   6.488  20.740  0.00  0.00    +0.000 A 
ATOM      9  C   UNL     1       2.032   7.589  19.944  0.00  0.00    +0.000 A 
ATOM     10  C   UNL     1       2.355   7.402  18.608  0.00  0.00    +0.000 A 
ATOM     11  C   UNL     1       2.375   6.113  18.066  0.00  0.00    +0.000 A 
ATOM     12  C   UNL     1       2.099   4.964  18.854  0.00  0.00    +0.000 A 
BRANCH   4  13
ATOM     13  O   UNL     1       2.128   1.241  18.963  0.00  0.00    +0.000 OA
ATOM     14  H   UNL     1       1.880   1.110  18.022  0.00  0.00    +0.000 HD
ENDBRANCH   4  13
ENDBRANCH   2   3
BRANCH   1  17
ATOM     15  O   UNL     1       5.183   5.623  15.376  0.00  0.00    +0.000 OA
ATOM     16  C   UNL     1       5.413   5.053  16.436  0.00  0.00    +0.000 C 
ATOM     17  N   UNL     1       4.674   3.993  16.952  0.00  0.00    +0.000 N 
ATOM     18  H   UNL     1       4.813   3.688  17.911  0.00  0.00    +0.000 HD
BRANCH  16  19
ATOM     19  C   UNL     1       6.461   5.603  17.330  0.00  0.00    +0.000 A 
ATOM     20  C   UNL     1       7.101   4.831  18.293  0.00  0.00    +0.000 A 
ATOM     21  N   UNL     1       8.036   5.312  19.150  0.00  0.00    +0.000 NA
ATOM     22  C   UNL     1       8.352   6.625  19.027  0.00  0.00    +0.000 A 
ATOM     23  C   UNL     1       7.779   7.468  18.089  0.00  0.00    +0.000 A 
ATOM     24 BR   UNL     1       8.281   9.283  17.992  0.00  0.00    +0.000 Br
ATOM     25  C   UNL     1       6.819   6.951  17.224  0.00  0.00    +0.000 A 
ENDBRANCH  16  19
ENDBRANCH   1  17
TORSDOF 4
ENDMDL
MODEL 3
REMARK VINA RESULT:      -7.3      3.986      6.748
REMARK  Name = 
REMARK  4 active torsions:
REMARK  status: ('A' for Active; 'I' for Inactive)
REMARK    1  A    between atoms: C_2  and  C_17
REMARK    2  A    between atoms: N_3  and  N_4
REMARK    3  A    between atoms: C_5  and  C_6
REMARK    4  A    between atoms: C_7  and  O_8
REMARK                            x       y       z     vdW  Elec       q    Type
REMARK                         _______ _______ _______ _____ _____    ______ ____
ROOT
ATOM      1  N   UNL     1       4.010   4.159  19.800  0.00  0.00    +0.000 NA
ATOM      2  C   UNL     1       4.982   3.801  19.006  0.00  0.00    +0.000 C 
ENDROOT
BRANCH   2   3
ATOM      3  C   UNL     1       5.925   4.654  18.234  0.00  0.00    +0.000 A 
ATOM      4  C   UNL     1       6.831   5.482  18.918  0.00  0.00    +0.000 A 
ATOM      5  C   UNL     1       7.678   6.336  18.229  0.00  0.00    +0.000 A 
ATOM      6  C   UNL     1       7.690   6.316  16.841  0.00  0.00    +0.000 A 
ATOM      7  C   UNL     1       6.872   5.430  16.125  0.00  0.00    +0.000 A 
ATOM      8  C   UNL     1       6.968   5.390  14.726  0.00  0.00    +0.000 A 
ATOM      9  C   UNL     1       6.195   4.507  13.978  0.00  0.00    +0.000 A 
ATOM     10  C   UNL     1       5.299   3.665  14.623  0.00  0.00    +0.000 A 
ATOM     11  C   UNL     1       5.175   3.708  16.015  0.00  0.00    +0.000 A 
ATOM     12  C   UNL     1       5.965   4.578  16.812  0.00  0.00    +0.000 A 
BRANCH   4  13
ATOM     13  O   UNL     1       6.974   5.491  20.279  0.00  0.00    +0.000 OA
ATOM     14  H   UNL     1       6.091   5.365  20.691  0.00  0.00    +0.000 HD
ENDBRANCH   4  13
ENDBRANCH   2   3
BRANCH   1  17
ATOM     15  O   UNL     1       2.420   5.341  17.856  0.00  0.00    +0.000 OA
ATOM     16  C   UNL     1       2.779   5.962  18.850  0.00  0.00    +0.000 C 
ATOM     17  N   UNL     1       3.608   5.463  19.849  0.00  0.00    +0.000 N 
ATOM     18  H   UNL     1       3.720   5.968  20.723  0.00  0.00    +0.000 HD
BRANCH  16  19
ATOM     19  C   UNL     1       2.188   7.298  19.110  0.00  0.00    +0.000 A 
ATOM     20  C   UNL     1       2.120   8.286  18.135  0.00  0.00    +0.000 A 
ATOM     21  N   UNL     1       1.621   9.529  18.350  0.00  0.00    +0.000 NA
ATOM     22  C   UNL     1       1.158   9.788  19.598  0.00  0.00    +0.000 A 
ATOM     23  C   UNL     1       1.171   8.862  20.629  0.00  0.00    +0.000 A 
ATOM     24 BR   UNL     1       0.505   9.312  22.335  0.00  0.00    +0.000 Br
ATOM     25  C   UNL     1       1.692   7.596  20.384  0.00  0.00    +0.000 A 
ENDBRANCH  16  19
ENDBRANCH   1  17
TORSDOF 4
ENDMDL
MODEL 4
REMARK VINA RESULT:      -7.3      1.312      2.617
REMARK  Name = 
REMARK  4 active torsions:
REMARK  status: ('A' for Active; 'I' for Inactive)
REMARK    1  A    between atoms: C_2  and  C_17
REMARK    2  A    between atoms: N_3  and  N_4
REMARK    3  A    between atoms: C_5  and  C_6
REMARK    4  A    between atoms: C_7  and  O_8
REMARK                            x       y       z     vdW  Elec       q    Type
REMARK                         _______ _______ _______ _____ _____    ______ ____
ROOT
ATOM      1  N   UNL     1       7.213   4.377  18.217  0.00  0.00    +0.000 NA
ATOM      2  C   UNL     1       6.214   4.461  19.052  0.00  0.00    +0.000 C 
ENDROOT
BRANCH   2   3
ATOM      3  C   UNL     1       4.771   4.189  18.818  0.00  0.00    +0.000 A 
ATOM      4  C   UNL     1       4.253   2.910  19.082  0.00  0.00    +0.000 A 
ATOM      5  C   UNL     1       2.928   2.605  18.813  0.00  0.00    +0.000 A 
ATOM      6  C   UNL     1       2.077   3.601  18.352  0.00  0.00    +0.000 A 
ATOM      7  C   UNL     1       2.533   4.915  18.174  0.00  0.00    +0.000 A 
ATOM      8  C   UNL     1       1.624   5.906  17.777  0.00  0.00    +0.000 A 
ATOM      9  C   UNL     1       2.028   7.228  17.614  0.00  0.00    +0.000 A 
ATOM     10  C   UNL     1       3.356   7.570  17.827  0.00  0.00    +0.000 A 
ATOM     11  C   UNL     1       4.281   6.589  18.201  0.00  0.00    +0.000 A 
ATOM     12  C   UNL     1       3.899   5.237  18.401  0.00  0.00    +0.000 A 
BRANCH   4  13
ATOM     13  O   UNL     1       4.983   1.896  19.641  0.00  0.00    +0.000 OA
ATOM     14  H   UNL     1       4.418   1.094  19.698  0.00  0.00    +0.000 HD
ENDBRANCH   4  13
ENDBRANCH   2   3
BRANCH   1  17
ATOM     15  O   UNL     1       7.330   6.444  16.367  0.00  0.00    +0.000 OA
ATOM     16  C   UNL     1       7.099   5.291  16.021  0.00  0.00    +0.000 C 
ATOM     17  N   UNL     1       6.981   4.205  16.882  0.00  0.00    +0.000 N 
ATOM     18  H   UNL     1       6.964   3.258  16.515  0.00  0.00    +0.000 HD
BRANCH  16  19
ATOM     19  C   UNL     1       7.081   4.971  14.573  0.00  0.00    +0.000 A 
ATOM     20  C   UNL     1       8.058   5.427  13.696  0.00  0.00    +0.000 A 
ATOM     21  N   UNL     1       8.050   5.183  12.361  0.00  0.00    +0.000 NA
ATOM     22  C   UNL     1       7.021   4.437  11.888  0.00  0.00    +0.000 A 
ATOM     23  C   UNL     1       6.010   3.928  12.687  0.00  0.00    +0.000 A 
ATOM     24 BR   UNL     1       4.616   2.901  11.940  0.00  0.00    +0.000 Br
ATOM     25  C   UNL     1       6.039   4.196  14.052  0.00  0.00    +0.000 A 
ENDBRANCH  16  19
ENDBRANCH   1  17
TORSDOF 4
ENDMDL
MODEL 5
REMARK VINA RESULT:      -7.2      3.830      6.650
REMARK  Name = 
REMARK  4 active torsions:
REMARK  status: ('A' for Active; 'I' for Inactive)
REMARK    1  A    between atoms: C_2  and  C_17
REMARK    2  A    between atoms: N_3  and  N_4
REMARK    3  A    between atoms: C_5  and  C_6
REMARK    4  A    between atoms: C_7  and  O_8
REMARK                            x       y       z     vdW  Elec       q    Type
REMARK                         _______ _______ _______ _____ _____    ______ ____
ROOT
ATOM      1  N   UNL     1       3.143   3.615  18.359  0.00  0.00    +0.000 NA
ATOM      2  C   UNL     1       4.371   3.373  17.987  0.00  0.00    +0.000 C 
ENDROOT
BRANCH   2   3
ATOM      3  C   UNL     1       5.438   4.330  17.594  0.00  0.00    +0.000 A 
ATOM      4  C   UNL     1       6.078   5.101  18.580  0.00  0.00    +0.000 A 
ATOM      5  C   UNL     1       7.031   6.049  18.240  0.00  0.00    +0.000 A 
ATOM      6  C   UNL     1       7.419   6.184  16.914  0.00  0.00    +0.000 A 
ATOM      7  C   UNL     1       6.877   5.361  15.915  0.00  0.00    +0.000 A 
ATOM      8  C   UNL     1       7.350   5.480  14.601  0.00  0.00    +0.000 A 
ATOM      9  C   UNL     1       6.859   4.665  13.585  0.00  0.00    +0.000 A 
ATOM     10  C   UNL     1       5.870   3.734  13.870  0.00  0.00    +0.000 A 
ATOM     11  C   UNL     1       5.371   3.618  15.171  0.00  0.00    +0.000 A 
ATOM     12  C   UNL     1       5.866   4.414  16.237  0.00  0.00    +0.000 A 
BRANCH   4  13
ATOM     13  O   UNL     1       5.846   4.963  19.922  0.00  0.00    +0.000 OA
ATOM     14  H   UNL     1       6.415   5.597  20.409  0.00  0.00    +0.000 HD
ENDBRANCH   4  13
ENDBRANCH   2   3
BRANCH   1  17
ATOM     15  O   UNL     1       2.865   5.393  20.473  0.00  0.00    +0.000 OA
ATOM     16  C   UNL     1       2.552   5.708  19.331  0.00  0.00    +0.000 C 
ATOM     17  N   UNL     1       2.619   4.869  18.223  0.00  0.00    +0.000 N 
ATOM     18  H   UNL     1       2.512   5.247  17.286  0.00  0.00    +0.000 HD
BRANCH  16  19
ATOM     19  C   UNL     1       2.210   7.123  19.049  0.00  0.00    +0.000 A 
ATOM     20  C   UNL     1       2.497   7.732  17.832  0.00  0.00    +0.000 A 
ATOM     21  N   UNL     1       2.231   9.033  17.556  0.00  0.00    +0.000 NA
ATOM     22  C   UNL     1       1.640   9.753  18.541  0.00  0.00    +0.000 A 
ATOM     23  C   UNL     1       1.304   9.229  19.780  0.00  0.00    +0.000 A 
ATOM     24 BR   UNL     1       0.484  10.308  21.091  0.00  0.00    +0.000 Br
ATOM     25  C   UNL     1       1.591   7.893  20.040  0.00  0.00    +0.000 A 
ENDBRANCH  16  19
ENDBRANCH   1  17
TORSDOF 4
ENDMDL
MODEL 6
REMARK VINA RESULT:      -7.2      5.618      7.774
REMARK  Name = 
REMARK  4 active torsions:
REMARK  status: ('A' for Active; 'I' for Inactive)
REMARK    1  A    between atoms: C_2  and  C_17
REMARK    2  A    between atoms: N_3  and  N_4
REMARK    3  A    between atoms: C_5  and  C_6
REMARK    4  A    between atoms: C_7  and  O_8
REMARK                            x       y       z     vdW  Elec       q    Type
REMARK                         _______ _______ _______ _____ _____    ______ ____
ROOT
ATOM      1  N   UNL     1       2.760   8.293  17.600  0.00  0.00    +0.000 NA
ATOM      2  C   UNL     1       3.295   7.247  18.169  0.00  0.00    +0.000 C 
ENDROOT
BRANCH   2   3
ATOM      3  C   UNL     1       2.651   6.205  19.012  0.00  0.00    +0.000 A 
ATOM      4  C   UNL     1       2.045   6.571  20.226  0.00  0.00    +0.000 A 
ATOM      5  C   UNL     1       1.493   5.616  21.066  0.00  0.00    +0.000 A 
ATOM      6  C   UNL     1       1.466   4.286  20.666  0.00  0.00    +0.000 A 
ATOM      7  C   UNL     1       1.971   3.898  19.416  0.00  0.00    +0.000 A 
ATOM      8  C   UNL     1       1.858   2.557  19.019  0.00  0.00    +0.000 A 
ATOM      9  C   UNL     1       2.320   2.135  17.776  0.00  0.00    +0.000 A 
ATOM     10  C   UNL     1       2.922   3.047  16.922  0.00  0.00    +0.000 A 
ATOM     11  C   UNL     1       3.063   4.384  17.311  0.00  0.00    +0.000 A 
ATOM     12  C   UNL     1       2.581   4.856  18.560  0.00  0.00    +0.000 A 
BRANCH   4  13
ATOM     13  O   UNL     1       1.921   7.865  20.654  0.00  0.00    +0.000 OA
ATOM     14  H   UNL     1       1.122   7.936  21.220  0.00  0.00    +0.000 HD
ENDBRANCH   4  13
ENDBRANCH   2   3
BRANCH   1  17
ATOM     15  O   UNL     1       2.044  10.903  18.215  0.00  0.00    +0.000 OA
ATOM     16  C   UNL     1       1.209  10.007  18.170  0.00  0.00    +0.000 C 
ATOM     17  N   UNL     1       1.485   8.668  17.912  0.00  0.00    +0.000 N 
ATOM     18  H   UNL     1       0.730   8.016  17.718  0.00  0.00    +0.000 HD
BRANCH  16  19
ATOM     19  C   UNL     1      -0.228  10.365  18.250  0.00  0.00    +0.000 A 
ATOM     20  C   UNL     1      -1.185   9.802  17.414  0.00  0.00    +0.000 A 
ATOM     21  N   UNL     1      -2.500  10.135  17.436  0.00  0.00    +0.000 NA
ATOM     22  C   UNL     1      -2.873  11.067  18.347  0.00  0.00    +0.000 A 
ATOM     23  C   UNL     1      -1.994  11.672  19.231  0.00  0.00    +0.000 A 
ATOM     24 BR   UNL     1      -2.605  12.962  20.464  0.00  0.00    +0.000 Br
ATOM     25  C   UNL     1      -0.650  11.317  19.185  0.00  0.00    +0.000 A 
ENDBRANCH  16  19
ENDBRANCH   1  17
TORSDOF 4
ENDMDL
MODEL 7
REMARK VINA RESULT:      -7.1      5.218      7.456
REMARK  Name = 
REMARK  4 active torsions:
REMARK  status: ('A' for Active; 'I' for Inactive)
REMARK    1  A    between atoms: C_2  and  C_17
REMARK    2  A    between atoms: N_3  and  N_4
REMARK    3  A    between atoms: C_5  and  C_6
REMARK    4  A    between atoms: C_7  and  O_8
REMARK                            x       y       z     vdW  Elec       q    Type
REMARK                         _______ _______ _______ _____ _____    ______ ____
ROOT
ATOM      1  N   UNL     1       2.837   8.246  17.592  0.00  0.00    +0.000 NA
ATOM      2  C   UNL     1       3.335   7.165  18.127  0.00  0.00    +0.000 C 
ENDROOT
BRANCH   2   3
ATOM      3  C   UNL     1       2.669   6.153  18.990  0.00  0.00    +0.000 A 
ATOM      4  C   UNL     1       2.078   6.553  20.200  0.00  0.00    +0.000 A 
ATOM      5  C   UNL     1       1.507   5.626  21.058  0.00  0.00    +0.000 A 
ATOM      6  C   UNL     1       1.446   4.291  20.680  0.00  0.00    +0.000 A 
ATOM      7  C   UNL     1       1.935   3.870  19.434  0.00  0.00    +0.000 A 
ATOM      8  C   UNL     1       1.787   2.526  19.061  0.00  0.00    +0.000 A 
ATOM      9  C   UNL     1       2.233   2.072  17.823  0.00  0.00    +0.000 A 
ATOM     10  C   UNL     1       2.853   2.956  16.951  0.00  0.00    +0.000 A 
ATOM     11  C   UNL     1       3.029   4.294  17.317  0.00  0.00    +0.000 A 
ATOM     12  C   UNL     1       2.564   4.798  18.560  0.00  0.00    +0.000 A 
BRANCH   4  13
ATOM     13  O   UNL     1       1.988   7.857  20.607  0.00  0.00    +0.000 OA
ATOM     14  H   UNL     1       2.855   8.295  20.461  0.00  0.00    +0.000 HD
ENDBRANCH   4  13
ENDBRANCH   2   3
BRANCH   1  17
ATOM     15  O   UNL     1       2.287  10.902  18.183  0.00  0.00    +0.000 OA
ATOM     16  C   UNL     1       1.408  10.049  18.207  0.00  0.00    +0.000 C 
ATOM     17  N   UNL     1       1.602   8.693  17.967  0.00  0.00    +0.000 N 
ATOM     18  H   UNL     1       0.806   8.076  17.831  0.00  0.00    +0.000 HD
BRANCH  16  19
ATOM     19  C   UNL     1      -0.003  10.481  18.359  0.00  0.00    +0.000 A 
ATOM     20  C   UNL     1      -0.439  11.235  19.442  0.00  0.00    +0.000 A 
ATOM     21  N   UNL     1      -1.728  11.614  19.630  0.00  0.00    +0.000 NA
ATOM     22  C   UNL     1      -2.618  11.229  18.681  0.00  0.00    +0.000 A 
ATOM     23  C   UNL     1      -2.273  10.489  17.561  0.00  0.00    +0.000 A 
ATOM     24 BR   UNL     1      -3.579   9.997  16.293  0.00  0.00    +0.000 Br
ATOM     25  C   UNL     1      -0.945  10.108  17.394  0.00  0.00    +0.000 A 
ENDBRANCH  16  19
ENDBRANCH   1  17
TORSDOF 4
ENDMDL
MODEL 8
REMARK VINA RESULT:      -7.0      3.397      5.024
REMARK  Name = 
REMARK  4 active torsions:
REMARK  status: ('A' for Active; 'I' for Inactive)
REMARK    1  A    between atoms: C_2  and  C_17
REMARK    2  A    between atoms: N_3  and  N_4
REMARK    3  A    between atoms: C_5  and  C_6
REMARK    4  A    between atoms: C_7  and  O_8
REMARK                            x       y       z     vdW  Elec       q    Type
REMARK                         _______ _______ _______ _____ _____    ______ ____
ROOT
ATOM      1  N   UNL     1       2.830   4.962  20.413  0.00  0.00    +0.000 NA
ATOM      2  C   UNL     1       1.966   5.928  20.564  0.00  0.00    +0.000 C 
ENDROOT
BRANCH   2   3
ATOM      3  C   UNL     1       1.833   7.197  19.800  0.00  0.00    +0.000 A 
ATOM      4  C   UNL     1       2.116   7.211  18.424  0.00  0.00    +0.000 A 
ATOM      5  C   UNL     1       2.065   8.390  17.696  0.00  0.00    +0.000 A 
ATOM      6  C   UNL     1       1.649   9.561  18.317  0.00  0.00    +0.000 A 
ATOM      7  C   UNL     1       1.261   9.564  19.665  0.00  0.00    +0.000 A 
ATOM      8  C   UNL     1       0.778  10.751  20.234  0.00  0.00    +0.000 A 
ATOM      9  C   UNL     1       0.356  10.792  21.560  0.00  0.00    +0.000 A 
ATOM     10  C   UNL     1       0.433   9.647  22.340  0.00  0.00    +0.000 A 
ATOM     11  C   UNL     1       0.934   8.461  21.794  0.00  0.00    +0.000 A 
ATOM     12  C   UNL     1       1.349   8.375  20.440  0.00  0.00    +0.000 A 
BRANCH   4  13
ATOM     13  O   UNL     1       2.424   6.092  17.700  0.00  0.00    +0.000 OA
ATOM     14  H   UNL     1       2.059   6.191  16.793  0.00  0.00    +0.000 HD
ENDBRANCH   4  13
ENDBRANCH   2   3
BRANCH   1  17
ATOM     15  O   UNL     1       4.294   2.848  19.367  0.00  0.00    +0.000 OA
ATOM     16  C   UNL     1       4.562   4.010  19.084  0.00  0.00    +0.000 C 
ATOM     17  N   UNL     1       3.910   5.129  19.594  0.00  0.00    +0.000 N 
ATOM     18  H   UNL     1       4.067   6.045  19.185  0.00  0.00    +0.000 HD
BRANCH  16  19
ATOM     19  C   UNL     1       5.553   4.274  18.013  0.00  0.00    +0.000 A 
ATOM     20  C   UNL     1       6.810   4.808  18.275  0.00  0.00    +0.000 A 
ATOM     21  N   UNL     1       7.724   5.096  17.315  0.00  0.00    +0.000 NA
ATOM     22  C   UNL     1       7.366   4.825  16.036  0.00  0.00    +0.000 A 
ATOM     23  C   UNL     1       6.143   4.280  15.680  0.00  0.00    +0.000 A 
ATOM     24 BR   UNL     1       5.731   3.937  13.872  0.00  0.00    +0.000 Br
ATOM     25  C   UNL     1       5.220   3.998  16.683  0.00  0.00    +0.000 A 
ENDBRANCH  16  19
ENDBRANCH   1  17
TORSDOF 4
ENDMDL
MODEL 9
REMARK VINA RESULT:      -6.7      3.592      6.758
REMARK  Name = 
REMARK  4 active torsions:
REMARK  status: ('A' for Active; 'I' for Inactive)
REMARK    1  A    between atoms: C_2  and  C_17
REMARK    2  A    between atoms: N_3  and  N_4
REMARK    3  A    between atoms: C_5  and  C_6
REMARK    4  A    between atoms: C_7  and  O_8
REMARK                            x       y       z     vdW  Elec       q    Type
REMARK                         _______ _______ _______ _____ _____    ______ ____
ROOT
ATOM      1  N   UNL     1       4.066   3.687  19.448  0.00  0.00    +0.000 NA
ATOM      2  C   UNL     1       5.018   3.499  18.576  0.00  0.00    +0.000 C 
ENDROOT
BRANCH   2   3
ATOM      3  C   UNL     1       5.938   4.492  17.962  0.00  0.00    +0.000 A 
ATOM      4  C   UNL     1       6.672   5.361  18.786  0.00  0.00    +0.000 A 
ATOM      5  C   UNL     1       7.489   6.342  18.243  0.00  0.00    +0.000 A 
ATOM      6  C   UNL     1       7.647   6.415  16.865  0.00  0.00    +0.000 A 
ATOM      7  C   UNL     1       7.010   5.500  16.015  0.00  0.00    +0.000 A 
ATOM      8  C   UNL     1       7.254   5.563  14.636  0.00  0.00    +0.000 A 
ATOM      9  C   UNL     1       6.663   4.657  13.760  0.00  0.00    +0.000 A 
ATOM     10  C   UNL     1       5.802   3.687  14.254  0.00  0.00    +0.000 A 
ATOM     11  C   UNL     1       5.530   3.625  15.624  0.00  0.00    +0.000 A 
ATOM     12  C   UNL     1       6.133   4.515  16.550  0.00  0.00    +0.000 A 
BRANCH   4  13
ATOM     13  O   UNL     1       6.671   5.294  20.153  0.00  0.00    +0.000 OA
ATOM     14  H   UNL     1       7.416   5.835  20.497  0.00  0.00    +0.000 HD
ENDBRANCH   4  13
ENDBRANCH   2   3
BRANCH   1  17
ATOM     15  O   UNL     1       2.344   5.174  17.857  0.00  0.00    +0.000 OA
ATOM     16  C   UNL     1       2.764   5.611  18.922  0.00  0.00    +0.000 C 
ATOM     17  N   UNL     1       3.660   4.954  19.759  0.00  0.00    +0.000 N 
ATOM     18  H   UNL     1       3.827   5.294  20.701  0.00  0.00    +0.000 HD
BRANCH  16  19
ATOM     19  C   UNL     1       2.184   6.867  19.457  0.00  0.00    +0.000 A 
ATOM     20  C   UNL     1       1.617   6.946  20.724  0.00  0.00    +0.000 A 
ATOM     21  N   UNL     1       1.045   8.068  21.228  0.00  0.00    +0.000 NA
ATOM     22  C   UNL     1       1.054   9.164  20.429  0.00  0.00    +0.000 A 
ATOM     23  C   UNL     1       1.609   9.184  19.160  0.00  0.00    +0.000 A 
ATOM     24 BR   UNL     1       1.574  10.756  18.119  0.00  0.00    +0.000 Br
ATOM     25  C   UNL     1       2.185   8.019  18.663  0.00  0.00    +0.000 A 
ENDBRANCH  16  19
ENDBRANCH   1  17
TORSDOF 4
ENDMDL
