MODEL 1
REMARK VINA RESULT:      -8.1      0.000      0.000
REMARK  Name = 
REMARK  8 active torsions:
REMARK  status: ('A' for Active; 'I' for Inactive)
REMARK    1  A    between atoms: C_1  and  C_2
REMARK    2  A    between atoms: C_2  and  C_3
REMARK    3  A    between atoms: C_2  and  C_5
REMARK    4  A    between atoms: C_2  and  N_7
REMARK    5  A    between atoms: C_3  and  O_4
REMARK    6  A    between atoms: C_5  and  O_6
REMARK    7  A    between atoms: N_7  and  C_8
REMARK    8  A    between atoms: C_8  and  C_9
REMARK                            x       y       z     vdW  Elec       q    Type
REMARK                         _______ _______ _______ _____ _____    ______ ____
ROOT
ATOM      1  C   UNL     1       3.224   4.095  18.490  0.00  0.00    +0.000 A 
ATOM      2  C   UNL     1       3.262   2.977  19.347  0.00  0.00    +0.000 A 
ATOM      3  C   UNL     1       2.767   3.051  20.649  0.00  0.00    +0.000 A 
ATOM      4  C   UNL     1       2.226   4.241  21.130  0.00  0.00    +0.000 A 
ATOM      5  C   UNL     1       2.165   5.374  20.306  0.00  0.00    +0.000 A 
ATOM      6  C   UNL     1       1.621   6.570  20.806  0.00  0.00    +0.000 A 
ATOM      7  C   UNL     1       1.563   7.715  20.000  0.00  0.00    +0.000 A 
ATOM      8  C   UNL     1       1.047   8.923  20.495  0.00  0.00    +0.000 A 
ATOM      9  C   UNL     1       1.012  10.060  19.677  0.00  0.00    +0.000 A 
ATOM     10  C   UNL     1       1.484   9.997  18.364  0.00  0.00    +0.000 A 
ATOM     11  C   UNL     1       1.988   8.798  17.858  0.00  0.00    +0.000 A 
ATOM     12  C   UNL     1       2.034   7.655  18.672  0.00  0.00    +0.000 A 
ATOM     13  C   UNL     1       2.550   6.460  18.170  0.00  0.00    +0.000 A 
ATOM     14  C   UNL     1       2.655   5.310  18.974  0.00  0.00    +0.000 A 
ENDROOT
BRANCH   1  15
ATOM     15  C   UNL     1       3.784   3.943  17.081  0.00  0.00    +0.000 C 
BRANCH  15  16
ATOM     16  N   UNL     1       5.223   3.589  17.091  0.00  0.00    +0.000 NA
ATOM     17  H   UNL     1       5.530   3.229  18.018  0.00  0.00    +0.000 HD
BRANCH  16  19
ATOM     18  C   UNL     1       5.360   5.944  16.383  0.00  0.00    +0.000 C 
ATOM     19  C   UNL     1       6.166   4.645  16.628  0.00  0.00    +0.000 C 
BRANCH  19  20
ATOM     20  C   UNL     1       6.888   4.275  15.297  0.00  0.00    +0.000 C 
BRANCH  20  21
ATOM     21  O   UNL     1       7.722   5.310  14.847  0.00  0.00    +0.000 OA
ATOM     22  H   UNL     1       7.143   5.963  14.382  0.00  0.00    +0.000 HD
ENDBRANCH  20  21
ENDBRANCH  19  20
BRANCH  19  23
ATOM     23  C   UNL     1       7.231   4.921  17.718  0.00  0.00    +0.000 C 
BRANCH  23  24
ATOM     24  O   UNL     1       8.301   4.019  17.618  0.00  0.00    +0.000 OA
ATOM     25  H   UNL     1       7.935   3.113  17.789  0.00  0.00    +0.000 HD
ENDBRANCH  23  24
ENDBRANCH  19  23
ENDBRANCH  16  19
ENDBRANCH  15  16
ENDBRANCH   1  15
TORSDOF 7
ENDMDL
MODEL 2
REMARK VINA RESULT:      -7.9      0.729      1.355
REMARK  Name = 
REMARK  8 active torsions:
REMARK  status: ('A' for Active; 'I' for Inactive)
REMARK    1  A    between atoms: C_1  and  C_2
REMARK    2  A    between atoms: C_2  and  C_3
REMARK    3  A    between atoms: C_2  and  C_5
REMARK    4  A    between atoms: C_2  and  N_7
REMARK    5  A    between atoms: C_3  and  O_4
REMARK    6  A    between atoms: C_5  and  O_6
REMARK    7  A    between atoms: N_7  and  C_8
REMARK    8  A    between atoms: C_8  and  C_9
REMARK                            x       y       z     vdW  Elec       q    Type
REMARK                         _______ _______ _______ _____ _____    ______ ____
ROOT
ATOM      1  C   UNL     1       3.326   4.275  18.474  0.00  0.00    +0.000 A 
ATOM      2  C   UNL     1       3.332   3.148  19.319  0.00  0.00    +0.000 A 
ATOM      3  C   UNL     1       2.774   3.202  20.597  0.00  0.00    +0.000 A 
ATOM      4  C   UNL     1       2.202   4.383  21.065  0.00  0.00    +0.000 A 
ATOM      5  C   UNL     1       2.172   5.525  20.253  0.00  0.00    +0.000 A 
ATOM      6  C   UNL     1       1.596   6.711  20.740  0.00  0.00    +0.000 A 
ATOM      7  C   UNL     1       1.569   7.865  19.945  0.00  0.00    +0.000 A 
ATOM      8  C   UNL     1       1.021   9.064  20.429  0.00  0.00    +0.000 A 
ATOM      9  C   UNL     1       1.016  10.210  19.624  0.00  0.00    +0.000 A 
ATOM     10  C   UNL     1       1.551  10.166  18.334  0.00  0.00    +0.000 A 
ATOM     11  C   UNL     1       2.087   8.977  17.839  0.00  0.00    +0.000 A 
ATOM     12  C   UNL     1       2.102   7.825  18.641  0.00  0.00    +0.000 A 
ATOM     13  C   UNL     1       2.650   6.639  18.150  0.00  0.00    +0.000 A 
ATOM     14  C   UNL     1       2.725   5.480  18.945  0.00  0.00    +0.000 A 
ENDROOT
BRANCH   1  15
ATOM     15  C   UNL     1       3.954   4.144  17.092  0.00  0.00    +0.000 C 
BRANCH  15  16
ATOM     16  N   UNL     1       5.375   3.731  17.165  0.00  0.00    +0.000 NA
ATOM     17  H   UNL     1       5.637   3.398  18.116  0.00  0.00    +0.000 HD
BRANCH  16  19
ATOM     18  C   UNL     1       7.642   4.600  17.575  0.00  0.00    +0.000 C 
ATOM     19  C   UNL     1       6.377   4.726  16.692  0.00  0.00    +0.000 C 
BRANCH  19  20
ATOM     20  C   UNL     1       5.871   6.197  16.794  0.00  0.00    +0.000 C 
BRANCH  20  21
ATOM     21  O   UNL     1       5.486   6.708  15.546  0.00  0.00    +0.000 OA
ATOM     22  H   UNL     1       4.649   7.213  15.687  0.00  0.00    +0.000 HD
ENDBRANCH  20  21
ENDBRANCH  19  20
BRANCH  19  23
ATOM     23  C   UNL     1       6.768   4.431  15.223  0.00  0.00    +0.000 C 
BRANCH  23  24
ATOM     24  O   UNL     1       7.729   5.345  14.763  0.00  0.00    +0.000 OA
ATOM     25  H   UNL     1       7.320   6.247  14.813  0.00  0.00    +0.000 HD
ENDBRANCH  23  24
ENDBRANCH  19  23
ENDBRANCH  16  19
ENDBRANCH  15  16
ENDBRANCH   1  15
TORSDOF 7
ENDMDL
MODEL 3
REMARK VINA RESULT:      -7.8      3.493      6.797
REMARK  Name = 
REMARK  8 active torsions:
REMARK  status: ('A' for Active; 'I' for Inactive)
REMARK    1  A    between atoms: C_1  and  C_2
REMARK    2  A    between atoms: C_2  and  C_3
REMARK    3  A    between atoms: C_2  and  C_5
REMARK    4  A    between atoms: C_2  and  N_7
REMARK    5  A    between atoms: C_3  and  O_4
REMARK    6  A    between atoms: C_5  and  O_6
REMARK    7  A    between atoms: N_7  and  C_8
REMARK    8  A    between atoms: C_8  and  C_9
REMARK                            x       y       z     vdW  Elec       q    Type
REMARK                         _______ _______ _______ _____ _____    ______ ____
ROOT
ATOM      1  C   UNL     1       4.890   4.187  18.120  0.00  0.00    +0.000 A 
ATOM      2  C   UNL     1       5.393   4.776  19.296  0.00  0.00    +0.000 A 
ATOM      3  C   UNL     1       6.550   5.555  19.274  0.00  0.00    +0.000 A 
ATOM      4  C   UNL     1       7.237   5.760  18.079  0.00  0.00    +0.000 A 
ATOM      5  C   UNL     1       6.766   5.195  16.886  0.00  0.00    +0.000 A 
ATOM      6  C   UNL     1       7.471   5.406  15.689  0.00  0.00    +0.000 A 
ATOM      7  C   UNL     1       7.021   4.838  14.490  0.00  0.00    +0.000 A 
ATOM      8  C   UNL     1       7.730   5.019  13.292  0.00  0.00    +0.000 A 
ATOM      9  C   UNL     1       7.270   4.430  12.107  0.00  0.00    +0.000 A 
ATOM     10  C   UNL     1       6.101   3.666  12.109  0.00  0.00    +0.000 A 
ATOM     11  C   UNL     1       5.382   3.489  13.291  0.00  0.00    +0.000 A 
ATOM     12  C   UNL     1       5.838   4.070  14.485  0.00  0.00    +0.000 A 
ATOM     13  C   UNL     1       5.126   3.883  15.670  0.00  0.00    +0.000 A 
ATOM     14  C   UNL     1       5.582   4.410  16.892  0.00  0.00    +0.000 A 
ENDROOT
BRANCH   1  15
ATOM     15  C   UNL     1       3.622   3.348  18.219  0.00  0.00    +0.000 C 
BRANCH  15  16
ATOM     16  N   UNL     1       3.278   3.025  19.624  0.00  0.00    +0.000 NA
ATOM     17  H   UNL     1       3.530   2.046  19.873  0.00  0.00    +0.000 HD
BRANCH  16  19
ATOM     18  C   UNL     1       0.924   2.646  19.010  0.00  0.00    +0.000 C 
ATOM     19  C   UNL     1       1.876   3.300  20.041  0.00  0.00    +0.000 C 
BRANCH  19  20
ATOM     20  C   UNL     1       1.544   4.822  20.097  0.00  0.00    +0.000 C 
BRANCH  20  21
ATOM     21  O   UNL     1       2.336   5.498  21.037  0.00  0.00    +0.000 OA
ATOM     22  H   UNL     1       1.982   6.419  21.102  0.00  0.00    +0.000 HD
ENDBRANCH  20  21
ENDBRANCH  19  20
BRANCH  19  23
ATOM     23  C   UNL     1       1.602   2.676  21.431  0.00  0.00    +0.000 C 
BRANCH  23  24
ATOM     24  O   UNL     1       2.801   2.445  22.126  0.00  0.00    +0.000 OA
ATOM     25  H   UNL     1       2.664   1.634  22.681  0.00  0.00    +0.000 HD
ENDBRANCH  23  24
ENDBRANCH  19  23
ENDBRANCH  16  19
ENDBRANCH  15  16
ENDBRANCH   1  15
TORSDOF 7
ENDMDL
MODEL 4
REMARK VINA RESULT:      -7.8      2.841      4.831
REMARK  Name = 
REMARK  8 active torsions:
REMARK  status: ('A' for Active; 'I' for Inactive)
REMARK    1  A    between atoms: C_1  and  C_2
REMARK    2  A    between atoms: C_2  and  C_3
REMARK    3  A    between atoms: C_2  and  C_5
REMARK    4  A    between atoms: C_2  and  N_7
REMARK    5  A    between atoms: C_3  and  O_4
REMARK    6  A    between atoms: C_5  and  O_6
REMARK    7  A    between atoms: N_7  and  C_8
REMARK    8  A    between atoms: C_8  and  C_9
REMARK                            x       y       z     vdW  Elec       q    Type
REMARK                         _______ _______ _______ _____ _____    ______ ____
ROOT
ATOM      1  C   UNL     1       2.345   6.748  19.596  0.00  0.00    +0.000 A 
ATOM      2  C   UNL     1       2.951   6.706  18.324  0.00  0.00    +0.000 A 
ATOM      3  C   UNL     1       2.882   7.797  17.458  0.00  0.00    +0.000 A 
ATOM      4  C   UNL     1       2.204   8.954  17.835  0.00  0.00    +0.000 A 
ATOM      5  C   UNL     1       1.593   9.037  19.093  0.00  0.00    +0.000 A 
ATOM      6  C   UNL     1       0.908  10.208  19.459  0.00  0.00    +0.000 A 
ATOM      7  C   UNL     1       0.280  10.303  20.709  0.00  0.00    +0.000 A 
ATOM      8  C   UNL     1      -0.430  11.457  21.076  0.00  0.00    +0.000 A 
ATOM      9  C   UNL     1      -1.062  11.526  22.324  0.00  0.00    +0.000 A 
ATOM     10  C   UNL     1      -0.984  10.450  23.212  0.00  0.00    +0.000 A 
ATOM     11  C   UNL     1      -0.271   9.303  22.862  0.00  0.00    +0.000 A 
ATOM     12  C   UNL     1       0.360   9.223  21.611  0.00  0.00    +0.000 A 
ATOM     13  C   UNL     1       1.062   8.071  21.256  0.00  0.00    +0.000 A 
ATOM     14  C   UNL     1       1.665   7.938  19.991  0.00  0.00    +0.000 A 
ENDROOT
BRANCH   1  15
ATOM     15  C   UNL     1       2.459   5.519  20.490  0.00  0.00    +0.000 C 
BRANCH  15  16
ATOM     16  N   UNL     1       3.287   4.458  19.871  0.00  0.00    +0.000 NA
ATOM     17  H   UNL     1       3.715   4.769  18.975  0.00  0.00    +0.000 HD
BRANCH  16  19
ATOM     18  C   UNL     1       1.546   3.287  18.582  0.00  0.00    +0.000 C 
ATOM     19  C   UNL     1       2.630   3.136  19.677  0.00  0.00    +0.000 C 
BRANCH  19  20
ATOM     20  C   UNL     1       1.932   2.607  20.967  0.00  0.00    +0.000 C 
BRANCH  20  21
ATOM     21  O   UNL     1       2.842   2.429  22.020  0.00  0.00    +0.000 OA
ATOM     22  H   UNL     1       2.706   1.513  22.366  0.00  0.00    +0.000 HD
ENDBRANCH  20  21
ENDBRANCH  19  20
BRANCH  19  23
ATOM     23  C   UNL     1       3.669   2.090  19.204  0.00  0.00    +0.000 C 
BRANCH  23  24
ATOM     24  O   UNL     1       4.897   2.265  19.861  0.00  0.00    +0.000 OA
ATOM     25  H   UNL     1       4.825   3.097  20.395  0.00  0.00    +0.000 HD
ENDBRANCH  23  24
ENDBRANCH  19  23
ENDBRANCH  16  19
ENDBRANCH  15  16
ENDBRANCH   1  15
TORSDOF 7
ENDMDL
MODEL 5
REMARK VINA RESULT:      -7.7      0.695      1.377
REMARK  Name = 
REMARK  8 active torsions:
REMARK  status: ('A' for Active; 'I' for Inactive)
REMARK    1  A    between atoms: C_1  and  C_2
REMARK    2  A    between atoms: C_2  and  C_3
REMARK    3  A    between atoms: C_2  and  C_5
REMARK    4  A    between atoms: C_2  and  N_7
REMARK    5  A    between atoms: C_3  and  O_4
REMARK    6  A    between atoms: C_5  and  O_6
REMARK    7  A    between atoms: N_7  and  C_8
REMARK    8  A    between atoms: C_8  and  C_9
REMARK                            x       y       z     vdW  Elec       q    Type
REMARK                         _______ _______ _______ _____ _____    ______ ____
ROOT
ATOM      1  C   UNL     1       3.146   3.998  18.540  0.00  0.00    +0.000 A 
ATOM      2  C   UNL     1       3.131   2.903  19.426  0.00  0.00    +0.000 A 
ATOM      3  C   UNL     1       2.625   3.031  20.720  0.00  0.00    +0.000 A 
ATOM      4  C   UNL     1       2.127   4.254  21.164  0.00  0.00    +0.000 A 
ATOM      5  C   UNL     1       2.119   5.366  20.310  0.00  0.00    +0.000 A 
ATOM      6  C   UNL     1       1.618   6.595  20.772  0.00  0.00    +0.000 A 
ATOM      7  C   UNL     1       1.615   7.719  19.936  0.00  0.00    +0.000 A 
ATOM      8  C   UNL     1       1.141   8.960  20.393  0.00  0.00    +0.000 A 
ATOM      9  C   UNL     1       1.160  10.075  19.545  0.00  0.00    +0.000 A 
ATOM     10  C   UNL     1       1.643   9.959  18.240  0.00  0.00    +0.000 A 
ATOM     11  C   UNL     1       2.105   8.728  17.772  0.00  0.00    +0.000 A 
ATOM     12  C   UNL     1       2.096   7.606  18.615  0.00  0.00    +0.000 A 
ATOM     13  C   UNL     1       2.570   6.379  18.151  0.00  0.00    +0.000 A 
ATOM     14  C   UNL     1       2.620   5.247  18.986  0.00  0.00    +0.000 A 
ENDROOT
BRANCH   1  15
ATOM     15  C   UNL     1       3.714   3.787  17.142  0.00  0.00    +0.000 C 
BRANCH  15  16
ATOM     16  N   UNL     1       5.176   3.546  17.168  0.00  0.00    +0.000 NA
ATOM     17  H   UNL     1       5.559   3.567  18.136  0.00  0.00    +0.000 HD
BRANCH  16  19
ATOM     18  C   UNL     1       6.017   3.794  14.867  0.00  0.00    +0.000 C 
ATOM     19  C   UNL     1       6.005   4.414  16.286  0.00  0.00    +0.000 C 
BRANCH  19  20
ATOM     20  C   UNL     1       7.483   4.535  16.765  0.00  0.00    +0.000 C 
BRANCH  20  21
ATOM     21  O   UNL     1       7.604   4.336  18.148  0.00  0.00    +0.000 OA
ATOM     22  H   UNL     1       6.795   3.848  18.440  0.00  0.00    +0.000 HD
ENDBRANCH  20  21
ENDBRANCH  19  20
BRANCH  19  23
ATOM     23  C   UNL     1       5.387   5.831  16.201  0.00  0.00    +0.000 C 
BRANCH  23  24
ATOM     24  O   UNL     1       6.340   6.817  16.504  0.00  0.00    +0.000 OA
ATOM     25  H   UNL     1       7.023   6.790  15.785  0.00  0.00    +0.000 HD
ENDBRANCH  23  24
ENDBRANCH  19  23
ENDBRANCH  16  19
ENDBRANCH  15  16
ENDBRANCH   1  15
TORSDOF 7
ENDMDL
MODEL 6
REMARK VINA RESULT:      -7.5      2.753      4.741
REMARK  Name = 
REMARK  8 active torsions:
REMARK  status: ('A' for Active; 'I' for Inactive)
REMARK    1  A    between atoms: C_1  and  C_2
REMARK    2  A    between atoms: C_2  and  C_3
REMARK    3  A    between atoms: C_2  and  C_5
REMARK    4  A    between atoms: C_2  and  N_7
REMARK    5  A    between atoms: C_3  and  O_4
REMARK    6  A    between atoms: C_5  and  O_6
REMARK    7  A    between atoms: N_7  and  C_8
REMARK    8  A    between atoms: C_8  and  C_9
REMARK                            x       y       z     vdW  Elec       q    Type
REMARK                         _______ _______ _______ _____ _____    ______ ____
ROOT
ATOM      1  C   UNL     1       2.212   6.852  19.656  0.00  0.00    +0.000 A 
ATOM      2  C   UNL     1       2.826   6.793  18.390  0.00  0.00    +0.000 A 
ATOM      3  C   UNL     1       2.777   7.879  17.515  0.00  0.00    +0.000 A 
ATOM      4  C   UNL     1       2.111   9.046  17.879  0.00  0.00    +0.000 A 
ATOM      5  C   UNL     1       1.492   9.146  19.133  0.00  0.00    +0.000 A 
ATOM      6  C   UNL     1       0.820  10.329  19.486  0.00  0.00    +0.000 A 
ATOM      7  C   UNL     1       0.185  10.440  20.731  0.00  0.00    +0.000 A 
ATOM      8  C   UNL     1      -0.513  11.605  21.086  0.00  0.00    +0.000 A 
ATOM      9  C   UNL     1      -1.152  11.691  22.329  0.00  0.00    +0.000 A 
ATOM     10  C   UNL     1      -1.094  10.621  23.225  0.00  0.00    +0.000 A 
ATOM     11  C   UNL     1      -0.394   9.462  22.887  0.00  0.00    +0.000 A 
ATOM     12  C   UNL     1       0.245   9.365  21.641  0.00  0.00    +0.000 A 
ATOM     13  C   UNL     1       0.935   8.202  21.299  0.00  0.00    +0.000 A 
ATOM     14  C   UNL     1       1.544   8.053  20.039  0.00  0.00    +0.000 A 
ENDROOT
BRANCH   1  15
ATOM     15  C   UNL     1       2.304   5.627  20.560  0.00  0.00    +0.000 C 
BRANCH  15  16
ATOM     16  N   UNL     1       3.332   4.668  20.091  0.00  0.00    +0.000 NA
ATOM     17  H   UNL     1       3.676   4.899  19.136  0.00  0.00    +0.000 HD
BRANCH  16  19
ATOM     18  C   UNL     1       2.223   2.970  21.488  0.00  0.00    +0.000 C 
ATOM     19  C   UNL     1       2.967   3.226  20.155  0.00  0.00    +0.000 C 
BRANCH  19  20
ATOM     20  C   UNL     1       4.208   2.282  20.114  0.00  0.00    +0.000 C 
BRANCH  20  21
ATOM     21  O   UNL     1       5.223   2.786  19.287  0.00  0.00    +0.000 OA
ATOM     22  H   UNL     1       5.997   2.179  19.381  0.00  0.00    +0.000 HD
ENDBRANCH  20  21
ENDBRANCH  19  20
BRANCH  19  23
ATOM     23  C   UNL     1       2.022   2.864  18.983  0.00  0.00    +0.000 C 
BRANCH  23  24
ATOM     24  O   UNL     1       2.626   3.135  17.745  0.00  0.00    +0.000 OA
ATOM     25  H   UNL     1       2.167   3.928  17.365  0.00  0.00    +0.000 HD
ENDBRANCH  23  24
ENDBRANCH  19  23
ENDBRANCH  16  19
ENDBRANCH  15  16
ENDBRANCH   1  15
TORSDOF 7
ENDMDL
MODEL 7
REMARK VINA RESULT:      -7.5      3.553      6.931
REMARK  Name = 
REMARK  8 active torsions:
REMARK  status: ('A' for Active; 'I' for Inactive)
REMARK    1  A    between atoms: C_1  and  C_2
REMARK    2  A    between atoms: C_2  and  C_3
REMARK    3  A    between atoms: C_2  and  C_5
REMARK    4  A    between atoms: C_2  and  N_7
REMARK    5  A    between atoms: C_3  and  O_4
REMARK    6  A    between atoms: C_5  and  O_6
REMARK    7  A    between atoms: N_7  and  C_8
REMARK    8  A    between atoms: C_8  and  C_9
REMARK                            x       y       z     vdW  Elec       q    Type
REMARK                         _______ _______ _______ _____ _____    ______ ____
ROOT
ATOM      1  C   UNL     1       5.218   4.211  18.142  0.00  0.00    +0.000 A 
ATOM      2  C   UNL     1       5.756   4.858  19.272  0.00  0.00    +0.000 A 
ATOM      3  C   UNL     1       6.865   5.697  19.161  0.00  0.00    +0.000 A 
ATOM      4  C   UNL     1       7.468   5.907  17.923  0.00  0.00    +0.000 A 
ATOM      5  C   UNL     1       6.958   5.285  16.774  0.00  0.00    +0.000 A 
ATOM      6  C   UNL     1       7.579   5.502  15.532  0.00  0.00    +0.000 A 
ATOM      7  C   UNL     1       7.090   4.879  14.376  0.00  0.00    +0.000 A 
ATOM      8  C   UNL     1       7.717   5.066  13.133  0.00  0.00    +0.000 A 
ATOM      9  C   UNL     1       7.221   4.422  11.992  0.00  0.00    +0.000 A 
ATOM     10  C   UNL     1       6.098   3.596  12.082  0.00  0.00    +0.000 A 
ATOM     11  C   UNL     1       5.461   3.413  13.310  0.00  0.00    +0.000 A 
ATOM     12  C   UNL     1       5.954   4.049  14.460  0.00  0.00    +0.000 A 
ATOM     13  C   UNL     1       5.325   3.855  15.690  0.00  0.00    +0.000 A 
ATOM     14  C   UNL     1       5.822   4.438  16.870  0.00  0.00    +0.000 A 
ENDROOT
BRANCH   1  15
ATOM     15  C   UNL     1       4.006   3.308  18.337  0.00  0.00    +0.000 C 
BRANCH  15  16
ATOM     16  N   UNL     1       2.772   4.085  18.601  0.00  0.00    +0.000 NA
ATOM     17  H   UNL     1       2.942   5.111  18.571  0.00  0.00    +0.000 HD
BRANCH  16  19
ATOM     18  C   UNL     1       1.598   5.057  20.535  0.00  0.00    +0.000 C 
ATOM     19  C   UNL     1       2.027   3.740  19.844  0.00  0.00    +0.000 C 
BRANCH  19  20
ATOM     20  C   UNL     1       2.882   2.925  20.861  0.00  0.00    +0.000 C 
BRANCH  20  21
ATOM     21  O   UNL     1       2.104   2.412  21.909  0.00  0.00    +0.000 OA
ATOM     22  H   UNL     1       1.459   1.782  21.506  0.00  0.00    +0.000 HD
ENDBRANCH  20  21
ENDBRANCH  19  20
BRANCH  19  23
ATOM     23  C   UNL     1       0.755   2.928  19.493  0.00  0.00    +0.000 C 
BRANCH  23  24
ATOM     24  O   UNL     1       1.089   1.685  18.932  0.00  0.00    +0.000 OA
ATOM     25  H   UNL     1       0.238   1.200  18.773  0.00  0.00    +0.000 HD
ENDBRANCH  23  24
ENDBRANCH  19  23
ENDBRANCH  16  19
ENDBRANCH  15  16
ENDBRANCH   1  15
TORSDOF 7
ENDMDL
MODEL 8
REMARK VINA RESULT:      -7.5      2.989      4.779
REMARK  Name = 
REMARK  8 active torsions:
REMARK  status: ('A' for Active; 'I' for Inactive)
REMARK    1  A    between atoms: C_1  and  C_2
REMARK    2  A    between atoms: C_2  and  C_3
REMARK    3  A    between atoms: C_2  and  C_5
REMARK    4  A    between atoms: C_2  and  N_7
REMARK    5  A    between atoms: C_3  and  O_4
REMARK    6  A    between atoms: C_5  and  O_6
REMARK    7  A    between atoms: N_7  and  C_8
REMARK    8  A    between atoms: C_8  and  C_9
REMARK                            x       y       z     vdW  Elec       q    Type
REMARK                         _______ _______ _______ _____ _____    ______ ____
ROOT
ATOM      1  C   UNL     1       5.638   4.643  15.888  0.00  0.00    +0.000 A 
ATOM      2  C   UNL     1       6.830   5.393  15.934  0.00  0.00    +0.000 A 
ATOM      3  C   UNL     1       7.209   6.071  17.093  0.00  0.00    +0.000 A 
ATOM      4  C   UNL     1       6.407   6.023  18.231  0.00  0.00    +0.000 A 
ATOM      5  C   UNL     1       5.216   5.283  18.226  0.00  0.00    +0.000 A 
ATOM      6  C   UNL     1       4.414   5.247  19.380  0.00  0.00    +0.000 A 
ATOM      7  C   UNL     1       3.214   4.523  19.387  0.00  0.00    +0.000 A 
ATOM      8  C   UNL     1       2.390   4.500  20.524  0.00  0.00    +0.000 A 
ATOM      9  C   UNL     1       1.188   3.782  20.506  0.00  0.00    +0.000 A 
ATOM     10  C   UNL     1       0.805   3.080  19.361  0.00  0.00    +0.000 A 
ATOM     11  C   UNL     1       1.622   3.086  18.230  0.00  0.00    +0.000 A 
ATOM     12  C   UNL     1       2.825   3.808  18.236  0.00  0.00    +0.000 A 
ATOM     13  C   UNL     1       3.636   3.825  17.101  0.00  0.00    +0.000 A 
ATOM     14  C   UNL     1       4.824   4.578  17.057  0.00  0.00    +0.000 A 
ENDROOT
BRANCH   1  15
ATOM     15  C   UNL     1       5.286   3.929  14.588  0.00  0.00    +0.000 C 
BRANCH  15  16
ATOM     16  N   UNL     1       6.495   3.511  13.840  0.00  0.00    +0.000 NA
ATOM     17  H   UNL     1       7.343   4.032  14.144  0.00  0.00    +0.000 HD
BRANCH  16  19
ATOM     18  C   UNL     1       4.902   3.673  11.969  0.00  0.00    +0.000 C 
ATOM     19  C   UNL     1       6.396   3.542  12.354  0.00  0.00    +0.000 C 
BRANCH  19  20
ATOM     20  C   UNL     1       6.950   2.251  11.680  0.00  0.00    +0.000 C 
BRANCH  20  21
ATOM     21  O   UNL     1       5.967   1.257  11.562  0.00  0.00    +0.000 OA
ATOM     22  H   UNL     1       5.524   1.393  10.690  0.00  0.00    +0.000 HD
ENDBRANCH  20  21
ENDBRANCH  19  20
BRANCH  19  23
ATOM     23  C   UNL     1       7.160   4.768  11.796  0.00  0.00    +0.000 C 
BRANCH  23  24
ATOM     24  O   UNL     1       7.916   5.392  12.802  0.00  0.00    +0.000 OA
ATOM     25  H   UNL     1       7.530   5.111  13.672  0.00  0.00    +0.000 HD
ENDBRANCH  23  24
ENDBRANCH  19  23
ENDBRANCH  16  19
ENDBRANCH  15  16
ENDBRANCH   1  15
TORSDOF 7
ENDMDL
MODEL 9
REMARK VINA RESULT:      -7.4      3.543      6.739
REMARK  Name = 
REMARK  8 active torsions:
REMARK  status: ('A' for Active; 'I' for Inactive)
REMARK    1  A    between atoms: C_1  and  C_2
REMARK    2  A    between atoms: C_2  and  C_3
REMARK    3  A    between atoms: C_2  and  C_5
REMARK    4  A    between atoms: C_2  and  N_7
REMARK    5  A    between atoms: C_3  and  O_4
REMARK    6  A    between atoms: C_5  and  O_6
REMARK    7  A    between atoms: N_7  and  C_8
REMARK    8  A    between atoms: C_8  and  C_9
REMARK                            x       y       z     vdW  Elec       q    Type
REMARK                         _______ _______ _______ _____ _____    ______ ____
ROOT
ATOM      1  C   UNL     1       4.841   4.816  18.004  0.00  0.00    +0.000 A 
ATOM      2  C   UNL     1       5.520   5.327  19.128  0.00  0.00    +0.000 A 
ATOM      3  C   UNL     1       6.842   5.763  19.034  0.00  0.00    +0.000 A 
ATOM      4  C   UNL     1       7.521   5.694  17.819  0.00  0.00    +0.000 A 
ATOM      5  C   UNL     1       6.878   5.197  16.677  0.00  0.00    +0.000 A 
ATOM      6  C   UNL     1       7.576   5.130  15.459  0.00  0.00    +0.000 A 
ATOM      7  C   UNL     1       6.952   4.624  14.311  0.00  0.00    +0.000 A 
ATOM      8  C   UNL     1       7.646   4.525  13.094  0.00  0.00    +0.000 A 
ATOM      9  C   UNL     1       7.008   4.004  11.961  0.00  0.00    +0.000 A 
ATOM     10  C   UNL     1       5.678   3.583  12.034  0.00  0.00    +0.000 A 
ATOM     11  C   UNL     1       4.976   3.687  13.235  0.00  0.00    +0.000 A 
ATOM     12  C   UNL     1       5.608   4.203  14.377  0.00  0.00    +0.000 A 
ATOM     13  C   UNL     1       4.909   4.295  15.581  0.00  0.00    +0.000 A 
ATOM     14  C   UNL     1       5.528   4.761  16.756  0.00  0.00    +0.000 A 
ENDROOT
BRANCH   1  15
ATOM     15  C   UNL     1       3.398   4.358  18.181  0.00  0.00    +0.000 C 
BRANCH  15  16
ATOM     16  N   UNL     1       3.043   4.179  19.608  0.00  0.00    +0.000 NA
ATOM     17  H   UNL     1       3.738   4.626  20.243  0.00  0.00    +0.000 HD
BRANCH  16  19
ATOM     18  C   UNL     1       1.540   2.789  20.976  0.00  0.00    +0.000 C 
ATOM     19  C   UNL     1       2.786   2.783  20.056  0.00  0.00    +0.000 C 
BRANCH  19  20
ATOM     20  C   UNL     1       3.971   2.174  20.864  0.00  0.00    +0.000 C 
BRANCH  20  21
ATOM     21  O   UNL     1       5.079   1.901  20.048  0.00  0.00    +0.000 OA
ATOM     22  H   UNL     1       5.884   2.145  20.565  0.00  0.00    +0.000 HD
ENDBRANCH  20  21
ENDBRANCH  19  20
BRANCH  19  23
ATOM     23  C   UNL     1       2.494   1.878  18.834  0.00  0.00    +0.000 C 
BRANCH  23  24
ATOM     24  O   UNL     1       1.117   1.638  18.701  0.00  0.00    +0.000 OA
ATOM     25  H   UNL     1       0.856   1.939  17.792  0.00  0.00    +0.000 HD
ENDBRANCH  23  24
ENDBRANCH  19  23
ENDBRANCH  16  19
ENDBRANCH  15  16
ENDBRANCH   1  15
TORSDOF 7
ENDMDL
