MODEL 1
REMARK VINA RESULT:      -8.7      0.000      0.000
REMARK  Name = 
REMARK  12 active torsions:
REMARK  status: ('A' for Active; 'I' for Inactive)
REMARK    1  A    between atoms: C_1  and  C_2
REMARK    2  A    between atoms: C_4  and  C_5
REMARK    3  A    between atoms: C_12  and  C_13
REMARK    4  A    between atoms: C_13  and  C_14
REMARK    5  A    between atoms: C_14  and  O_15
REMARK    6  A    between atoms: O_15  and  C_16
REMARK    7  A    between atoms: C_19  and  C_20
REMARK    8  A    between atoms: C_20  and  C_21
REMARK    9  A    between atoms: C_21  and  O_22
REMARK   10  A    between atoms: C_21  and  C_29
REMARK   11  A    between atoms: O_22  and  C_23
REMARK   12  A    between atoms: C_29  and  O_31
REMARK                            x       y       z     vdW  Elec       q    Type
REMARK                         _______ _______ _______ _____ _____    ______ ____
ROOT
ATOM      1  C   UNL     1       2.646   7.138  18.769  0.00  0.00    +0.000 A 
ATOM      2  C   UNL     1       2.016   7.377  19.993  0.00  0.00    +0.000 A 
ATOM      3  C   UNL     1       1.353   8.575  20.242  0.00  0.00    +0.000 A 
ATOM      4  C   UNL     1       1.323   9.587  19.282  0.00  0.00    +0.000 A 
ATOM      5  C   UNL     1       1.950   9.356  18.050  0.00  0.00    +0.000 A 
ATOM      6  C   UNL     1       2.605   8.135  17.793  0.00  0.00    +0.000 A 
ENDROOT
BRANCH   1   7
ATOM      7  O   UNL     1       3.308   5.974  18.446  0.00  0.00    +0.000 OA
BRANCH   7   8
ATOM      8  C   UNL     1       4.016   5.389  19.544  0.00  0.00    +0.000 C 
BRANCH   8   9
ATOM      9  C   UNL     1       4.828   4.162  19.142  0.00  0.00    +0.000 C 
BRANCH   9  15
ATOM     10  C   UNL     1       7.759   5.859  19.026  0.00  0.00    +0.000 C 
ATOM     11  C   UNL     1       6.934   5.190  18.007  0.00  0.00    +0.000 A 
ATOM     12  O   UNL     1       7.405   5.207  16.726  0.00  0.00    +0.000 OA
ATOM     13  C   UNL     1       6.458   4.536  15.997  0.00  0.00    +0.000 A 
ATOM     14  N   UNL     1       5.451   4.089  16.723  0.00  0.00    +0.000 NA
ATOM     15  C   UNL     1       5.736   4.508  18.010  0.00  0.00    +0.000 A 
BRANCH  13  16
ATOM     16  C   UNL     1       6.687   4.447  14.556  0.00  0.00    +0.000 A 
ATOM     17  C   UNL     1       7.633   5.259  13.910  0.00  0.00    +0.000 A 
ATOM     18  C   UNL     1       7.809   5.193  12.524  0.00  0.00    +0.000 A 
ATOM     19  C   UNL     1       7.043   4.311  11.766  0.00  0.00    +0.000 A 
ATOM     20  C   UNL     1       6.111   3.485  12.392  0.00  0.00    +0.000 A 
ATOM     21  C   UNL     1       5.935   3.553  13.779  0.00  0.00    +0.000 A 
ENDBRANCH  13  16
ENDBRANCH   9  15
ENDBRANCH   8   9
ENDBRANCH   7   8
ENDBRANCH   1   7
BRANCH   4  22
ATOM     22  C   UNL     1       0.641  10.902  19.599  0.00  0.00    +0.000 C 
BRANCH  22  23
ATOM     23  C   UNL     1      -0.780  10.713  20.164  0.00  0.00    +0.000 C 
BRANCH  23  24
ATOM     24  C   UNL     1      -0.828  11.221  21.609  0.00  0.00    +0.000 C 
ATOM     25  O   UNL     1      -1.685  11.965  22.067  0.00  0.00    +0.000 OA
BRANCH  24  26
ATOM     26  O   UNL     1       0.184  10.748  22.381  0.00  0.00    +0.000 OA
ATOM     27  H   UNL     1       0.030   9.854  22.738  0.00  0.00    +0.000 HD
ENDBRANCH  24  26
ENDBRANCH  23  24
BRANCH  23  28
ATOM     28  O   UNL     1      -1.751  11.490  19.459  0.00  0.00    +0.000 OA
BRANCH  28  29
ATOM     29  C   UNL     1      -2.272  11.034  18.282  0.00  0.00    +0.000 A 
ATOM     30  C   UNL     1      -1.707  10.090  17.427  0.00  0.00    +0.000 A 
ATOM     31  C   UNL     1      -2.352   9.747  16.231  0.00  0.00    +0.000 A 
ATOM     32  C   UNL     1      -3.566  10.342  15.885  0.00  0.00    +0.000 A 
ATOM     33  C   UNL     1      -4.144  11.272  16.746  0.00  0.00    +0.000 A 
ATOM     34  C   UNL     1      -3.500  11.612  17.937  0.00  0.00    +0.000 A 
ENDBRANCH  28  29
ENDBRANCH  23  28
ENDBRANCH  22  23
ENDBRANCH   4  22
TORSDOF 11
ENDMDL
MODEL 2
REMARK VINA RESULT:      -8.3      2.133      3.296
REMARK  Name = 
REMARK  12 active torsions:
REMARK  status: ('A' for Active; 'I' for Inactive)
REMARK    1  A    between atoms: C_1  and  C_2
REMARK    2  A    between atoms: C_4  and  C_5
REMARK    3  A    between atoms: C_12  and  C_13
REMARK    4  A    between atoms: C_13  and  C_14
REMARK    5  A    between atoms: C_14  and  O_15
REMARK    6  A    between atoms: O_15  and  C_16
REMARK    7  A    between atoms: C_19  and  C_20
REMARK    8  A    between atoms: C_20  and  C_21
REMARK    9  A    between atoms: C_21  and  O_22
REMARK   10  A    between atoms: C_21  and  C_29
REMARK   11  A    between atoms: O_22  and  C_23
REMARK   12  A    between atoms: C_29  and  O_31
REMARK                            x       y       z     vdW  Elec       q    Type
REMARK                         _______ _______ _______ _____ _____    ______ ____
ROOT
ATOM      1  C   UNL     1       2.597   7.288  18.696  0.00  0.00    +0.000 A 
ATOM      2  C   UNL     1       2.112   7.396  20.002  0.00  0.00    +0.000 A 
ATOM      3  C   UNL     1       1.281   8.448  20.379  0.00  0.00    +0.000 A 
ATOM      4  C   UNL     1       0.932   9.443  19.466  0.00  0.00    +0.000 A 
ATOM      5  C   UNL     1       1.413   9.342  18.152  0.00  0.00    +0.000 A 
ATOM      6  C   UNL     1       2.238   8.267  17.769  0.00  0.00    +0.000 A 
ENDROOT
BRANCH   1   7
ATOM      7  O   UNL     1       3.409   6.270  18.248  0.00  0.00    +0.000 OA
BRANCH   7   8
ATOM      8  C   UNL     1       3.138   5.003  18.859  0.00  0.00    +0.000 C 
BRANCH   8   9
ATOM      9  C   UNL     1       4.391   4.154  19.048  0.00  0.00    +0.000 C 
BRANCH   9  15
ATOM     10  C   UNL     1       7.392   5.724  19.144  0.00  0.00    +0.000 C 
ATOM     11  C   UNL     1       6.607   5.104  18.065  0.00  0.00    +0.000 A 
ATOM     12  O   UNL     1       7.159   5.116  16.817  0.00  0.00    +0.000 OA
ATOM     13  C   UNL     1       6.234   4.496  16.019  0.00  0.00    +0.000 A 
ATOM     14  N   UNL     1       5.164   4.084  16.673  0.00  0.00    +0.000 NA
ATOM     15  C   UNL     1       5.383   4.475  17.981  0.00  0.00    +0.000 A 
BRANCH  13  16
ATOM     16  C   UNL     1       6.550   4.415  14.594  0.00  0.00    +0.000 A 
ATOM     17  C   UNL     1       7.541   5.224  14.014  0.00  0.00    +0.000 A 
ATOM     18  C   UNL     1       7.802   5.166  12.641  0.00  0.00    +0.000 A 
ATOM     19  C   UNL     1       7.078   4.296  11.831  0.00  0.00    +0.000 A 
ATOM     20  C   UNL     1       6.103   3.473  12.392  0.00  0.00    +0.000 A 
ATOM     21  C   UNL     1       5.842   3.532  13.766  0.00  0.00    +0.000 A 
ENDBRANCH  13  16
ENDBRANCH   9  15
ENDBRANCH   8   9
ENDBRANCH   7   8
ENDBRANCH   1   7
BRANCH   4  22
ATOM     22  C   UNL     1       0.072  10.606  19.915  0.00  0.00    +0.000 C 
BRANCH  22  23
ATOM     23  C   UNL     1       0.119  11.793  18.934  0.00  0.00    +0.000 C 
BRANCH  23  24
ATOM     24  C   UNL     1      -1.273  12.017  18.334  0.00  0.00    +0.000 C 
ATOM     25  O   UNL     1      -2.330  11.718  18.873  0.00  0.00    +0.000 OA
BRANCH  24  26
ATOM     26  O   UNL     1      -1.246  12.616  17.115  0.00  0.00    +0.000 OA
ATOM     27  H   UNL     1      -0.537  12.294  16.528  0.00  0.00    +0.000 HD
ENDBRANCH  24  26
ENDBRANCH  23  24
BRANCH  23  28
ATOM     28  O   UNL     1       0.450  13.022  19.586  0.00  0.00    +0.000 OA
BRANCH  28  29
ATOM     29  C   UNL     1       1.360  13.872  19.026  0.00  0.00    +0.000 A 
ATOM     30  C   UNL     1       2.599  13.534  18.485  0.00  0.00    +0.000 A 
ATOM     31  C   UNL     1       3.441  14.531  17.974  0.00  0.00    +0.000 A 
ATOM     32  C   UNL     1       3.047  15.871  17.997  0.00  0.00    +0.000 A 
ATOM     33  C   UNL     1       1.802  16.210  18.519  0.00  0.00    +0.000 A 
ATOM     34  C   UNL     1       0.965  15.216  19.028  0.00  0.00    +0.000 A 
ENDBRANCH  28  29
ENDBRANCH  23  28
ENDBRANCH  22  23
ENDBRANCH   4  22
TORSDOF 11
ENDMDL
MODEL 3
REMARK VINA RESULT:      -8.2      3.002     10.547
REMARK  Name = 
REMARK  12 active torsions:
REMARK  status: ('A' for Active; 'I' for Inactive)
REMARK    1  A    between atoms: C_1  and  C_2
REMARK    2  A    between atoms: C_4  and  C_5
REMARK    3  A    between atoms: C_12  and  C_13
REMARK    4  A    between atoms: C_13  and  C_14
REMARK    5  A    between atoms: C_14  and  O_15
REMARK    6  A    between atoms: O_15  and  C_16
REMARK    7  A    between atoms: C_19  and  C_20
REMARK    8  A    between atoms: C_20  and  C_21
REMARK    9  A    between atoms: C_21  and  O_22
REMARK   10  A    between atoms: C_21  and  C_29
REMARK   11  A    between atoms: O_22  and  C_23
REMARK   12  A    between atoms: C_29  and  O_31
REMARK                            x       y       z     vdW  Elec       q    Type
REMARK                         _______ _______ _______ _____ _____    ______ ____
ROOT
ATOM      1  C   UNL     1       1.631   8.656  19.021  0.00  0.00    +0.000 A 
ATOM      2  C   UNL     1       2.353   8.635  17.825  0.00  0.00    +0.000 A 
ATOM      3  C   UNL     1       3.269   7.622  17.553  0.00  0.00    +0.000 A 
ATOM      4  C   UNL     1       3.513   6.613  18.484  0.00  0.00    +0.000 A 
ATOM      5  C   UNL     1       2.792   6.625  19.686  0.00  0.00    +0.000 A 
ATOM      6  C   UNL     1       1.852   7.640  19.951  0.00  0.00    +0.000 A 
ENDROOT
BRANCH   1   7
ATOM      7  O   UNL     1       0.699   9.615  19.352  0.00  0.00    +0.000 OA
BRANCH   7   8
ATOM      8  C   UNL     1       1.054  10.936  18.928  0.00  0.00    +0.000 C 
BRANCH   8   9
ATOM      9  C   UNL     1       0.762  11.998  19.983  0.00  0.00    +0.000 C 
BRANCH   9  15
ATOM     10  C   UNL     1      -1.066  12.359  22.813  0.00  0.00    +0.000 C 
ATOM     11  C   UNL     1      -1.416  12.251  21.388  0.00  0.00    +0.000 A 
ATOM     12  O   UNL     1      -2.742  12.321  21.072  0.00  0.00    +0.000 OA
ATOM     13  C   UNL     1      -2.784  12.185  19.710  0.00  0.00    +0.000 A 
ATOM     14  N   UNL     1      -1.594  12.057  19.153  0.00  0.00    +0.000 NA
ATOM     15  C   UNL     1      -0.709  12.086  20.216  0.00  0.00    +0.000 A 
BRANCH  13  16
ATOM     16  C   UNL     1      -4.111  12.172  19.097  0.00  0.00    +0.000 A 
ATOM     17  C   UNL     1      -4.340  11.570  17.849  0.00  0.00    +0.000 A 
ATOM     18  C   UNL     1      -5.606  11.604  17.256  0.00  0.00    +0.000 A 
ATOM     19  C   UNL     1      -6.661  12.239  17.904  0.00  0.00    +0.000 A 
ATOM     20  C   UNL     1      -6.458  12.827  19.151  0.00  0.00    +0.000 A 
ATOM     21  C   UNL     1      -5.191  12.793  19.744  0.00  0.00    +0.000 A 
ENDBRANCH  13  16
ENDBRANCH   9  15
ENDBRANCH   8   9
ENDBRANCH   7   8
ENDBRANCH   1   7
BRANCH   4  22
ATOM     22  C   UNL     1       4.555   5.554  18.187  0.00  0.00    +0.000 C 
BRANCH  22  23
ATOM     23  C   UNL     1       4.053   4.491  17.190  0.00  0.00    +0.000 C 
BRANCH  23  24
ATOM     24  C   UNL     1       5.133   4.228  16.135  0.00  0.00    +0.000 C 
ATOM     25  O   UNL     1       5.060   4.547  14.956  0.00  0.00    +0.000 OA
BRANCH  24  26
ATOM     26  O   UNL     1       6.233   3.604  16.633  0.00  0.00    +0.000 OA
ATOM     27  H   UNL     1       6.723   3.076  15.976  0.00  0.00    +0.000 HD
ENDBRANCH  24  26
ENDBRANCH  23  24
BRANCH  23  28
ATOM     28  O   UNL     1       3.824   3.226  17.817  0.00  0.00    +0.000 OA
BRANCH  28  29
ATOM     29  C   UNL     1       2.918   3.118  18.833  0.00  0.00    +0.000 A 
ATOM     30  C   UNL     1       1.538   3.294  18.746  0.00  0.00    +0.000 A 
ATOM     31  C   UNL     1       0.740   3.181  19.892  0.00  0.00    +0.000 A 
ATOM     32  C   UNL     1       1.315   2.888  21.130  0.00  0.00    +0.000 A 
ATOM     33  C   UNL     1       2.691   2.694  21.218  0.00  0.00    +0.000 A 
ATOM     34  C   UNL     1       3.485   2.807  20.075  0.00  0.00    +0.000 A 
ENDBRANCH  28  29
ENDBRANCH  23  28
ENDBRANCH  22  23
ENDBRANCH   4  22
TORSDOF 11
ENDMDL
MODEL 4
REMARK VINA RESULT:      -8.1      2.102      9.960
REMARK  Name = 
REMARK  12 active torsions:
REMARK  status: ('A' for Active; 'I' for Inactive)
REMARK    1  A    between atoms: C_1  and  C_2
REMARK    2  A    between atoms: C_4  and  C_5
REMARK    3  A    between atoms: C_12  and  C_13
REMARK    4  A    between atoms: C_13  and  C_14
REMARK    5  A    between atoms: C_14  and  O_15
REMARK    6  A    between atoms: O_15  and  C_16
REMARK    7  A    between atoms: C_19  and  C_20
REMARK    8  A    between atoms: C_20  and  C_21
REMARK    9  A    between atoms: C_21  and  O_22
REMARK   10  A    between atoms: C_21  and  C_29
REMARK   11  A    between atoms: O_22  and  C_23
REMARK   12  A    between atoms: C_29  and  O_31
REMARK                            x       y       z     vdW  Elec       q    Type
REMARK                         _______ _______ _______ _____ _____    ______ ____
ROOT
ATOM      1  C   UNL     1       2.453   7.348  19.292  0.00  0.00    +0.000 A 
ATOM      2  C   UNL     1       2.682   6.152  19.977  0.00  0.00    +0.000 A 
ATOM      3  C   UNL     1       3.482   5.151  19.433  0.00  0.00    +0.000 A 
ATOM      4  C   UNL     1       4.058   5.304  18.172  0.00  0.00    +0.000 A 
ATOM      5  C   UNL     1       3.836   6.503  17.478  0.00  0.00    +0.000 A 
ATOM      6  C   UNL     1       3.040   7.521  18.038  0.00  0.00    +0.000 A 
ENDROOT
BRANCH   1   7
ATOM      7  O   UNL     1       1.686   8.387  19.772  0.00  0.00    +0.000 OA
BRANCH   7   8
ATOM      8  C   UNL     1       1.326   8.250  21.152  0.00  0.00    +0.000 C 
BRANCH   8   9
ATOM      9  C   UNL     1       0.729   9.524  21.740  0.00  0.00    +0.000 C 
BRANCH   9  15
ATOM     10  C   UNL     1       1.234  12.699  20.671  0.00  0.00    +0.000 C 
ATOM     11  C   UNL     1       0.335  11.617  20.242  0.00  0.00    +0.000 A 
ATOM     12  O   UNL     1      -0.484  11.880  19.181  0.00  0.00    +0.000 OA
ATOM     13  C   UNL     1      -1.206  10.730  19.004  0.00  0.00    +0.000 A 
ATOM     14  N   UNL     1      -0.890   9.770  19.852  0.00  0.00    +0.000 NA
ATOM     15  C   UNL     1       0.087  10.326  20.658  0.00  0.00    +0.000 A 
BRANCH  13  16
ATOM     16  C   UNL     1      -2.215  10.751  17.946  0.00  0.00    +0.000 A 
ATOM     17  C   UNL     1      -2.051  10.019  16.759  0.00  0.00    +0.000 A 
ATOM     18  C   UNL     1      -3.005  10.084  15.738  0.00  0.00    +0.000 A 
ATOM     19  C   UNL     1      -4.137  10.879  15.892  0.00  0.00    +0.000 A 
ATOM     20  C   UNL     1      -4.325  11.599  17.071  0.00  0.00    +0.000 A 
ATOM     21  C   UNL     1      -3.370  11.534  18.091  0.00  0.00    +0.000 A 
ENDBRANCH  13  16
ENDBRANCH   9  15
ENDBRANCH   8   9
ENDBRANCH   7   8
ENDBRANCH   1   7
BRANCH   4  22
ATOM     22  C   UNL     1       4.879   4.178  17.580  0.00  0.00    +0.000 C 
BRANCH  22  23
ATOM     23  C   UNL     1       5.987   4.685  16.635  0.00  0.00    +0.000 C 
BRANCH  23  24
ATOM     24  C   UNL     1       7.225   5.062  17.454  0.00  0.00    +0.000 C 
ATOM     25  O   UNL     1       7.431   6.158  17.958  0.00  0.00    +0.000 OA
BRANCH  24  26
ATOM     26  O   UNL     1       8.107   4.039  17.601  0.00  0.00    +0.000 OA
ATOM     27  H   UNL     1       7.749   3.165  17.360  0.00  0.00    +0.000 HD
ENDBRANCH  24  26
ENDBRANCH  23  24
BRANCH  23  28
ATOM     28  O   UNL     1       6.430   3.672  15.728  0.00  0.00    +0.000 OA
BRANCH  28  29
ATOM     29  C   UNL     1       6.616   3.966  14.408  0.00  0.00    +0.000 A 
ATOM     30  C   UNL     1       6.001   3.351  13.318  0.00  0.00    +0.000 A 
ATOM     31  C   UNL     1       6.323   3.745  12.013  0.00  0.00    +0.000 A 
ATOM     32  C   UNL     1       7.257   4.759  11.788  0.00  0.00    +0.000 A 
ATOM     33  C   UNL     1       7.859   5.389  12.874  0.00  0.00    +0.000 A 
ATOM     34  C   UNL     1       7.537   4.995  14.174  0.00  0.00    +0.000 A 
ENDBRANCH  28  29
ENDBRANCH  23  28
ENDBRANCH  22  23
ENDBRANCH   4  22
TORSDOF 11
ENDMDL
MODEL 5
REMARK VINA RESULT:      -8.1      2.148      3.505
REMARK  Name = 
REMARK  12 active torsions:
REMARK  status: ('A' for Active; 'I' for Inactive)
REMARK    1  A    between atoms: C_1  and  C_2
REMARK    2  A    between atoms: C_4  and  C_5
REMARK    3  A    between atoms: C_12  and  C_13
REMARK    4  A    between atoms: C_13  and  C_14
REMARK    5  A    between atoms: C_14  and  O_15
REMARK    6  A    between atoms: O_15  and  C_16
REMARK    7  A    between atoms: C_19  and  C_20
REMARK    8  A    between atoms: C_20  and  C_21
REMARK    9  A    between atoms: C_21  and  O_22
REMARK   10  A    between atoms: C_21  and  C_29
REMARK   11  A    between atoms: O_22  and  C_23
REMARK   12  A    between atoms: C_29  and  O_31
REMARK                            x       y       z     vdW  Elec       q    Type
REMARK                         _______ _______ _______ _____ _____    ______ ____
ROOT
ATOM      1  C   UNL     1       2.329   7.784  18.675  0.00  0.00    +0.000 A 
ATOM      2  C   UNL     1       2.073   7.562  20.030  0.00  0.00    +0.000 A 
ATOM      3  C   UNL     1       1.223   8.397  20.751  0.00  0.00    +0.000 A 
ATOM      4  C   UNL     1       0.624   9.501  20.143  0.00  0.00    +0.000 A 
ATOM      5  C   UNL     1       0.874   9.730  18.782  0.00  0.00    +0.000 A 
ATOM      6  C   UNL     1       1.719   8.874  18.051  0.00  0.00    +0.000 A 
ENDROOT
BRANCH   1   7
ATOM      7  O   UNL     1       3.145   6.994  17.895  0.00  0.00    +0.000 OA
BRANCH   7   8
ATOM      8  C   UNL     1       3.425   5.712  18.468  0.00  0.00    +0.000 C 
BRANCH   8   9
ATOM      9  C   UNL     1       4.885   5.550  18.878  0.00  0.00    +0.000 C 
BRANCH   9  15
ATOM     10  C   UNL     1       7.886   7.009  18.290  0.00  0.00    +0.000 C 
ATOM     11  C   UNL     1       6.984   6.181  17.473  0.00  0.00    +0.000 A 
ATOM     12  O   UNL     1       7.396   5.889  16.205  0.00  0.00    +0.000 OA
ATOM     13  C   UNL     1       6.386   5.131  15.675  0.00  0.00    +0.000 A 
ATOM     14  N   UNL     1       5.392   4.912  16.516  0.00  0.00    +0.000 NA
ATOM     15  C   UNL     1       5.755   5.586  17.667  0.00  0.00    +0.000 A 
BRANCH  13  16
ATOM     16  C   UNL     1       6.544   4.715  14.283  0.00  0.00    +0.000 A 
ATOM     17  C   UNL     1       5.723   3.729  13.712  0.00  0.00    +0.000 A 
ATOM     18  C   UNL     1       5.916   3.311  12.391  0.00  0.00    +0.000 A 
ATOM     19  C   UNL     1       6.930   3.875  11.623  0.00  0.00    +0.000 A 
ATOM     20  C   UNL     1       7.743   4.868  12.167  0.00  0.00    +0.000 A 
ATOM     21  C   UNL     1       7.551   5.285  13.489  0.00  0.00    +0.000 A 
ENDBRANCH  13  16
ENDBRANCH   9  15
ENDBRANCH   8   9
ENDBRANCH   7   8
ENDBRANCH   1   7
BRANCH   4  22
ATOM     22  C   UNL     1      -0.253  10.425  20.962  0.00  0.00    +0.000 C 
BRANCH  22  23
ATOM     23  C   UNL     1       0.136  11.908  20.803  0.00  0.00    +0.000 C 
BRANCH  23  24
ATOM     24  C   UNL     1      -0.716  12.765  21.744  0.00  0.00    +0.000 C 
ATOM     25  O   UNL     1      -1.436  13.692  21.398  0.00  0.00    +0.000 OA
BRANCH  24  26
ATOM     26  O   UNL     1      -0.624  12.389  23.047  0.00  0.00    +0.000 OA
ATOM     27  H   UNL     1      -1.439  11.993  23.407  0.00  0.00    +0.000 HD
ENDBRANCH  24  26
ENDBRANCH  23  24
BRANCH  23  28
ATOM     28  O   UNL     1       1.490  12.157  21.189  0.00  0.00    +0.000 OA
BRANCH  28  29
ATOM     29  C   UNL     1       2.236  13.082  20.517  0.00  0.00    +0.000 A 
ATOM     30  C   UNL     1       3.034  14.080  21.075  0.00  0.00    +0.000 A 
ATOM     31  C   UNL     1       3.718  14.980  20.247  0.00  0.00    +0.000 A 
ATOM     32  C   UNL     1       3.612  14.887  18.858  0.00  0.00    +0.000 A 
ATOM     33  C   UNL     1       2.831  13.880  18.297  0.00  0.00    +0.000 A 
ATOM     34  C   UNL     1       2.150  12.984  19.123  0.00  0.00    +0.000 A 
ENDBRANCH  28  29
ENDBRANCH  23  28
ENDBRANCH  22  23
ENDBRANCH   4  22
TORSDOF 11
ENDMDL
MODEL 6
REMARK VINA RESULT:      -8.1      3.296     11.109
REMARK  Name = 
REMARK  12 active torsions:
REMARK  status: ('A' for Active; 'I' for Inactive)
REMARK    1  A    between atoms: C_1  and  C_2
REMARK    2  A    between atoms: C_4  and  C_5
REMARK    3  A    between atoms: C_12  and  C_13
REMARK    4  A    between atoms: C_13  and  C_14
REMARK    5  A    between atoms: C_14  and  O_15
REMARK    6  A    between atoms: O_15  and  C_16
REMARK    7  A    between atoms: C_19  and  C_20
REMARK    8  A    between atoms: C_20  and  C_21
REMARK    9  A    between atoms: C_21  and  O_22
REMARK   10  A    between atoms: C_21  and  C_29
REMARK   11  A    between atoms: O_22  and  C_23
REMARK   12  A    between atoms: C_29  and  O_31
REMARK                            x       y       z     vdW  Elec       q    Type
REMARK                         _______ _______ _______ _____ _____    ______ ____
ROOT
ATOM      1  C   UNL     1       1.518   8.525  19.361  0.00  0.00    +0.000 A 
ATOM      2  C   UNL     1       2.166   8.609  18.126  0.00  0.00    +0.000 A 
ATOM      3  C   UNL     1       3.117   7.666  17.745  0.00  0.00    +0.000 A 
ATOM      4  C   UNL     1       3.470   6.623  18.601  0.00  0.00    +0.000 A 
ATOM      5  C   UNL     1       2.823   6.530  19.841  0.00  0.00    +0.000 A 
ATOM      6  C   UNL     1       1.848   7.474  20.217  0.00  0.00    +0.000 A 
ENDROOT
BRANCH   1   7
ATOM      7  O   UNL     1       0.558   9.411  19.800  0.00  0.00    +0.000 OA
BRANCH   7   8
ATOM      8  C   UNL     1       0.796  10.765  19.399  0.00  0.00    +0.000 C 
BRANCH   8   9
ATOM      9  C   UNL     1      -0.213  11.266  18.370  0.00  0.00    +0.000 C 
BRANCH   9  15
ATOM     10  C   UNL     1      -3.454  11.382  17.391  0.00  0.00    +0.000 C 
ATOM     11  C   UNL     1      -2.757  11.752  18.633  0.00  0.00    +0.000 A 
ATOM     12  O   UNL     1      -3.528  12.235  19.651  0.00  0.00    +0.000 OA
ATOM     13  C   UNL     1      -2.643  12.504  20.661  0.00  0.00    +0.000 A 
ATOM     14  N   UNL     1      -1.392  12.209  20.361  0.00  0.00    +0.000 NA
ATOM     15  C   UNL     1      -1.448  11.737  19.062  0.00  0.00    +0.000 A 
BRANCH  13  16
ATOM     16  C   UNL     1      -3.201  13.091  21.878  0.00  0.00    +0.000 A 
ATOM     17  C   UNL     1      -3.228  12.384  23.091  0.00  0.00    +0.000 A 
ATOM     18  C   UNL     1      -3.805  12.942  24.236  0.00  0.00    +0.000 A 
ATOM     19  C   UNL     1      -4.361  14.217  24.183  0.00  0.00    +0.000 A 
ATOM     20  C   UNL     1      -4.328  14.942  22.993  0.00  0.00    +0.000 A 
ATOM     21  C   UNL     1      -3.751  14.382  21.848  0.00  0.00    +0.000 A 
ENDBRANCH  13  16
ENDBRANCH   9  15
ENDBRANCH   8   9
ENDBRANCH   7   8
ENDBRANCH   1   7
BRANCH   4  22
ATOM     22  C   UNL     1       4.547   5.642  18.185  0.00  0.00    +0.000 C 
BRANCH  22  23
ATOM     23  C   UNL     1       4.034   4.587  17.185  0.00  0.00    +0.000 C 
BRANCH  23  24
ATOM     24  C   UNL     1       5.084   4.364  16.092  0.00  0.00    +0.000 C 
ATOM     25  O   UNL     1       5.308   5.127  15.162  0.00  0.00    +0.000 OA
BRANCH  24  26
ATOM     26  O   UNL     1       5.792   3.215  16.250  0.00  0.00    +0.000 OA
ATOM     27  H   UNL     1       6.663   3.220  15.811  0.00  0.00    +0.000 HD
ENDBRANCH  24  26
ENDBRANCH  23  24
BRANCH  23  28
ATOM     28  O   UNL     1       3.850   3.307  17.796  0.00  0.00    +0.000 OA
BRANCH  28  29
ATOM     29  C   UNL     1       2.935   3.150  18.798  0.00  0.00    +0.000 A 
ATOM     30  C   UNL     1       1.549   3.250  18.688  0.00  0.00    +0.000 A 
ATOM     31  C   UNL     1       0.740   3.095  19.822  0.00  0.00    +0.000 A 
ATOM     32  C   UNL     1       1.310   2.835  21.070  0.00  0.00    +0.000 A 
ATOM     33  C   UNL     1       2.693   2.716  21.179  0.00  0.00    +0.000 A 
ATOM     34  C   UNL     1       3.498   2.871  20.049  0.00  0.00    +0.000 A 
ENDBRANCH  28  29
ENDBRANCH  23  28
ENDBRANCH  22  23
ENDBRANCH   4  22
TORSDOF 11
ENDMDL
MODEL 7
REMARK VINA RESULT:      -8.1      0.769      1.233
REMARK  Name = 
REMARK  12 active torsions:
REMARK  status: ('A' for Active; 'I' for Inactive)
REMARK    1  A    between atoms: C_1  and  C_2
REMARK    2  A    between atoms: C_4  and  C_5
REMARK    3  A    between atoms: C_12  and  C_13
REMARK    4  A    between atoms: C_13  and  C_14
REMARK    5  A    between atoms: C_14  and  O_15
REMARK    6  A    between atoms: O_15  and  C_16
REMARK    7  A    between atoms: C_19  and  C_20
REMARK    8  A    between atoms: C_20  and  C_21
REMARK    9  A    between atoms: C_21  and  O_22
REMARK   10  A    between atoms: C_21  and  C_29
REMARK   11  A    between atoms: O_22  and  C_23
REMARK   12  A    between atoms: C_29  and  O_31
REMARK                            x       y       z     vdW  Elec       q    Type
REMARK                         _______ _______ _______ _____ _____    ______ ____
ROOT
ATOM      1  C   UNL     1       2.775   7.393  18.431  0.00  0.00    +0.000 A 
ATOM      2  C   UNL     1       2.172   7.481  19.688  0.00  0.00    +0.000 A 
ATOM      3  C   UNL     1       1.450   8.610  20.066  0.00  0.00    +0.000 A 
ATOM      4  C   UNL     1       1.332   9.702  19.205  0.00  0.00    +0.000 A 
ATOM      5  C   UNL     1       1.933   9.622  17.940  0.00  0.00    +0.000 A 
ATOM      6  C   UNL     1       2.647   8.471  17.554  0.00  0.00    +0.000 A 
ENDROOT
BRANCH   1   7
ATOM      7  O   UNL     1       3.491   6.305  17.984  0.00  0.00    +0.000 OA
BRANCH   7   8
ATOM      8  C   UNL     1       3.866   5.394  19.023  0.00  0.00    +0.000 C 
BRANCH   8   9
ATOM      9  C   UNL     1       5.376   5.305  19.220  0.00  0.00    +0.000 C 
BRANCH   9  15
ATOM     10  C   UNL     1       7.918   7.330  18.261  0.00  0.00    +0.000 C 
ATOM     11  C   UNL     1       7.113   6.314  17.564  0.00  0.00    +0.000 A 
ATOM     12  O   UNL     1       7.419   6.078  16.254  0.00  0.00    +0.000 OA
ATOM     13  C   UNL     1       6.530   5.115  15.856  0.00  0.00    +0.000 A 
ATOM     14  N   UNL     1       5.712   4.721  16.814  0.00  0.00    +0.000 NA
ATOM     15  C   UNL     1       6.066   5.486  17.910  0.00  0.00    +0.000 A 
BRANCH  13  16
ATOM     16  C   UNL     1       6.599   4.703  14.455  0.00  0.00    +0.000 A 
ATOM     17  C   UNL     1       5.702   3.766  13.918  0.00  0.00    +0.000 A 
ATOM     18  C   UNL     1       5.809   3.349  12.587  0.00  0.00    +0.000 A 
ATOM     19  C   UNL     1       6.813   3.866  11.775  0.00  0.00    +0.000 A 
ATOM     20  C   UNL     1       7.703   4.811  12.285  0.00  0.00    +0.000 A 
ATOM     21  C   UNL     1       7.595   5.227  13.617  0.00  0.00    +0.000 A 
ENDBRANCH  13  16
ENDBRANCH   9  15
ENDBRANCH   8   9
ENDBRANCH   7   8
ENDBRANCH   1   7
BRANCH   4  22
ATOM     22  C   UNL     1       0.588  10.939  19.660  0.00  0.00    +0.000 C 
BRANCH  22  23
ATOM     23  C   UNL     1      -0.763  10.609  20.324  0.00  0.00    +0.000 C 
BRANCH  23  24
ATOM     24  C   UNL     1      -0.753  11.096  21.777  0.00  0.00    +0.000 C 
ATOM     25  O   UNL     1      -1.746  11.380  22.433  0.00  0.00    +0.000 OA
BRANCH  24  26
ATOM     26  O   UNL     1       0.494  11.172  22.311  0.00  0.00    +0.000 OA
ATOM     27  H   UNL     1       1.132  11.669  21.766  0.00  0.00    +0.000 HD
ENDBRANCH  24  26
ENDBRANCH  23  24
BRANCH  23  28
ATOM     28  O   UNL     1      -1.853  11.297  19.704  0.00  0.00    +0.000 OA
BRANCH  28  29
ATOM     29  C   UNL     1      -2.215  10.996  18.423  0.00  0.00    +0.000 A 
ATOM     30  C   UNL     1      -2.117  11.827  17.308  0.00  0.00    +0.000 A 
ATOM     31  C   UNL     1      -2.564  11.383  16.056  0.00  0.00    +0.000 A 
ATOM     32  C   UNL     1      -3.108  10.105  15.911  0.00  0.00    +0.000 A 
ATOM     33  C   UNL     1      -3.191   9.265  17.018  0.00  0.00    +0.000 A 
ATOM     34  C   UNL     1      -2.745   9.709  18.264  0.00  0.00    +0.000 A 
ENDBRANCH  28  29
ENDBRANCH  23  28
ENDBRANCH  22  23
ENDBRANCH   4  22
TORSDOF 11
ENDMDL
MODEL 8
REMARK VINA RESULT:      -8.1      3.448     11.044
REMARK  Name = 
REMARK  12 active torsions:
REMARK  status: ('A' for Active; 'I' for Inactive)
REMARK    1  A    between atoms: C_1  and  C_2
REMARK    2  A    between atoms: C_4  and  C_5
REMARK    3  A    between atoms: C_12  and  C_13
REMARK    4  A    between atoms: C_13  and  C_14
REMARK    5  A    between atoms: C_14  and  O_15
REMARK    6  A    between atoms: O_15  and  C_16
REMARK    7  A    between atoms: C_19  and  C_20
REMARK    8  A    between atoms: C_20  and  C_21
REMARK    9  A    between atoms: C_21  and  O_22
REMARK   10  A    between atoms: C_21  and  C_29
REMARK   11  A    between atoms: O_22  and  C_23
REMARK   12  A    between atoms: C_29  and  O_31
REMARK                            x       y       z     vdW  Elec       q    Type
REMARK                         _______ _______ _______ _____ _____    ______ ____
ROOT
ATOM      1  C   UNL     1       1.584   8.538  18.988  0.00  0.00    +0.000 A 
ATOM      2  C   UNL     1       2.329   8.514  17.807  0.00  0.00    +0.000 A 
ATOM      3  C   UNL     1       3.283   7.526  17.575  0.00  0.00    +0.000 A 
ATOM      4  C   UNL     1       3.539   6.544  18.532  0.00  0.00    +0.000 A 
ATOM      5  C   UNL     1       2.794   6.559  19.720  0.00  0.00    +0.000 A 
ATOM      6  C   UNL     1       1.818   7.549  19.944  0.00  0.00    +0.000 A 
ENDROOT
BRANCH   1   7
ATOM      7  O   UNL     1       0.616   9.474  19.281  0.00  0.00    +0.000 OA
BRANCH   7   8
ATOM      8  C   UNL     1       1.140  10.707  19.787  0.00  0.00    +0.000 C 
BRANCH   8   9
ATOM      9  C   UNL     1       0.707  11.917  18.966  0.00  0.00    +0.000 C 
BRANCH   9  15
ATOM     10  C   UNL     1      -0.249  15.166  18.876  0.00  0.00    +0.000 C 
ATOM     11  C   UNL     1      -0.732  13.988  19.613  0.00  0.00    +0.000 A 
ATOM     12  O   UNL     1      -1.802  14.175  20.441  0.00  0.00    +0.000 OA
ATOM     13  C   UNL     1      -2.032  12.944  20.997  0.00  0.00    +0.000 A 
ATOM     14  N   UNL     1      -1.207  12.007  20.569  0.00  0.00    +0.000 NA
ATOM     15  C   UNL     1      -0.363  12.662  19.691  0.00  0.00    +0.000 A 
BRANCH  13  16
ATOM     16  C   UNL     1      -3.111  12.865  21.981  0.00  0.00    +0.000 A 
ATOM     17  C   UNL     1      -4.424  13.251  21.665  0.00  0.00    +0.000 A 
ATOM     18  C   UNL     1      -5.436  13.210  22.630  0.00  0.00    +0.000 A 
ATOM     19  C   UNL     1      -5.149  12.781  23.922  0.00  0.00    +0.000 A 
ATOM     20  C   UNL     1      -3.855  12.377  24.249  0.00  0.00    +0.000 A 
ATOM     21  C   UNL     1      -2.843  12.419  23.284  0.00  0.00    +0.000 A 
ENDBRANCH  13  16
ENDBRANCH   9  15
ENDBRANCH   8   9
ENDBRANCH   7   8
ENDBRANCH   1   7
BRANCH   4  22
ATOM     22  C   UNL     1       4.619   5.513  18.278  0.00  0.00    +0.000 C 
BRANCH  22  23
ATOM     23  C   UNL     1       4.189   4.443  17.255  0.00  0.00    +0.000 C 
BRANCH  23  24
ATOM     24  C   UNL     1       5.339   4.178  16.277  0.00  0.00    +0.000 C 
ATOM     25  O   UNL     1       5.237   4.150  15.059  0.00  0.00    +0.000 OA
BRANCH  24  26
ATOM     26  O   UNL     1       6.536   3.988  16.891  0.00  0.00    +0.000 OA
ATOM     27  H   UNL     1       7.015   3.192  16.594  0.00  0.00    +0.000 HD
ENDBRANCH  24  26
ENDBRANCH  23  24
BRANCH  23  28
ATOM     28  O   UNL     1       3.922   3.181  17.872  0.00  0.00    +0.000 OA
BRANCH  28  29
ATOM     29  C   UNL     1       2.975   3.083  18.851  0.00  0.00    +0.000 A 
ATOM     30  C   UNL     1       1.599   3.249  18.704  0.00  0.00    +0.000 A 
ATOM     31  C   UNL     1       0.754   3.149  19.818  0.00  0.00    +0.000 A 
ATOM     32  C   UNL     1       1.279   2.878  21.083  0.00  0.00    +0.000 A 
ATOM     33  C   UNL     1       2.652   2.693  21.231  0.00  0.00    +0.000 A 
ATOM     34  C   UNL     1       3.491   2.793  20.120  0.00  0.00    +0.000 A 
ENDBRANCH  28  29
ENDBRANCH  23  28
ENDBRANCH  22  23
ENDBRANCH   4  22
TORSDOF 11
ENDMDL
MODEL 9
REMARK VINA RESULT:      -8.0      3.203     11.020
REMARK  Name = 
REMARK  12 active torsions:
REMARK  status: ('A' for Active; 'I' for Inactive)
REMARK    1  A    between atoms: C_1  and  C_2
REMARK    2  A    between atoms: C_4  and  C_5
REMARK    3  A    between atoms: C_12  and  C_13
REMARK    4  A    between atoms: C_13  and  C_14
REMARK    5  A    between atoms: C_14  and  O_15
REMARK    6  A    between atoms: O_15  and  C_16
REMARK    7  A    between atoms: C_19  and  C_20
REMARK    8  A    between atoms: C_20  and  C_21
REMARK    9  A    between atoms: C_21  and  O_22
REMARK   10  A    between atoms: C_21  and  C_29
REMARK   11  A    between atoms: O_22  and  C_23
REMARK   12  A    between atoms: C_29  and  O_31
REMARK                            x       y       z     vdW  Elec       q    Type
REMARK                         _______ _______ _______ _____ _____    ______ ____
ROOT
ATOM      1  C   UNL     1       0.935   9.611  19.564  0.00  0.00    +0.000 A 
ATOM      2  C   UNL     1       1.309   8.575  20.423  0.00  0.00    +0.000 A 
ATOM      3  C   UNL     1       2.037   7.481  19.961  0.00  0.00    +0.000 A 
ATOM      4  C   UNL     1       2.389   7.376  18.616  0.00  0.00    +0.000 A 
ATOM      5  C   UNL     1       2.019   8.412  17.746  0.00  0.00    +0.000 A 
ATOM      6  C   UNL     1       1.299   9.526  18.220  0.00  0.00    +0.000 A 
ENDROOT
BRANCH   1   7
ATOM      7  O   UNL     1       0.229  10.728  19.951  0.00  0.00    +0.000 OA
BRANCH   7   8
ATOM      8  C   UNL     1       0.860  11.963  19.591  0.00  0.00    +0.000 C 
BRANCH   8   9
ATOM      9  C   UNL     1      -0.039  12.868  18.755  0.00  0.00    +0.000 C 
BRANCH   9  15
ATOM     10  C   UNL     1      -2.167  10.913  16.986  0.00  0.00    +0.000 C 
ATOM     11  C   UNL     1      -2.298  11.683  18.233  0.00  0.00    +0.000 A 
ATOM     12  O   UNL     1      -3.504  11.623  18.869  0.00  0.00    +0.000 OA
ATOM     13  C   UNL     1      -3.356  12.421  19.973  0.00  0.00    +0.000 A 
ATOM     14  N   UNL     1      -2.153  12.954  20.084  0.00  0.00    +0.000 NA
ATOM     15  C   UNL     1      -1.468  12.499  18.972  0.00  0.00    +0.000 A 
BRANCH  13  16
ATOM     16  C   UNL     1      -4.534  12.582  20.824  0.00  0.00    +0.000 A 
ATOM     17  C   UNL     1      -4.434  13.081  22.132  0.00  0.00    +0.000 A 
ATOM     18  C   UNL     1      -5.564  13.188  22.949  0.00  0.00    +0.000 A 
ATOM     19  C   UNL     1      -6.811  12.801  22.466  0.00  0.00    +0.000 A 
ATOM     20  C   UNL     1      -6.933  12.320  21.163  0.00  0.00    +0.000 A 
ATOM     21  C   UNL     1      -5.801  12.212  20.348  0.00  0.00    +0.000 A 
ENDBRANCH  13  16
ENDBRANCH   9  15
ENDBRANCH   8   9
ENDBRANCH   7   8
ENDBRANCH   1   7
BRANCH   4  22
ATOM     22  C   UNL     1       3.133   6.150  18.129  0.00  0.00    +0.000 C 
BRANCH  22  23
ATOM     23  C   UNL     1       2.894   4.916  19.022  0.00  0.00    +0.000 C 
BRANCH  23  24
ATOM     24  C   UNL     1       1.616   4.200  18.574  0.00  0.00    +0.000 C 
ATOM     25  O   UNL     1       1.236   4.091  17.416  0.00  0.00    +0.000 OA
BRANCH  24  26
ATOM     26  O   UNL     1       0.914   3.655  19.602  0.00  0.00    +0.000 OA
ATOM     27  H   UNL     1       0.913   4.195  20.415  0.00  0.00    +0.000 HD
ENDBRANCH  24  26
ENDBRANCH  23  24
BRANCH  23  28
ATOM     28  O   UNL     1       3.935   3.945  18.893  0.00  0.00    +0.000 OA
BRANCH  28  29
ATOM     29  C   UNL     1       4.993   4.178  18.061  0.00  0.00    +0.000 A 
ATOM     30  C   UNL     1       6.204   4.782  18.397  0.00  0.00    +0.000 A 
ATOM     31  C   UNL     1       7.186   4.983  17.419  0.00  0.00    +0.000 A 
ATOM     32  C   UNL     1       6.966   4.579  16.100  0.00  0.00    +0.000 A 
ATOM     33  C   UNL     1       5.766   3.958  15.765  0.00  0.00    +0.000 A 
ATOM     34  C   UNL     1       4.788   3.759  16.741  0.00  0.00    +0.000 A 
ENDBRANCH  28  29
ENDBRANCH  23  28
ENDBRANCH  22  23
ENDBRANCH   4  22
TORSDOF 11
ENDMDL
