MODEL 1
REMARK VINA RESULT:      -8.2      0.000      0.000
REMARK  Name = 
REMARK  7 active torsions:
REMARK  status: ('A' for Active; 'I' for Inactive)
REMARK    1  A    between atoms: C_1  and  N_2
REMARK    2  A    between atoms: N_2  and  C_3
REMARK    3  A    between atoms: C_3  and  C_4
REMARK    4  A    between atoms: C_4  and  C_5
REMARK    5  A    between atoms: C_5  and  C_6
REMARK    6  A    between atoms: C_5  and  N_17
REMARK    7  A    between atoms: C_20  and  C_21
REMARK                            x       y       z     vdW  Elec       q    Type
REMARK                         _______ _______ _______ _____ _____    ______ ____
ROOT
ATOM      1  C   UNL     1       6.195   6.017  16.412  0.00  0.00    +0.000 C 
ENDROOT
BRANCH   1   2
ATOM      2  C   UNL     1       4.938   5.462  17.076  0.00  0.00    +0.000 A 
ATOM      3  C   UNL     1       3.926   6.344  17.486  0.00  0.00    +0.000 A 
ATOM      4  C   UNL     1       2.718   5.863  17.996  0.00  0.00    +0.000 A 
ATOM      5  C   UNL     1       2.490   4.486  18.124  0.00  0.00    +0.000 A 
ATOM      6  C   UNL     1       1.269   3.989  18.605  0.00  0.00    +0.000 A 
ATOM      7  C   UNL     1       1.076   2.619  18.733  0.00  0.00    +0.000 A 
ATOM      8  F   UNL     1      -0.100   2.159  19.184  0.00  0.00    +0.000 F 
ATOM      9  C   UNL     1       2.078   1.720  18.399  0.00  0.00    +0.000 A 
ATOM     10  C   UNL     1       3.295   2.200  17.912  0.00  0.00    +0.000 A 
ATOM     11  C   UNL     1       3.513   3.581  17.758  0.00  0.00    +0.000 A 
ATOM     12  C   UNL     1       4.721   4.081  17.235  0.00  0.00    +0.000 A 
ENDBRANCH   1   2
BRANCH   1  13
ATOM     13  N   UNL     1       6.971   6.864  17.325  0.00  0.00    +0.000 N 
ATOM     14  N   UNL     1       7.722   6.357  18.325  0.00  0.00    +0.000 NA
ATOM     15  N   UNL     1       8.432   7.379  18.778  0.00  0.00    +0.000 NA
ATOM     16  C   UNL     1       8.092   8.457  18.008  0.00  0.00    +0.000 A 
ATOM     17  C   UNL     1       8.708   9.783  18.171  0.00  0.00    +0.000 C 
ATOM     18  N   UNL     1       7.179   8.177  17.066  0.00  0.00    +0.000 NA
ENDBRANCH   1  13
BRANCH   1  19
ATOM     19  C   UNL     1       7.088   4.938  15.768  0.00  0.00    +0.000 C 
BRANCH  19  20
ATOM     20  C   UNL     1       6.973   4.826  14.243  0.00  0.00    +0.000 C 
BRANCH  20  22
ATOM     21  C   UNL     1       6.121   3.406  12.501  0.00  0.00    +0.000 C 
ATOM     22  N   UNL     1       5.861   3.974  13.823  0.00  0.00    +0.000 NA
ATOM     23  H   UNL     1       5.738   3.198  14.473  0.00  0.00    +0.000 HD
ENDBRANCH  20  22
ENDBRANCH  19  20
ENDBRANCH   1  19
TORSDOF 5
ENDMDL
MODEL 2
REMARK VINA RESULT:      -8.2      1.105      4.014
REMARK  Name = 
REMARK  7 active torsions:
REMARK  status: ('A' for Active; 'I' for Inactive)
REMARK    1  A    between atoms: C_1  and  N_2
REMARK    2  A    between atoms: N_2  and  C_3
REMARK    3  A    between atoms: C_3  and  C_4
REMARK    4  A    between atoms: C_4  and  C_5
REMARK    5  A    between atoms: C_5  and  C_6
REMARK    6  A    between atoms: C_5  and  N_17
REMARK    7  A    between atoms: C_20  and  C_21
REMARK                            x       y       z     vdW  Elec       q    Type
REMARK                         _______ _______ _______ _____ _____    ______ ____
ROOT
ATOM      1  C   UNL     1       6.751   5.106  16.674  0.00  0.00    +0.000 C 
ENDROOT
BRANCH   1   2
ATOM      2  C   UNL     1       5.374   4.827  17.268  0.00  0.00    +0.000 A 
ATOM      3  C   UNL     1       4.427   5.860  17.333  0.00  0.00    +0.000 A 
ATOM      4  C   UNL     1       3.123   5.613  17.769  0.00  0.00    +0.000 A 
ATOM      5  C   UNL     1       2.729   4.327  18.165  0.00  0.00    +0.000 A 
ATOM      6  C   UNL     1       1.414   4.059  18.574  0.00  0.00    +0.000 A 
ATOM      7  C   UNL     1       1.056   2.777  18.973  0.00  0.00    +0.000 A 
ATOM      8  F   UNL     1      -0.206   2.534  19.351  0.00  0.00    +0.000 F 
ATOM      9  C   UNL     1       1.983   1.746  18.983  0.00  0.00    +0.000 A 
ATOM     10  C   UNL     1       3.293   1.996  18.571  0.00  0.00    +0.000 A 
ATOM     11  C   UNL     1       3.680   3.281  18.148  0.00  0.00    +0.000 A 
ATOM     12  C   UNL     1       4.987   3.543  17.696  0.00  0.00    +0.000 A 
ENDBRANCH   1   2
BRANCH   1  13
ATOM     13  N   UNL     1       6.762   4.956  15.214  0.00  0.00    +0.000 N 
ATOM     14  N   UNL     1       7.711   5.511  14.432  0.00  0.00    +0.000 NA
ATOM     15  N   UNL     1       7.523   4.986  13.231  0.00  0.00    +0.000 NA
ATOM     16  C   UNL     1       6.477   4.112  13.352  0.00  0.00    +0.000 A 
ATOM     17  C   UNL     1       5.991   3.288  12.235  0.00  0.00    +0.000 C 
ATOM     18  N   UNL     1       5.970   4.050  14.592  0.00  0.00    +0.000 NA
ENDBRANCH   1  13
BRANCH   1  19
ATOM     19  C   UNL     1       7.346   6.466  17.092  0.00  0.00    +0.000 C 
BRANCH  19  20
ATOM     20  C   UNL     1       7.859   6.533  18.536  0.00  0.00    +0.000 C 
BRANCH  20  22
ATOM     21  C   UNL     1       8.101   8.840  17.908  0.00  0.00    +0.000 C 
ATOM     22  N   UNL     1       8.531   7.797  18.836  0.00  0.00    +0.000 NA
ATOM     23  H   UNL     1       8.302   8.110  19.779  0.00  0.00    +0.000 HD
ENDBRANCH  20  22
ENDBRANCH  19  20
ENDBRANCH   1  19
TORSDOF 5
ENDMDL
MODEL 3
REMARK VINA RESULT:      -8.0      2.494      4.920
REMARK  Name = 
REMARK  7 active torsions:
REMARK  status: ('A' for Active; 'I' for Inactive)
REMARK    1  A    between atoms: C_1  and  N_2
REMARK    2  A    between atoms: N_2  and  C_3
REMARK    3  A    between atoms: C_3  and  C_4
REMARK    4  A    between atoms: C_4  and  C_5
REMARK    5  A    between atoms: C_5  and  C_6
REMARK    6  A    between atoms: C_5  and  N_17
REMARK    7  A    between atoms: C_20  and  C_21
REMARK                            x       y       z     vdW  Elec       q    Type
REMARK                         _______ _______ _______ _____ _____    ______ ____
ROOT
ATOM      1  C   UNL     1       6.411   4.441  17.332  0.00  0.00    +0.000 C 
ENDROOT
BRANCH   1   2
ATOM      2  C   UNL     1       5.196   5.131  17.946  0.00  0.00    +0.000 A 
ATOM      3  C   UNL     1       4.638   4.622  19.129  0.00  0.00    +0.000 A 
ATOM      4  C   UNL     1       3.596   5.291  19.777  0.00  0.00    +0.000 A 
ATOM      5  C   UNL     1       3.073   6.481  19.254  0.00  0.00    +0.000 A 
ATOM      6  C   UNL     1       2.048   7.179  19.912  0.00  0.00    +0.000 A 
ATOM      7  C   UNL     1       1.540   8.351  19.363  0.00  0.00    +0.000 A 
ATOM      8  F   UNL     1       0.569   9.013  20.008  0.00  0.00    +0.000 F 
ATOM      9  C   UNL     1       2.024   8.848  18.162  0.00  0.00    +0.000 A 
ATOM     10  C   UNL     1       3.048   8.167  17.501  0.00  0.00    +0.000 A 
ATOM     11  C   UNL     1       3.591   6.988  18.040  0.00  0.00    +0.000 A 
ATOM     12  C   UNL     1       4.648   6.309  17.405  0.00  0.00    +0.000 A 
ENDBRANCH   1   2
BRANCH   1  13
ATOM     13  N   UNL     1       6.454   4.598  15.874  0.00  0.00    +0.000 N 
ATOM     14  N   UNL     1       7.320   5.429  15.256  0.00  0.00    +0.000 NA
ATOM     15  N   UNL     1       7.218   5.142  13.968  0.00  0.00    +0.000 NA
ATOM     16  C   UNL     1       6.306   4.127  13.870  0.00  0.00    +0.000 A 
ATOM     17  C   UNL     1       5.951   3.492  12.590  0.00  0.00    +0.000 C 
ATOM     18  N   UNL     1       5.804   3.740  15.051  0.00  0.00    +0.000 NA
ENDBRANCH   1  13
BRANCH   1  19
ATOM     19  C   UNL     1       7.752   4.855  17.970  0.00  0.00    +0.000 C 
BRANCH  19  20
ATOM     20  C   UNL     1       7.635   5.821  19.156  0.00  0.00    +0.000 C 
BRANCH  20  22
ATOM     21  C   UNL     1       7.841   7.828  17.849  0.00  0.00    +0.000 C 
ATOM     22  N   UNL     1       8.398   7.053  18.956  0.00  0.00    +0.000 NA
ATOM     23  H   UNL     1       8.361   7.638  19.790  0.00  0.00    +0.000 HD
ENDBRANCH  20  22
ENDBRANCH  19  20
ENDBRANCH   1  19
TORSDOF 5
ENDMDL
MODEL 4
REMARK VINA RESULT:      -7.9      1.399      2.016
REMARK  Name = 
REMARK  7 active torsions:
REMARK  status: ('A' for Active; 'I' for Inactive)
REMARK    1  A    between atoms: C_1  and  N_2
REMARK    2  A    between atoms: N_2  and  C_3
REMARK    3  A    between atoms: C_3  and  C_4
REMARK    4  A    between atoms: C_4  and  C_5
REMARK    5  A    between atoms: C_5  and  C_6
REMARK    6  A    between atoms: C_5  and  N_17
REMARK    7  A    between atoms: C_20  and  C_21
REMARK                            x       y       z     vdW  Elec       q    Type
REMARK                         _______ _______ _______ _____ _____    ______ ____
ROOT
ATOM      1  C   UNL     1       6.027   5.561  16.508  0.00  0.00    +0.000 C 
ENDROOT
BRANCH   1   2
ATOM      2  C   UNL     1       4.910   4.867  17.282  0.00  0.00    +0.000 A 
ATOM      3  C   UNL     1       4.583   3.537  16.980  0.00  0.00    +0.000 A 
ATOM      4  C   UNL     1       3.642   2.838  17.741  0.00  0.00    +0.000 A 
ATOM      5  C   UNL     1       2.991   3.452  18.819  0.00  0.00    +0.000 A 
ATOM      6  C   UNL     1       2.068   2.751  19.610  0.00  0.00    +0.000 A 
ATOM      7  C   UNL     1       1.428   3.391  20.666  0.00  0.00    +0.000 A 
ATOM      8  F   UNL     1       0.557   2.705  21.419  0.00  0.00    +0.000 F 
ATOM      9  C   UNL     1       1.679   4.724  20.952  0.00  0.00    +0.000 A 
ATOM     10  C   UNL     1       2.600   5.431  20.178  0.00  0.00    +0.000 A 
ATOM     11  C   UNL     1       3.273   4.806  19.113  0.00  0.00    +0.000 A 
ATOM     12  C   UNL     1       4.232   5.494  18.345  0.00  0.00    +0.000 A 
ENDBRANCH   1   2
BRANCH   1  13
ATOM     13  N   UNL     1       6.805   6.468  17.360  0.00  0.00    +0.000 N 
ATOM     14  N   UNL     1       7.619   6.026  18.342  0.00  0.00    +0.000 NA
ATOM     15  N   UNL     1       8.304   7.090  18.731  0.00  0.00    +0.000 NA
ATOM     16  C   UNL     1       7.886   8.127  17.943  0.00  0.00    +0.000 A 
ATOM     17  C   UNL     1       8.454   9.481  18.038  0.00  0.00    +0.000 C 
ATOM     18  N   UNL     1       6.947   7.779  17.051  0.00  0.00    +0.000 NA
ENDBRANCH   1  13
BRANCH   1  19
ATOM     19  C   UNL     1       6.952   4.592  15.746  0.00  0.00    +0.000 C 
BRANCH  19  20
ATOM     20  C   UNL     1       6.907   4.717  14.218  0.00  0.00    +0.000 C 
BRANCH  20  22
ATOM     21  C   UNL     1       7.923   5.609  12.231  0.00  0.00    +0.000 C 
ATOM     22  N   UNL     1       7.974   5.569  13.691  0.00  0.00    +0.000 NA
ATOM     23  H   UNL     1       7.870   6.525  14.030  0.00  0.00    +0.000 HD
ENDBRANCH  20  22
ENDBRANCH  19  20
ENDBRANCH   1  19
TORSDOF 5
ENDMDL
MODEL 5
REMARK VINA RESULT:      -7.9      1.641      2.495
REMARK  Name = 
REMARK  7 active torsions:
REMARK  status: ('A' for Active; 'I' for Inactive)
REMARK    1  A    between atoms: C_1  and  N_2
REMARK    2  A    between atoms: N_2  and  C_3
REMARK    3  A    between atoms: C_3  and  C_4
REMARK    4  A    between atoms: C_4  and  C_5
REMARK    5  A    between atoms: C_5  and  C_6
REMARK    6  A    between atoms: C_5  and  N_17
REMARK    7  A    between atoms: C_20  and  C_21
REMARK                            x       y       z     vdW  Elec       q    Type
REMARK                         _______ _______ _______ _____ _____    ______ ____
ROOT
ATOM      1  C   UNL     1       5.147   4.713  15.844  0.00  0.00    +0.000 C 
ENDROOT
BRANCH   1   2
ATOM      2  C   UNL     1       4.247   4.092  16.909  0.00  0.00    +0.000 A 
ATOM      3  C   UNL     1       4.199   2.696  17.044  0.00  0.00    +0.000 A 
ATOM      4  C   UNL     1       3.472   2.100  18.078  0.00  0.00    +0.000 A 
ATOM      5  C   UNL     1       2.761   2.881  18.999  0.00  0.00    +0.000 A 
ATOM      6  C   UNL     1       2.053   2.295  20.060  0.00  0.00    +0.000 A 
ATOM      7  C   UNL     1       1.346   3.095  20.951  0.00  0.00    +0.000 A 
ATOM      8  F   UNL     1       0.684   2.522  21.965  0.00  0.00    +0.000 F 
ATOM      9  C   UNL     1       1.318   4.474  20.808  0.00  0.00    +0.000 A 
ATOM     10  C   UNL     1       2.024   5.070  19.762  0.00  0.00    +0.000 A 
ATOM     11  C   UNL     1       2.760   4.287  18.854  0.00  0.00    +0.000 A 
ATOM     12  C   UNL     1       3.506   4.874  17.814  0.00  0.00    +0.000 A 
ENDBRANCH   1   2
BRANCH   1  13
ATOM     13  N   UNL     1       6.065   5.707  16.411  0.00  0.00    +0.000 N 
ATOM     14  N   UNL     1       5.967   7.026  16.141  0.00  0.00    +0.000 NA
ATOM     15  N   UNL     1       6.799   7.616  16.985  0.00  0.00    +0.000 NA
ATOM     16  C   UNL     1       7.345   6.621  17.748  0.00  0.00    +0.000 A 
ATOM     17  C   UNL     1       8.292   6.881  18.844  0.00  0.00    +0.000 C 
ATOM     18  N   UNL     1       6.901   5.396  17.430  0.00  0.00    +0.000 NA
ENDBRANCH   1  13
BRANCH   1  19
ATOM     19  C   UNL     1       5.912   3.679  14.994  0.00  0.00    +0.000 C 
BRANCH  19  20
ATOM     20  C   UNL     1       6.063   4.041  13.512  0.00  0.00    +0.000 C 
BRANCH  20  22
ATOM     21  C   UNL     1       5.225   2.747  11.668  0.00  0.00    +0.000 C 
ATOM     22  N   UNL     1       6.286   2.868  12.665  0.00  0.00    +0.000 NA
ATOM     23  H   UNL     1       7.171   2.950  12.166  0.00  0.00    +0.000 HD
ENDBRANCH  20  22
ENDBRANCH  19  20
ENDBRANCH   1  19
TORSDOF 5
ENDMDL
MODEL 6
REMARK VINA RESULT:      -7.7      1.746      1.892
REMARK  Name = 
REMARK  7 active torsions:
REMARK  status: ('A' for Active; 'I' for Inactive)
REMARK    1  A    between atoms: C_1  and  N_2
REMARK    2  A    between atoms: N_2  and  C_3
REMARK    3  A    between atoms: C_3  and  C_4
REMARK    4  A    between atoms: C_4  and  C_5
REMARK    5  A    between atoms: C_5  and  C_6
REMARK    6  A    between atoms: C_5  and  N_17
REMARK    7  A    between atoms: C_20  and  C_21
REMARK                            x       y       z     vdW  Elec       q    Type
REMARK                         _______ _______ _______ _____ _____    ______ ____
ROOT
ATOM      1  C   UNL     1       5.007   5.288  16.328  0.00  0.00    +0.000 C 
ENDROOT
BRANCH   1   2
ATOM      2  C   UNL     1       4.118   4.990  17.532  0.00  0.00    +0.000 A 
ATOM      3  C   UNL     1       2.943   5.732  17.723  0.00  0.00    +0.000 A 
ATOM      4  C   UNL     1       2.051   5.414  18.751  0.00  0.00    +0.000 A 
ATOM      5  C   UNL     1       2.315   4.351  19.626  0.00  0.00    +0.000 A 
ATOM      6  C   UNL     1       1.412   4.001  20.642  0.00  0.00    +0.000 A 
ATOM      7  C   UNL     1       1.706   2.950  21.503  0.00  0.00    +0.000 A 
ATOM      8  F   UNL     1       0.830   2.620  22.462  0.00  0.00    +0.000 F 
ATOM      9  C   UNL     1       2.889   2.236  21.383  0.00  0.00    +0.000 A 
ATOM     10  C   UNL     1       3.792   2.569  20.372  0.00  0.00    +0.000 A 
ATOM     11  C   UNL     1       3.514   3.617  19.478  0.00  0.00    +0.000 A 
ATOM     12  C   UNL     1       4.397   3.943  18.431  0.00  0.00    +0.000 A 
ENDBRANCH   1   2
BRANCH   1  13
ATOM     13  N   UNL     1       6.175   6.097  16.694  0.00  0.00    +0.000 N 
ATOM     14  N   UNL     1       7.385   5.930  16.120  0.00  0.00    +0.000 NA
ATOM     15  N   UNL     1       8.110   6.959  16.531  0.00  0.00    +0.000 NA
ATOM     16  C   UNL     1       7.289   7.718  17.319  0.00  0.00    +0.000 A 
ATOM     17  C   UNL     1       7.717   8.985  17.932  0.00  0.00    +0.000 C 
ATOM     18  N   UNL     1       6.050   7.219  17.443  0.00  0.00    +0.000 NA
ENDBRANCH   1  13
BRANCH   1  19
ATOM     19  C   UNL     1       5.432   4.032  15.541  0.00  0.00    +0.000 C 
BRANCH  19  20
ATOM     20  C   UNL     1       5.365   4.169  14.015  0.00  0.00    +0.000 C 
BRANCH  20  22
ATOM     21  C   UNL     1       5.904   3.041  11.962  0.00  0.00    +0.000 C 
ATOM     22  N   UNL     1       6.339   3.318  13.330  0.00  0.00    +0.000 NA
ATOM     23  H   UNL     1       7.245   3.782  13.277  0.00  0.00    +0.000 HD
ENDBRANCH  20  22
ENDBRANCH  19  20
ENDBRANCH   1  19
TORSDOF 5
ENDMDL
MODEL 7
REMARK VINA RESULT:      -7.6      1.665      2.248
REMARK  Name = 
REMARK  7 active torsions:
REMARK  status: ('A' for Active; 'I' for Inactive)
REMARK    1  A    between atoms: C_1  and  N_2
REMARK    2  A    between atoms: N_2  and  C_3
REMARK    3  A    between atoms: C_3  and  C_4
REMARK    4  A    between atoms: C_4  and  C_5
REMARK    5  A    between atoms: C_5  and  C_6
REMARK    6  A    between atoms: C_5  and  N_17
REMARK    7  A    between atoms: C_20  and  C_21
REMARK                            x       y       z     vdW  Elec       q    Type
REMARK                         _______ _______ _______ _____ _____    ______ ____
ROOT
ATOM      1  C   UNL     1       5.110   4.839  16.327  0.00  0.00    +0.000 C 
ENDROOT
BRANCH   1   2
ATOM      2  C   UNL     1       4.099   4.241  17.302  0.00  0.00    +0.000 A 
ATOM      3  C   UNL     1       3.381   3.093  16.935  0.00  0.00    +0.000 A 
ATOM      4  C   UNL     1       2.530   2.458  17.844  0.00  0.00    +0.000 A 
ATOM      5  C   UNL     1       2.361   2.960  19.141  0.00  0.00    +0.000 A 
ATOM      6  C   UNL     1       1.534   2.314  20.073  0.00  0.00    +0.000 A 
ATOM      7  C   UNL     1       1.377   2.841  21.349  0.00  0.00    +0.000 A 
ATOM      8  F   UNL     1       0.592   2.207  22.231  0.00  0.00    +0.000 F 
ATOM      9  C   UNL     1       2.020   4.011  21.724  0.00  0.00    +0.000 A 
ATOM     10  C   UNL     1       2.852   4.660  20.810  0.00  0.00    +0.000 A 
ATOM     11  C   UNL     1       3.042   4.141  19.517  0.00  0.00    +0.000 A 
ATOM     12  C   UNL     1       3.904   4.763  18.594  0.00  0.00    +0.000 A 
ENDBRANCH   1   2
BRANCH   1  13
ATOM     13  N   UNL     1       6.120   5.653  17.012  0.00  0.00    +0.000 N 
ATOM     14  N   UNL     1       7.224   5.119  17.575  0.00  0.00    +0.000 NA
ATOM     15  N   UNL     1       7.988   6.154  17.890  0.00  0.00    +0.000 NA
ATOM     16  C   UNL     1       7.315   7.270  17.475  0.00  0.00    +0.000 A 
ATOM     17  C   UNL     1       7.864   8.629  17.606  0.00  0.00    +0.000 C 
ATOM     18  N   UNL     1       6.133   7.003  16.902  0.00  0.00    +0.000 NA
ENDBRANCH   1  13
BRANCH   1  19
ATOM     19  C   UNL     1       5.774   3.798  15.403  0.00  0.00    +0.000 C 
BRANCH  19  20
ATOM     20  C   UNL     1       6.324   4.357  14.085  0.00  0.00    +0.000 C 
BRANCH  20  22
ATOM     21  C   UNL     1       7.032   3.879  11.839  0.00  0.00    +0.000 C 
ATOM     22  N   UNL     1       6.318   3.368  13.007  0.00  0.00    +0.000 NA
ATOM     23  H   UNL     1       6.784   2.512  13.304  0.00  0.00    +0.000 HD
ENDBRANCH  20  22
ENDBRANCH  19  20
ENDBRANCH   1  19
TORSDOF 5
ENDMDL
MODEL 8
REMARK VINA RESULT:      -7.6      1.199      1.199
REMARK  Name = 
REMARK  7 active torsions:
REMARK  status: ('A' for Active; 'I' for Inactive)
REMARK    1  A    between atoms: C_1  and  N_2
REMARK    2  A    between atoms: N_2  and  C_3
REMARK    3  A    between atoms: C_3  and  C_4
REMARK    4  A    between atoms: C_4  and  C_5
REMARK    5  A    between atoms: C_5  and  C_6
REMARK    6  A    between atoms: C_5  and  N_17
REMARK    7  A    between atoms: C_20  and  C_21
REMARK                            x       y       z     vdW  Elec       q    Type
REMARK                         _______ _______ _______ _____ _____    ______ ____
ROOT
ATOM      1  C   UNL     1       6.072   6.302  16.856  0.00  0.00    +0.000 C 
ENDROOT
BRANCH   1   2
ATOM      2  C   UNL     1       4.908   5.821  17.718  0.00  0.00    +0.000 A 
ATOM      3  C   UNL     1       3.687   6.510  17.678  0.00  0.00    +0.000 A 
ATOM      4  C   UNL     1       2.570   6.033  18.369  0.00  0.00    +0.000 A 
ATOM      5  C   UNL     1       2.645   4.860  19.133  0.00  0.00    +0.000 A 
ATOM      6  C   UNL     1       1.522   4.354  19.806  0.00  0.00    +0.000 A 
ATOM      7  C   UNL     1       1.630   3.195  20.565  0.00  0.00    +0.000 A 
ATOM      8  F   UNL     1       0.547   2.718  21.194  0.00  0.00    +0.000 F 
ATOM      9  C   UNL     1       2.838   2.524  20.681  0.00  0.00    +0.000 A 
ATOM     10  C   UNL     1       3.960   3.012  20.010  0.00  0.00    +0.000 A 
ATOM     11  C   UNL     1       3.878   4.174  19.222  0.00  0.00    +0.000 A 
ATOM     12  C   UNL     1       4.991   4.660  18.511  0.00  0.00    +0.000 A 
ENDBRANCH   1   2
BRANCH   1  13
ATOM     13  N   UNL     1       6.977   7.186  17.598  0.00  0.00    +0.000 N 
ATOM     14  N   UNL     1       7.875   6.723  18.493  0.00  0.00    +0.000 NA
ATOM     15  N   UNL     1       8.644   7.762  18.783  0.00  0.00    +0.000 NA
ATOM     16  C   UNL     1       8.186   8.804  18.025  0.00  0.00    +0.000 A 
ATOM     17  C   UNL     1       8.818  10.133  18.029  0.00  0.00    +0.000 C 
ATOM     18  N   UNL     1       7.140   8.485  17.249  0.00  0.00    +0.000 NA
ENDBRANCH   1  13
BRANCH   1  19
ATOM     19  C   UNL     1       6.853   5.162  16.171  0.00  0.00    +0.000 C 
BRANCH  19  20
ATOM     20  C   UNL     1       6.589   5.007  14.669  0.00  0.00    +0.000 C 
BRANCH  20  22
ATOM     21  C   UNL     1       6.113   3.520  12.841  0.00  0.00    +0.000 C 
ATOM     22  N   UNL     1       6.333   3.619  14.283  0.00  0.00    +0.000 NA
ATOM     23  H   UNL     1       7.132   3.029  14.513  0.00  0.00    +0.000 HD
ENDBRANCH  20  22
ENDBRANCH  19  20
ENDBRANCH   1  19
TORSDOF 5
ENDMDL
MODEL 9
REMARK VINA RESULT:      -7.5      3.595      5.399
REMARK  Name = 
REMARK  7 active torsions:
REMARK  status: ('A' for Active; 'I' for Inactive)
REMARK    1  A    between atoms: C_1  and  N_2
REMARK    2  A    between atoms: N_2  and  C_3
REMARK    3  A    between atoms: C_3  and  C_4
REMARK    4  A    between atoms: C_4  and  C_5
REMARK    5  A    between atoms: C_5  and  C_6
REMARK    6  A    between atoms: C_5  and  N_17
REMARK    7  A    between atoms: C_20  and  C_21
REMARK                            x       y       z     vdW  Elec       q    Type
REMARK                         _______ _______ _______ _____ _____    ______ ____
ROOT
ATOM      1  C   UNL     1       3.451   5.060  17.742  0.00  0.00    +0.000 C 
ENDROOT
BRANCH   1   2
ATOM      2  C   UNL     1       2.702   6.145  18.511  0.00  0.00    +0.000 A 
ATOM      3  C   UNL     1       2.328   5.914  19.844  0.00  0.00    +0.000 A 
ATOM      4  C   UNL     1       1.740   6.924  20.609  0.00  0.00    +0.000 A 
ATOM      5  C   UNL     1       1.496   8.190  20.062  0.00  0.00    +0.000 A 
ATOM      6  C   UNL     1       0.935   9.222  20.829  0.00  0.00    +0.000 A 
ATOM      7  C   UNL     1       0.693  10.465  20.256  0.00  0.00    +0.000 A 
ATOM      8  F   UNL     1       0.166  11.444  21.004  0.00  0.00    +0.000 F 
ATOM      9  C   UNL     1       0.989  10.708  18.923  0.00  0.00    +0.000 A 
ATOM     10  C   UNL     1       1.555   9.693  18.150  0.00  0.00    +0.000 A 
ATOM     11  C   UNL     1       1.825   8.430  18.707  0.00  0.00    +0.000 A 
ATOM     12  C   UNL     1       2.427   7.407  17.952  0.00  0.00    +0.000 A 
ENDBRANCH   1   2
BRANCH   1  13
ATOM     13  N   UNL     1       4.778   5.511  17.307  0.00  0.00    +0.000 N 
ATOM     14  N   UNL     1       5.105   5.662  16.006  0.00  0.00    +0.000 NA
ATOM     15  N   UNL     1       6.275   6.281  16.012  0.00  0.00    +0.000 NA
ATOM     16  C   UNL     1       6.590   6.499  17.325  0.00  0.00    +0.000 A 
ATOM     17  C   UNL     1       7.805   7.213  17.748  0.00  0.00    +0.000 C 
ATOM     18  N   UNL     1       5.666   6.039  18.182  0.00  0.00    +0.000 NA
ENDBRANCH   1  13
BRANCH   1  19
ATOM     19  C   UNL     1       3.545   3.716  18.493  0.00  0.00    +0.000 C 
BRANCH  19  20
ATOM     20  C   UNL     1       3.102   2.490  17.685  0.00  0.00    +0.000 C 
BRANCH  20  22
ATOM     21  C   UNL     1       0.975   2.474  18.803  0.00  0.00    +0.000 C 
ATOM     22  N   UNL     1       2.125   1.668  18.400  0.00  0.00    +0.000 NA
ATOM     23  H   UNL     1       1.781   0.918  17.802  0.00  0.00    +0.000 HD
ENDBRANCH  20  22
ENDBRANCH  19  20
ENDBRANCH   1  19
TORSDOF 5
ENDMDL
