MODEL 1
REMARK VINA RESULT:      -6.3      0.000      0.000
REMARK  Name = 
REMARK  7 active torsions:
REMARK  status: ('A' for Active; 'I' for Inactive)
REMARK    1  A    between atoms: C_1  and  O_2
REMARK    2  A    between atoms: O_2  and  C_3
REMARK    3  A    between atoms: C_9  and  N_10
REMARK    4  A    between atoms: C_11  and  C_13
REMARK    5  A    between atoms: C_13  and  N_14
REMARK    6  A    between atoms: N_14  and  C_15
REMARK    7  A    between atoms: N_14  and  C_16
REMARK                            x       y       z     vdW  Elec       q    Type
REMARK                         _______ _______ _______ _____ _____    ______ ____
ROOT
ATOM      1  N   UNL     1       5.918   4.022  17.440  0.00  0.00    +0.000 N 
ATOM      2  C   UNL     1       5.079   4.802  18.219  0.00  0.00    +0.000 C 
ATOM      3  O   UNL     1       4.480   5.815  17.860  0.00  0.00    +0.000 OA
ATOM      4  H   UNL     1       6.445   3.302  17.932  0.00  0.00    +0.000 HD
ENDROOT
BRANCH   1  11
ATOM      5  C   UNL     1       7.289   5.245  15.849  0.00  0.00    +0.000 A 
ATOM      6  C   UNL     1       7.662   5.534  14.527  0.00  0.00    +0.000 A 
ATOM      7  C   UNL     1       7.059   4.865  13.461  0.00  0.00    +0.000 A 
ATOM      8  C   UNL     1       6.104   3.889  13.711  0.00  0.00    +0.000 A 
ATOM      9 CL   UNL     1       5.370   3.058  12.394  0.00  0.00    +0.000 Cl
ATOM     10  C   UNL     1       5.736   3.579  15.019  0.00  0.00    +0.000 A 
ATOM     11  C   UNL     1       6.305   4.261  16.100  0.00  0.00    +0.000 A 
BRANCH   5  13
ATOM     12  C   UNL     1       7.510   7.252  17.109  0.00  0.00    +0.000 C 
ATOM     13  O   UNL     1       7.829   5.871  16.951  0.00  0.00    +0.000 OA
ENDBRANCH   5  13
ENDBRANCH   1  11
BRANCH   2  14
ATOM     14  C   UNL     1       4.930   4.286  19.657  0.00  0.00    +0.000 C 
BRANCH  14  15
ATOM     15  N   UNL     1       3.948   3.168  19.736  0.00  0.00    +0.000 NA
ATOM     16  C   UNL     1       4.596   2.035  20.436  0.00  0.00    +0.000 C 
BRANCH  15  17
ATOM     17  C   UNL     1       2.710   3.585  20.462  0.00  0.00    +0.000 C 
ATOM     18  C   UNL     1       1.880   4.664  19.721  0.00  0.00    +0.000 C 
ATOM     19  C   UNL     1       1.239   4.156  18.427  0.00  0.00    +0.000 C 
ATOM     20  C   UNL     1       0.420   2.885  18.645  0.00  0.00    +0.000 C 
ATOM     21  C   UNL     1       1.205   1.823  19.408  0.00  0.00    +0.000 C 
ATOM     22  C   UNL     1       1.746   2.398  20.717  0.00  0.00    +0.000 C 
ENDBRANCH  15  17
ENDBRANCH  14  15
ENDBRANCH   2  14
TORSDOF 5
ENDMDL
MODEL 2
REMARK VINA RESULT:      -6.2      1.665      2.399
REMARK  Name = 
REMARK  7 active torsions:
REMARK  status: ('A' for Active; 'I' for Inactive)
REMARK    1  A    between atoms: C_1  and  O_2
REMARK    2  A    between atoms: O_2  and  C_3
REMARK    3  A    between atoms: C_9  and  N_10
REMARK    4  A    between atoms: C_11  and  C_13
REMARK    5  A    between atoms: C_13  and  N_14
REMARK    6  A    between atoms: N_14  and  C_15
REMARK    7  A    between atoms: N_14  and  C_16
REMARK                            x       y       z     vdW  Elec       q    Type
REMARK                         _______ _______ _______ _____ _____    ______ ____
ROOT
ATOM      1  N   UNL     1       3.755   4.667  17.497  0.00  0.00    +0.000 N 
ATOM      2  C   UNL     1       3.083   5.819  17.869  0.00  0.00    +0.000 C 
ATOM      3  O   UNL     1       3.408   6.975  17.598  0.00  0.00    +0.000 OA
ATOM      4  H   UNL     1       3.431   3.801  17.925  0.00  0.00    +0.000 HD
ENDROOT
BRANCH   1  11
ATOM      5  C   UNL     1       6.178   4.856  17.481  0.00  0.00    +0.000 A 
ATOM      6  C   UNL     1       7.401   4.824  16.793  0.00  0.00    +0.000 A 
ATOM      7  C   UNL     1       7.436   4.534  15.428  0.00  0.00    +0.000 A 
ATOM      8  C   UNL     1       6.256   4.251  14.753  0.00  0.00    +0.000 A 
ATOM      9 CL   UNL     1       6.304   3.884  13.072  0.00  0.00    +0.000 Cl
ATOM     10  C   UNL     1       5.036   4.264  15.427  0.00  0.00    +0.000 A 
ATOM     11  C   UNL     1       4.977   4.584  16.788  0.00  0.00    +0.000 A 
BRANCH   5  13
ATOM     12  C   UNL     1       7.245   5.612  19.470  0.00  0.00    +0.000 C 
ATOM     13  O   UNL     1       6.062   5.146  18.822  0.00  0.00    +0.000 OA
ENDBRANCH   5  13
ENDBRANCH   1  11
BRANCH   2  14
ATOM     14  C   UNL     1       1.818   5.547  18.695  0.00  0.00    +0.000 C 
BRANCH  14  15
ATOM     15  N   UNL     1       2.133   5.406  20.144  0.00  0.00    +0.000 NA
ATOM     16  C   UNL     1       1.757   6.668  20.822  0.00  0.00    +0.000 C 
BRANCH  15  17
ATOM     17  C   UNL     1       1.396   4.255  20.749  0.00  0.00    +0.000 C 
ATOM     18  C   UNL     1       0.576   3.427  19.727  0.00  0.00    +0.000 C 
ATOM     19  C   UNL     1       1.446   2.659  18.729  0.00  0.00    +0.000 C 
ATOM     20  C   UNL     1       2.496   1.792  19.423  0.00  0.00    +0.000 C 
ATOM     21  C   UNL     1       3.289   2.577  20.462  0.00  0.00    +0.000 C 
ATOM     22  C   UNL     1       2.343   3.252  21.456  0.00  0.00    +0.000 C 
ENDBRANCH  15  17
ENDBRANCH  14  15
ENDBRANCH   2  14
TORSDOF 5
ENDMDL
MODEL 3
REMARK VINA RESULT:      -6.2      3.727      6.923
REMARK  Name = 
REMARK  7 active torsions:
REMARK  status: ('A' for Active; 'I' for Inactive)
REMARK    1  A    between atoms: C_1  and  O_2
REMARK    2  A    between atoms: O_2  and  C_3
REMARK    3  A    between atoms: C_9  and  N_10
REMARK    4  A    between atoms: C_11  and  C_13
REMARK    5  A    between atoms: C_13  and  N_14
REMARK    6  A    between atoms: N_14  and  C_15
REMARK    7  A    between atoms: N_14  and  C_16
REMARK                            x       y       z     vdW  Elec       q    Type
REMARK                         _______ _______ _______ _____ _____    ______ ____
ROOT
ATOM      1  N   UNL     1       3.190   6.794  18.345  0.00  0.00    +0.000 N 
ATOM      2  C   UNL     1       2.878   5.591  17.735  0.00  0.00    +0.000 C 
ATOM      3  O   UNL     1       1.768   5.061  17.688  0.00  0.00    +0.000 OA
ATOM      4  H   UNL     1       4.182   7.017  18.416  0.00  0.00    +0.000 HD
ENDROOT
BRANCH   1  11
ATOM      5  C   UNL     1       1.927   7.211  20.379  0.00  0.00    +0.000 A 
ATOM      6  C   UNL     1       1.028   7.995  21.119  0.00  0.00    +0.000 A 
ATOM      7  C   UNL     1       0.511   9.175  20.582  0.00  0.00    +0.000 A 
ATOM      8  C   UNL     1       0.908   9.588  19.317  0.00  0.00    +0.000 A 
ATOM      9 CL   UNL     1       0.276  11.049  18.660  0.00  0.00    +0.000 Cl
ATOM     10  C   UNL     1       1.812   8.829  18.577  0.00  0.00    +0.000 A 
ATOM     11  C   UNL     1       2.317   7.627  19.085  0.00  0.00    +0.000 A 
BRANCH   5  13
ATOM     12  C   UNL     1       1.557   4.953  21.030  0.00  0.00    +0.000 C 
ATOM     13  O   UNL     1       2.470   6.032  20.836  0.00  0.00    +0.000 OA
ENDBRANCH   5  13
ENDBRANCH   1  11
BRANCH   2  14
ATOM     14  C   UNL     1       4.085   4.911  17.074  0.00  0.00    +0.000 C 
BRANCH  14  15
ATOM     15  N   UNL     1       5.195   4.705  18.047  0.00  0.00    +0.000 NA
ATOM     16  C   UNL     1       4.950   3.431  18.762  0.00  0.00    +0.000 C 
BRANCH  15  17
ATOM     17  C   UNL     1       6.520   4.664  17.356  0.00  0.00    +0.000 C 
ATOM     18  C   UNL     1       6.750   5.834  16.366  0.00  0.00    +0.000 C 
ATOM     19  C   UNL     1       6.880   7.196  17.054  0.00  0.00    +0.000 C 
ATOM     20  C   UNL     1       7.939   7.190  18.155  0.00  0.00    +0.000 C 
ATOM     21  C   UNL     1       7.756   6.023  19.118  0.00  0.00    +0.000 C 
ATOM     22  C   UNL     1       7.707   4.701  18.351  0.00  0.00    +0.000 C 
ENDBRANCH  15  17
ENDBRANCH  14  15
ENDBRANCH   2  14
TORSDOF 5
ENDMDL
MODEL 4
REMARK VINA RESULT:      -6.2      1.519      1.829
REMARK  Name = 
REMARK  7 active torsions:
REMARK  status: ('A' for Active; 'I' for Inactive)
REMARK    1  A    between atoms: C_1  and  O_2
REMARK    2  A    between atoms: O_2  and  C_3
REMARK    3  A    between atoms: C_9  and  N_10
REMARK    4  A    between atoms: C_11  and  C_13
REMARK    5  A    between atoms: C_13  and  N_14
REMARK    6  A    between atoms: N_14  and  C_15
REMARK    7  A    between atoms: N_14  and  C_16
REMARK                            x       y       z     vdW  Elec       q    Type
REMARK                         _______ _______ _______ _____ _____    ______ ____
ROOT
ATOM      1  N   UNL     1       4.510   5.374  17.713  0.00  0.00    +0.000 N 
ATOM      2  C   UNL     1       3.711   6.488  17.911  0.00  0.00    +0.000 C 
ATOM      3  O   UNL     1       3.572   7.436  17.138  0.00  0.00    +0.000 OA
ATOM      4  H   UNL     1       4.621   4.754  18.513  0.00  0.00    +0.000 HD
ENDROOT
BRANCH   1  11
ATOM      5  C   UNL     1       6.713   5.558  16.705  0.00  0.00    +0.000 A 
ATOM      6  C   UNL     1       7.579   5.365  15.617  0.00  0.00    +0.000 A 
ATOM      7  C   UNL     1       7.119   4.758  14.447  0.00  0.00    +0.000 A 
ATOM      8  C   UNL     1       5.803   4.321  14.369  0.00  0.00    +0.000 A 
ATOM      9 CL   UNL     1       5.241   3.563  12.929  0.00  0.00    +0.000 Cl
ATOM     10  C   UNL     1       4.937   4.491  15.448  0.00  0.00    +0.000 A 
ATOM     11  C   UNL     1       5.370   5.126  16.617  0.00  0.00    +0.000 A 
BRANCH   5  13
ATOM     12  C   UNL     1       7.648   7.467  17.776  0.00  0.00    +0.000 C 
ATOM     13  O   UNL     1       7.090   6.159  17.885  0.00  0.00    +0.000 OA
ENDBRANCH   5  13
ENDBRANCH   1  11
BRANCH   2  14
ATOM     14  C   UNL     1       2.955   6.466  19.246  0.00  0.00    +0.000 C 
BRANCH  14  15
ATOM     15  N   UNL     1       2.678   5.071  19.693  0.00  0.00    +0.000 NA
ATOM     16  C   UNL     1       2.636   5.061  21.173  0.00  0.00    +0.000 C 
BRANCH  15  17
ATOM     17  C   UNL     1       1.384   4.571  19.135  0.00  0.00    +0.000 C 
ATOM     18  C   UNL     1       1.493   4.019  17.691  0.00  0.00    +0.000 C 
ATOM     19  C   UNL     1       2.312   2.729  17.593  0.00  0.00    +0.000 C 
ATOM     20  C   UNL     1       1.815   1.653  18.557  0.00  0.00    +0.000 C 
ATOM     21  C   UNL     1       1.662   2.185  19.978  0.00  0.00    +0.000 C 
ATOM     22  C   UNL     1       0.774   3.430  19.988  0.00  0.00    +0.000 C 
ENDBRANCH  15  17
ENDBRANCH  14  15
ENDBRANCH   2  14
TORSDOF 5
ENDMDL
MODEL 5
REMARK VINA RESULT:      -6.1      0.873      1.231
REMARK  Name = 
REMARK  7 active torsions:
REMARK  status: ('A' for Active; 'I' for Inactive)
REMARK    1  A    between atoms: C_1  and  O_2
REMARK    2  A    between atoms: O_2  and  C_3
REMARK    3  A    between atoms: C_9  and  N_10
REMARK    4  A    between atoms: C_11  and  C_13
REMARK    5  A    between atoms: C_13  and  N_14
REMARK    6  A    between atoms: N_14  and  C_15
REMARK    7  A    between atoms: N_14  and  C_16
REMARK                            x       y       z     vdW  Elec       q    Type
REMARK                         _______ _______ _______ _____ _____    ______ ____
ROOT
ATOM      1  N   UNL     1       5.644   3.559  17.050  0.00  0.00    +0.000 N 
ATOM      2  C   UNL     1       4.678   4.165  17.836  0.00  0.00    +0.000 C 
ATOM      3  O   UNL     1       3.986   5.135  17.528  0.00  0.00    +0.000 OA
ATOM      4  H   UNL     1       6.224   2.860  17.511  0.00  0.00    +0.000 HD
ENDROOT
BRANCH   1  11
ATOM      5  C   UNL     1       7.113   4.918  15.671  0.00  0.00    +0.000 A 
ATOM      6  C   UNL     1       7.530   5.371  14.409  0.00  0.00    +0.000 A 
ATOM      7  C   UNL     1       6.919   4.893  13.249  0.00  0.00    +0.000 A 
ATOM      8  C   UNL     1       5.909   3.944  13.343  0.00  0.00    +0.000 A 
ATOM      9 CL   UNL     1       5.164   3.348  11.910  0.00  0.00    +0.000 Cl
ATOM     10  C   UNL     1       5.495   3.473  14.588  0.00  0.00    +0.000 A 
ATOM     11  C   UNL     1       6.074   3.964  15.764  0.00  0.00    +0.000 A 
BRANCH   5  13
ATOM     12  C   UNL     1       7.376   6.701  17.225  0.00  0.00    +0.000 C 
ATOM     13  O   UNL     1       7.658   5.352  16.858  0.00  0.00    +0.000 OA
ENDBRANCH   5  13
ENDBRANCH   1  11
BRANCH   2  14
ATOM     14  C   UNL     1       4.510   3.505  19.212  0.00  0.00    +0.000 C 
BRANCH  14  15
ATOM     15  N   UNL     1       3.419   2.490  19.200  0.00  0.00    +0.000 NA
ATOM     16  C   UNL     1       4.029   1.160  18.968  0.00  0.00    +0.000 C 
BRANCH  15  17
ATOM     17  C   UNL     1       2.662   2.494  20.489  0.00  0.00    +0.000 C 
ATOM     18  C   UNL     1       2.844   3.789  21.321  0.00  0.00    +0.000 C 
ATOM     19  C   UNL     1       2.216   5.024  20.669  0.00  0.00    +0.000 C 
ATOM     20  C   UNL     1       0.748   4.805  20.306  0.00  0.00    +0.000 C 
ATOM     21  C   UNL     1       0.540   3.515  19.521  0.00  0.00    +0.000 C 
ATOM     22  C   UNL     1       1.136   2.327  20.278  0.00  0.00    +0.000 C 
ENDBRANCH  15  17
ENDBRANCH  14  15
ENDBRANCH   2  14
TORSDOF 5
ENDMDL
MODEL 6
REMARK VINA RESULT:      -6.1      5.682      7.626
REMARK  Name = 
REMARK  7 active torsions:
REMARK  status: ('A' for Active; 'I' for Inactive)
REMARK    1  A    between atoms: C_1  and  O_2
REMARK    2  A    between atoms: O_2  and  C_3
REMARK    3  A    between atoms: C_9  and  N_10
REMARK    4  A    between atoms: C_11  and  C_13
REMARK    5  A    between atoms: C_13  and  N_14
REMARK    6  A    between atoms: N_14  and  C_15
REMARK    7  A    between atoms: N_14  and  C_16
REMARK                            x       y       z     vdW  Elec       q    Type
REMARK                         _______ _______ _______ _____ _____    ______ ____
ROOT
ATOM      1  N   UNL     1       1.934   7.680  20.630  0.00  0.00    +0.000 N 
ATOM      2  C   UNL     1       0.834   8.309  21.190  0.00  0.00    +0.000 C 
ATOM      3  O   UNL     1      -0.255   7.793  21.439  0.00  0.00    +0.000 OA
ATOM      4  H   UNL     1       2.706   8.286  20.359  0.00  0.00    +0.000 HD
ENDROOT
BRANCH   1  11
ATOM      5  C   UNL     1       2.366   6.107  18.828  0.00  0.00    +0.000 A 
ATOM      6  C   UNL     1       2.409   4.792  18.339  0.00  0.00    +0.000 A 
ATOM      7  C   UNL     1       2.093   3.718  19.172  0.00  0.00    +0.000 A 
ATOM      8  C   UNL     1       1.760   3.950  20.500  0.00  0.00    +0.000 A 
ATOM      9 CL   UNL     1       1.382   2.622  21.528  0.00  0.00    +0.000 Cl
ATOM     10  C   UNL     1       1.730   5.249  21.004  0.00  0.00    +0.000 A 
ATOM     11  C   UNL     1       2.011   6.342  20.177  0.00  0.00    +0.000 A 
BRANCH   5  13
ATOM     12  C   UNL     1       3.940   7.248  17.456  0.00  0.00    +0.000 C 
ATOM     13  O   UNL     1       2.651   7.217  18.065  0.00  0.00    +0.000 OA
ENDBRANCH   5  13
ENDBRANCH   1  11
BRANCH   2  14
ATOM     14  C   UNL     1       1.076   9.792  21.506  0.00  0.00    +0.000 C 
BRANCH  14  15
ATOM     15  N   UNL     1      -0.104  10.626  21.141  0.00  0.00    +0.000 NA
ATOM     16  C   UNL     1      -0.509  11.399  22.337  0.00  0.00    +0.000 C 
BRANCH  15  17
ATOM     17  C   UNL     1       0.215  11.551  20.010  0.00  0.00    +0.000 C 
ATOM     18  C   UNL     1       0.731  10.832  18.737  0.00  0.00    +0.000 C 
ATOM     19  C   UNL     1      -0.334   9.973  18.051  0.00  0.00    +0.000 C 
ATOM     20  C   UNL     1      -1.613  10.756  17.761  0.00  0.00    +0.000 C 
ATOM     21  C   UNL     1      -2.117  11.503  18.991  0.00  0.00    +0.000 C 
ATOM     22  C   UNL     1      -1.011  12.388  19.567  0.00  0.00    +0.000 C 
ENDBRANCH  15  17
ENDBRANCH  14  15
ENDBRANCH   2  14
TORSDOF 5
ENDMDL
MODEL 7
REMARK VINA RESULT:      -6.1      1.475      1.826
REMARK  Name = 
REMARK  7 active torsions:
REMARK  status: ('A' for Active; 'I' for Inactive)
REMARK    1  A    between atoms: C_1  and  O_2
REMARK    2  A    between atoms: O_2  and  C_3
REMARK    3  A    between atoms: C_9  and  N_10
REMARK    4  A    between atoms: C_11  and  C_13
REMARK    5  A    between atoms: C_13  and  N_14
REMARK    6  A    between atoms: N_14  and  C_15
REMARK    7  A    between atoms: N_14  and  C_16
REMARK                            x       y       z     vdW  Elec       q    Type
REMARK                         _______ _______ _______ _____ _____    ______ ____
ROOT
ATOM      1  N   UNL     1       4.919   4.828  16.126  0.00  0.00    +0.000 N 
ATOM      2  C   UNL     1       4.589   6.088  16.594  0.00  0.00    +0.000 C 
ATOM      3  O   UNL     1       4.727   7.152  15.991  0.00  0.00    +0.000 OA
ATOM      4  H   UNL     1       4.874   4.071  16.806  0.00  0.00    +0.000 HD
ENDROOT
BRANCH   1  11
ATOM      5  C   UNL     1       6.895   4.854  14.711  0.00  0.00    +0.000 A 
ATOM      6  C   UNL     1       7.521   4.592  13.483  0.00  0.00    +0.000 A 
ATOM      7  C   UNL     1       6.807   4.004  12.437  0.00  0.00    +0.000 A 
ATOM      8  C   UNL     1       5.477   3.653  12.623  0.00  0.00    +0.000 A 
ATOM      9 CL   UNL     1       4.601   2.919  11.336  0.00  0.00    +0.000 Cl
ATOM     10  C   UNL     1       4.846   3.893  13.843  0.00  0.00    +0.000 A 
ATOM     11  C   UNL     1       5.536   4.511  14.892  0.00  0.00    +0.000 A 
BRANCH   5  13
ATOM     12  C   UNL     1       7.792   4.596  16.901  0.00  0.00    +0.000 C 
ATOM     13  O   UNL     1       7.529   5.442  15.783  0.00  0.00    +0.000 OA
ENDBRANCH   5  13
ENDBRANCH   1  11
BRANCH   2  14
ATOM     14  C   UNL     1       3.995   6.076  18.010  0.00  0.00    +0.000 C 
BRANCH  14  15
ATOM     15  N   UNL     1       4.391   4.849  18.756  0.00  0.00    +0.000 NA
ATOM     16  C   UNL     1       5.650   5.138  19.482  0.00  0.00    +0.000 C 
BRANCH  15  17
ATOM     17  C   UNL     1       3.324   4.432  19.718  0.00  0.00    +0.000 C 
ATOM     18  C   UNL     1       1.883   4.651  19.190  0.00  0.00    +0.000 C 
ATOM     19  C   UNL     1       1.520   3.737  18.017  0.00  0.00    +0.000 C 
ATOM     20  C   UNL     1       1.774   2.264  18.330  0.00  0.00    +0.000 C 
ATOM     21  C   UNL     1       3.174   2.031  18.887  0.00  0.00    +0.000 C 
ATOM     22  C   UNL     1       3.423   2.933  20.096  0.00  0.00    +0.000 C 
ENDBRANCH  15  17
ENDBRANCH  14  15
ENDBRANCH   2  14
TORSDOF 5
ENDMDL
MODEL 8
REMARK VINA RESULT:      -5.9      5.541      7.748
REMARK  Name = 
REMARK  7 active torsions:
REMARK  status: ('A' for Active; 'I' for Inactive)
REMARK    1  A    between atoms: C_1  and  O_2
REMARK    2  A    between atoms: O_2  and  C_3
REMARK    3  A    between atoms: C_9  and  N_10
REMARK    4  A    between atoms: C_11  and  C_13
REMARK    5  A    between atoms: C_13  and  N_14
REMARK    6  A    between atoms: N_14  and  C_15
REMARK    7  A    between atoms: N_14  and  C_16
REMARK                            x       y       z     vdW  Elec       q    Type
REMARK                         _______ _______ _______ _____ _____    ______ ____
ROOT
ATOM      1  N   UNL     1       1.097   8.980  19.922  0.00  0.00    +0.000 N 
ATOM      2  C   UNL     1       1.793   8.278  18.952  0.00  0.00    +0.000 C 
ATOM      3  O   UNL     1       1.704   8.428  17.734  0.00  0.00    +0.000 OA
ATOM      4  H   UNL     1       1.183   8.632  20.875  0.00  0.00    +0.000 HD
ENDROOT
BRANCH   1  11
ATOM      5  C   UNL     1      -0.272  10.786  20.800  0.00  0.00    +0.000 A 
ATOM      6  C   UNL     1      -1.286  11.742  20.634  0.00  0.00    +0.000 A 
ATOM      7  C   UNL     1      -1.934  11.878  19.405  0.00  0.00    +0.000 A 
ATOM      8  C   UNL     1      -1.554  11.080  18.334  0.00  0.00    +0.000 A 
ATOM      9 CL   UNL     1      -2.347  11.257  16.816  0.00  0.00    +0.000 Cl
ATOM     10  C   UNL     1      -0.537  10.138  18.479  0.00  0.00    +0.000 A 
ATOM     11  C   UNL     1       0.102   9.964  19.712  0.00  0.00    +0.000 A 
BRANCH   5  13
ATOM     12  C   UNL     1      -0.360  10.039  23.059  0.00  0.00    +0.000 C 
ATOM     13  O   UNL     1       0.403  10.584  21.984  0.00  0.00    +0.000 OA
ENDBRANCH   5  13
ENDBRANCH   1  11
BRANCH   2  14
ATOM     14  C   UNL     1       2.754   7.229  19.531  0.00  0.00    +0.000 C 
BRANCH  14  15
ATOM     15  N   UNL     1       2.840   6.027  18.655  0.00  0.00    +0.000 NA
ATOM     16  C   UNL     1       3.841   6.299  17.597  0.00  0.00    +0.000 C 
BRANCH  15  17
ATOM     17  C   UNL     1       3.230   4.814  19.437  0.00  0.00    +0.000 C 
ATOM     18  C   UNL     1       2.339   4.553  20.678  0.00  0.00    +0.000 C 
ATOM     19  C   UNL     1       0.903   4.159  20.323  0.00  0.00    +0.000 C 
ATOM     20  C   UNL     1       0.848   2.983  19.349  0.00  0.00    +0.000 C 
ATOM     21  C   UNL     1       1.749   3.201  18.139  0.00  0.00    +0.000 C 
ATOM     22  C   UNL     1       3.176   3.520  18.586  0.00  0.00    +0.000 C 
ENDBRANCH  15  17
ENDBRANCH  14  15
ENDBRANCH   2  14
TORSDOF 5
ENDMDL
MODEL 9
REMARK VINA RESULT:      -5.9      5.061      6.966
REMARK  Name = 
REMARK  7 active torsions:
REMARK  status: ('A' for Active; 'I' for Inactive)
REMARK    1  A    between atoms: C_1  and  O_2
REMARK    2  A    between atoms: O_2  and  C_3
REMARK    3  A    between atoms: C_9  and  N_10
REMARK    4  A    between atoms: C_11  and  C_13
REMARK    5  A    between atoms: C_13  and  N_14
REMARK    6  A    between atoms: N_14  and  C_15
REMARK    7  A    between atoms: N_14  and  C_16
REMARK                            x       y       z     vdW  Elec       q    Type
REMARK                         _______ _______ _______ _____ _____    ______ ____
ROOT
ATOM      1  N   UNL     1       2.276   6.759  20.086  0.00  0.00    +0.000 N 
ATOM      2  C   UNL     1       1.843   8.050  19.838  0.00  0.00    +0.000 C 
ATOM      3  O   UNL     1       1.667   8.564  18.733  0.00  0.00    +0.000 OA
ATOM      4  H   UNL     1       2.505   6.541  21.054  0.00  0.00    +0.000 HD
ENDROOT
BRANCH   1  11
ATOM      5  C   UNL     1       2.053   4.515  19.179  0.00  0.00    +0.000 A 
ATOM      6  C   UNL     1       2.446   3.520  18.270  0.00  0.00    +0.000 A 
ATOM      7  C   UNL     1       3.440   3.780  17.325  0.00  0.00    +0.000 A 
ATOM      8  C   UNL     1       4.025   5.038  17.268  0.00  0.00    +0.000 A 
ATOM      9 CL   UNL     1       5.243   5.359  16.095  0.00  0.00    +0.000 Cl
ATOM     10  C   UNL     1       3.633   6.041  18.153  0.00  0.00    +0.000 A 
ATOM     11  C   UNL     1       2.661   5.790  19.129  0.00  0.00    +0.000 A 
BRANCH   5  13
ATOM     12  C   UNL     1       1.279   3.218  21.019  0.00  0.00    +0.000 C 
ATOM     13  O   UNL     1       1.090   4.330  20.146  0.00  0.00    +0.000 OA
ENDBRANCH   5  13
ENDBRANCH   1  11
BRANCH   2  14
ATOM     14  C   UNL     1       1.573   8.859  21.115  0.00  0.00    +0.000 C 
BRANCH  14  15
ATOM     15  N   UNL     1       0.218   9.479  21.091  0.00  0.00    +0.000 NA
ATOM     16  C   UNL     1      -0.635   8.757  22.063  0.00  0.00    +0.000 C 
BRANCH  15  17
ATOM     17  C   UNL     1       0.282  10.932  21.438  0.00  0.00    +0.000 C 
ATOM     18  C   UNL     1       1.252  11.748  20.546  0.00  0.00    +0.000 C 
ATOM     19  C   UNL     1       0.786  11.868  19.092  0.00  0.00    +0.000 C 
ATOM     20  C   UNL     1      -0.642  12.400  18.983  0.00  0.00    +0.000 C 
ATOM     21  C   UNL     1      -1.607  11.636  19.883  0.00  0.00    +0.000 C 
ATOM     22  C   UNL     1      -1.098  11.628  21.325  0.00  0.00    +0.000 C 
ENDBRANCH  15  17
ENDBRANCH  14  15
ENDBRANCH   2  14
TORSDOF 5
ENDMDL
