MODEL 1
REMARK VINA RESULT:      -8.3      0.000      0.000
REMARK  Name = 
REMARK  4 active torsions:
REMARK  status: ('A' for Active; 'I' for Inactive)
REMARK    1  A    between atoms: N_1  and  C_2
REMARK    2  A    between atoms: C_9  and  C_10
REMARK    3  A    between atoms: C_19  and  C_20
REMARK    4  A    between atoms: C_20  and  O_22
REMARK                            x       y       z     vdW  Elec       q    Type
REMARK                         _______ _______ _______ _____ _____    ______ ____
ROOT
ATOM      1  C   UNL     1      -0.146  10.440  21.157  0.00  0.00    +0.000 C 
ATOM      2  C   UNL     1      -0.632   9.029  21.468  0.00  0.00    +0.000 C 
ATOM      3  C   UNL     1       0.589   8.165  21.153  0.00  0.00    +0.000 C 
ATOM      4  N   UNL     1       1.228   8.844  20.033  0.00  0.00    +0.000 N 
ATOM      5  C   UNL     1       2.092   8.233  19.132  0.00  0.00    +0.000 A 
ATOM      6  N   UNL     1       2.328   6.947  19.232  0.00  0.00    +0.000 NA
ATOM      7  C   UNL     1       3.160   6.316  18.315  0.00  0.00    +0.000 A 
ATOM      8  C   UNL     1       3.353   4.970  18.394  0.00  0.00    +0.000 A 
ATOM      9  C   UNL     1       4.218   4.301  17.430  0.00  0.00    +0.000 A 
ATOM     10  C   UNL     1       4.854   4.968  16.453  0.00  0.00    +0.000 A 
ATOM     11  C   UNL     1       4.660   6.432  16.366  0.00  0.00    +0.000 A 
ATOM     12  O   UNL     1       5.249   7.050  15.472  0.00  0.00    +0.000 OA
ATOM     13  N   UNL     1       3.814   7.022  17.299  0.00  0.00    +0.000 N 
ATOM     14  C   UNL     1       3.570   8.376  17.228  0.00  0.00    +0.000 A 
ATOM     15  C   UNL     1       2.756   9.014  18.054  0.00  0.00    +0.000 A 
ATOM     16  F   UNL     1       2.532  10.335  17.952  0.00  0.00    +0.000 F 
ATOM     17  C   UNL     1       0.772  10.230  19.939  0.00  0.00    +0.000 C 
ENDROOT
BRANCH   8  18
ATOM     18  C   UNL     1       2.663   4.188  19.443  0.00  0.00    +0.000 A 
ATOM     19  C   UNL     1       3.253   4.016  20.704  0.00  0.00    +0.000 A 
ATOM     20  C   UNL     1       2.581   3.301  21.697  0.00  0.00    +0.000 A 
ATOM     21  C   UNL     1       1.330   2.753  21.427  0.00  0.00    +0.000 A 
ATOM     22  F   UNL     1       0.682   2.084  22.391  0.00  0.00    +0.000 F 
ATOM     23  C   UNL     1       0.743   2.886  20.177  0.00  0.00    +0.000 A 
ATOM     24  C   UNL     1       1.416   3.600  19.192  0.00  0.00    +0.000 A 
ATOM     25  F   UNL     1       0.849   3.712  17.980  0.00  0.00    +0.000 F 
ENDBRANCH   8  18
BRANCH   1  26
ATOM     26  N   UNL     1      -1.237  11.385  20.925  0.00  0.00    +0.000 NA
ATOM     27  H   UNL     1      -0.989  12.025  20.171  0.00  0.00    +0.000 HD
ATOM     28  H   UNL     1      -1.372  11.970  21.751  0.00  0.00    +0.000 HD
ENDBRANCH   1  26
BRANCH  10  29
ATOM     29  C   UNL     1       5.704   4.213  15.504  0.00  0.00    +0.000 C 
ATOM     30  O   UNL     1       5.418   4.067  14.323  0.00  0.00    +0.000 OA
BRANCH  29  31
ATOM     31  O   UNL     1       6.828   3.687  16.035  0.00  0.00    +0.000 OA
ATOM     32  H   UNL     1       7.633   4.252  15.939  0.00  0.00    +0.000 HD
ENDBRANCH  29  31
ENDBRANCH  10  29
TORSDOF 4
ENDMDL
MODEL 2
REMARK VINA RESULT:      -8.0      0.948      1.370
REMARK  Name = 
REMARK  4 active torsions:
REMARK  status: ('A' for Active; 'I' for Inactive)
REMARK    1  A    between atoms: N_1  and  C_2
REMARK    2  A    between atoms: C_9  and  C_10
REMARK    3  A    between atoms: C_19  and  C_20
REMARK    4  A    between atoms: C_20  and  O_22
REMARK                            x       y       z     vdW  Elec       q    Type
REMARK                         _______ _______ _______ _____ _____    ______ ____
ROOT
ATOM      1  C   UNL     1      -0.009  10.268  21.233  0.00  0.00    +0.000 C 
ATOM      2  C   UNL     1      -0.448   8.846  21.565  0.00  0.00    +0.000 C 
ATOM      3  C   UNL     1       0.777   8.010  21.194  0.00  0.00    +0.000 C 
ATOM      4  N   UNL     1       1.348   8.703  20.046  0.00  0.00    +0.000 N 
ATOM      5  C   UNL     1       2.183   8.112  19.106  0.00  0.00    +0.000 A 
ATOM      6  N   UNL     1       2.453   6.832  19.194  0.00  0.00    +0.000 NA
ATOM      7  C   UNL     1       3.257   6.219  18.240  0.00  0.00    +0.000 A 
ATOM      8  C   UNL     1       3.484   4.878  18.309  0.00  0.00    +0.000 A 
ATOM      9  C   UNL     1       4.319   4.229  17.306  0.00  0.00    +0.000 A 
ATOM     10  C   UNL     1       4.893   4.910  16.301  0.00  0.00    +0.000 A 
ATOM     11  C   UNL     1       4.662   6.369  16.224  0.00  0.00    +0.000 A 
ATOM     12  O   UNL     1       5.195   7.000  15.304  0.00  0.00    +0.000 OA
ATOM     13  N   UNL     1       3.847   6.940  17.195  0.00  0.00    +0.000 N 
ATOM     14  C   UNL     1       3.569   8.288  17.136  0.00  0.00    +0.000 A 
ATOM     15  C   UNL     1       2.779   8.907  17.999  0.00  0.00    +0.000 A 
ATOM     16  F   UNL     1       2.520  10.223  17.908  0.00  0.00    +0.000 F 
ATOM     17  C   UNL     1       0.856  10.078  19.974  0.00  0.00    +0.000 C 
ENDROOT
BRANCH   8  18
ATOM     18  C   UNL     1       2.861   4.081  19.389  0.00  0.00    +0.000 A 
ATOM     19  C   UNL     1       1.476   4.134  19.603  0.00  0.00    +0.000 A 
ATOM     20  C   UNL     1       0.895   3.356  20.606  0.00  0.00    +0.000 A 
ATOM     21  C   UNL     1       1.696   2.537  21.396  0.00  0.00    +0.000 A 
ATOM     22  F   UNL     1       1.129   1.779  22.344  0.00  0.00    +0.000 F 
ATOM     23  C   UNL     1       3.072   2.494  21.220  0.00  0.00    +0.000 A 
ATOM     24  C   UNL     1       3.646   3.270  20.219  0.00  0.00    +0.000 A 
ATOM     25  F   UNL     1       4.979   3.235  20.065  0.00  0.00    +0.000 F 
ENDBRANCH   8  18
BRANCH   1  26
ATOM     26  N   UNL     1      -1.131  11.187  21.053  0.00  0.00    +0.000 NA
ATOM     27  H   UNL     1      -1.669  11.254  21.917  0.00  0.00    +0.000 HD
ATOM     28  H   UNL     1      -1.776  10.817  20.354  0.00  0.00    +0.000 HD
ENDBRANCH   1  26
BRANCH  10  29
ATOM     29  C   UNL     1       5.716   4.175  15.314  0.00  0.00    +0.000 C 
ATOM     30  O   UNL     1       6.759   3.603  15.607  0.00  0.00    +0.000 OA
BRANCH  29  31
ATOM     31  O   UNL     1       5.238   4.179  14.051  0.00  0.00    +0.000 OA
ATOM     32  H   UNL     1       4.279   3.955  13.974  0.00  0.00    +0.000 HD
ENDBRANCH  29  31
ENDBRANCH  10  29
TORSDOF 4
ENDMDL
MODEL 3
REMARK VINA RESULT:      -6.9      7.250     10.144
REMARK  Name = 
REMARK  4 active torsions:
REMARK  status: ('A' for Active; 'I' for Inactive)
REMARK    1  A    between atoms: N_1  and  C_2
REMARK    2  A    between atoms: C_9  and  C_10
REMARK    3  A    between atoms: C_19  and  C_20
REMARK    4  A    between atoms: C_20  and  O_22
REMARK                            x       y       z     vdW  Elec       q    Type
REMARK                         _______ _______ _______ _____ _____    ______ ____
ROOT
ATOM      1  C   UNL     1       4.358  16.198  21.044  0.00  0.00    +0.000 C 
ATOM      2  C   UNL     1       4.490  14.682  20.954  0.00  0.00    +0.000 C 
ATOM      3  C   UNL     1       3.038  14.215  20.839  0.00  0.00    +0.000 C 
ATOM      4  N   UNL     1       2.292  15.169  21.650  0.00  0.00    +0.000 N 
ATOM      5  C   UNL     1       1.041  14.921  22.203  0.00  0.00    +0.000 A 
ATOM      6  N   UNL     1       0.490  13.741  22.055  0.00  0.00    +0.000 NA
ATOM      7  C   UNL     1      -0.743  13.467  22.634  0.00  0.00    +0.000 A 
ATOM      8  C   UNL     1      -1.280  12.221  22.523  0.00  0.00    +0.000 A 
ATOM      9  C   UNL     1      -2.569  11.926  23.136  0.00  0.00    +0.000 A 
ATOM     10  C   UNL     1      -3.269  12.850  23.813  0.00  0.00    +0.000 A 
ATOM     11  C   UNL     1      -2.700  14.210  23.931  0.00  0.00    +0.000 A 
ATOM     12  O   UNL     1      -3.346  15.065  24.548  0.00  0.00    +0.000 OA
ATOM     13  N   UNL     1      -1.461  14.439  23.341  0.00  0.00    +0.000 N 
ATOM     14  C   UNL     1      -0.874  15.679  23.464  0.00  0.00    +0.000 A 
ATOM     15  C   UNL     1       0.315  15.974  22.962  0.00  0.00    +0.000 A 
ATOM     16  F   UNL     1       0.865  17.192  23.108  0.00  0.00    +0.000 F 
ATOM     17  C   UNL     1       3.071  16.386  21.867  0.00  0.00    +0.000 C 
ENDROOT
BRANCH   8  18
ATOM     18  C   UNL     1      -0.540  11.164  21.799  0.00  0.00    +0.000 A 
ATOM     19  C   UNL     1      -0.420  11.209  20.402  0.00  0.00    +0.000 A 
ATOM     20  C   UNL     1       0.304  10.223  19.731  0.00  0.00    +0.000 A 
ATOM     21  C   UNL     1       0.897   9.190  20.452  0.00  0.00    +0.000 A 
ATOM     22  F   UNL     1       1.607   8.258  19.804  0.00  0.00    +0.000 F 
ATOM     23  C   UNL     1       0.765   9.111  21.831  0.00  0.00    +0.000 A 
ATOM     24  C   UNL     1       0.043  10.096  22.495  0.00  0.00    +0.000 A 
ATOM     25  F   UNL     1      -0.094  10.004  23.828  0.00  0.00    +0.000 F 
ENDBRANCH   8  18
BRANCH   1  26
ATOM     26  N   UNL     1       5.536  16.842  21.623  0.00  0.00    +0.000 NA
ATOM     27  H   UNL     1       5.366  17.842  21.736  0.00  0.00    +0.000 HD
ATOM     28  H   UNL     1       6.326  16.768  20.979  0.00  0.00    +0.000 HD
ENDBRANCH   1  26
BRANCH  10  29
ATOM     29  C   UNL     1      -4.565  12.467  24.420  0.00  0.00    +0.000 C 
ATOM     30  O   UNL     1      -5.553  12.177  23.756  0.00  0.00    +0.000 OA
BRANCH  29  31
ATOM     31  O   UNL     1      -4.587  12.462  25.770  0.00  0.00    +0.000 OA
ATOM     32  H   UNL     1      -4.049  11.747  26.188  0.00  0.00    +0.000 HD
ENDBRANCH  29  31
ENDBRANCH  10  29
TORSDOF 4
ENDMDL
MODEL 4
REMARK VINA RESULT:      -6.9      3.354      5.463
REMARK  Name = 
REMARK  4 active torsions:
REMARK  status: ('A' for Active; 'I' for Inactive)
REMARK    1  A    between atoms: N_1  and  C_2
REMARK    2  A    between atoms: C_9  and  C_10
REMARK    3  A    between atoms: C_19  and  C_20
REMARK    4  A    between atoms: C_20  and  O_22
REMARK                            x       y       z     vdW  Elec       q    Type
REMARK                         _______ _______ _______ _____ _____    ______ ____
ROOT
ATOM      1  C   UNL     1       1.037   9.970  18.491  0.00  0.00    +0.000 C 
ATOM      2  C   UNL     1       2.328   9.871  17.686  0.00  0.00    +0.000 C 
ATOM      3  C   UNL     1       2.541   8.362  17.558  0.00  0.00    +0.000 C 
ATOM      4  N   UNL     1       2.029   7.822  18.811  0.00  0.00    +0.000 N 
ATOM      5  C   UNL     1       2.392   6.591  19.343  0.00  0.00    +0.000 A 
ATOM      6  N   UNL     1       3.297   5.864  18.734  0.00  0.00    +0.000 NA
ATOM      7  C   UNL     1       3.697   4.648  19.275  0.00  0.00    +0.000 A 
ATOM      8  C   UNL     1       4.678   3.928  18.665  0.00  0.00    +0.000 A 
ATOM      9  C   UNL     1       5.108   2.655  19.232  0.00  0.00    +0.000 A 
ATOM     10  C   UNL     1       4.562   2.147  20.349  0.00  0.00    +0.000 A 
ATOM     11  C   UNL     1       3.487   2.917  21.014  0.00  0.00    +0.000 A 
ATOM     12  O   UNL     1       2.977   2.448  22.038  0.00  0.00    +0.000 OA
ATOM     13  N   UNL     1       3.122   4.131  20.442  0.00  0.00    +0.000 N 
ATOM     14  C   UNL     1       2.156   4.901  21.052  0.00  0.00    +0.000 A 
ATOM     15  C   UNL     1       1.770   6.082  20.596  0.00  0.00    +0.000 A 
ATOM     16  F   UNL     1       0.832   6.814  21.220  0.00  0.00    +0.000 F 
ATOM     17  C   UNL     1       1.147   8.785  19.469  0.00  0.00    +0.000 C 
ENDROOT
BRANCH   8  18
ATOM     18  C   UNL     1       5.322   4.452  17.440  0.00  0.00    +0.000 A 
ATOM     19  C   UNL     1       4.856   4.069  16.173  0.00  0.00    +0.000 A 
ATOM     20  C   UNL     1       5.451   4.592  15.024  0.00  0.00    +0.000 A 
ATOM     21  C   UNL     1       6.513   5.484  15.141  0.00  0.00    +0.000 A 
ATOM     22  F   UNL     1       7.067   5.997  14.033  0.00  0.00    +0.000 F 
ATOM     23  C   UNL     1       7.007   5.852  16.384  0.00  0.00    +0.000 A 
ATOM     24  C   UNL     1       6.411   5.330  17.526  0.00  0.00    +0.000 A 
ATOM     25  F   UNL     1       6.905   5.678  18.725  0.00  0.00    +0.000 F 
ENDBRANCH   8  18
BRANCH   1  26
ATOM     26  N   UNL     1       0.866  11.267  19.144  0.00  0.00    +0.000 NA
ATOM     27  H   UNL     1       1.110  11.195  20.131  0.00  0.00    +0.000 HD
ATOM     28  H   UNL     1      -0.117  11.542  19.121  0.00  0.00    +0.000 HD
ENDBRANCH   1  26
BRANCH  10  29
ATOM     29  C   UNL     1       5.064   0.856  20.870  0.00  0.00    +0.000 C 
ATOM     30  O   UNL     1       5.306   0.663  22.055  0.00  0.00    +0.000 OA
BRANCH  29  31
ATOM     31  O   UNL     1       5.244  -0.107  19.941  0.00  0.00    +0.000 OA
ATOM     32  H   UNL     1       4.495  -0.746  19.860  0.00  0.00    +0.000 HD
ENDBRANCH  29  31
ENDBRANCH  10  29
TORSDOF 4
ENDMDL
MODEL 5
REMARK VINA RESULT:      -6.9      3.194      5.283
REMARK  Name = 
REMARK  4 active torsions:
REMARK  status: ('A' for Active; 'I' for Inactive)
REMARK    1  A    between atoms: N_1  and  C_2
REMARK    2  A    between atoms: C_9  and  C_10
REMARK    3  A    between atoms: C_19  and  C_20
REMARK    4  A    between atoms: C_20  and  O_22
REMARK                            x       y       z     vdW  Elec       q    Type
REMARK                         _______ _______ _______ _____ _____    ______ ____
ROOT
ATOM      1  C   UNL     1       0.981  10.002  18.596  0.00  0.00    +0.000 C 
ATOM      2  C   UNL     1       2.273   9.931  17.791  0.00  0.00    +0.000 C 
ATOM      3  C   UNL     1       2.505   8.428  17.640  0.00  0.00    +0.000 C 
ATOM      4  N   UNL     1       1.999   7.862  18.883  0.00  0.00    +0.000 N 
ATOM      5  C   UNL     1       2.376   6.627  19.397  0.00  0.00    +0.000 A 
ATOM      6  N   UNL     1       3.290   5.921  18.778  0.00  0.00    +0.000 NA
ATOM      7  C   UNL     1       3.705   4.701  19.300  0.00  0.00    +0.000 A 
ATOM      8  C   UNL     1       4.696   4.003  18.680  0.00  0.00    +0.000 A 
ATOM      9  C   UNL     1       5.140   2.728  19.228  0.00  0.00    +0.000 A 
ATOM     10  C   UNL     1       4.599   2.196  20.336  0.00  0.00    +0.000 A 
ATOM     11  C   UNL     1       3.514   2.941  21.011  0.00  0.00    +0.000 A 
ATOM     12  O   UNL     1       3.010   2.451  22.027  0.00  0.00    +0.000 OA
ATOM     13  N   UNL     1       3.135   4.160  20.458  0.00  0.00    +0.000 N 
ATOM     14  C   UNL     1       2.159   4.908  21.079  0.00  0.00    +0.000 A 
ATOM     15  C   UNL     1       1.760   6.092  20.640  0.00  0.00    +0.000 A 
ATOM     16  F   UNL     1       0.811   6.802  21.275  0.00  0.00    +0.000 F 
ATOM     17  C   UNL     1       1.104   8.804  19.555  0.00  0.00    +0.000 C 
ENDROOT
BRANCH   8  18
ATOM     18  C   UNL     1       5.334   4.554  17.464  0.00  0.00    +0.000 A 
ATOM     19  C   UNL     1       6.487   5.347  17.564  0.00  0.00    +0.000 A 
ATOM     20  C   UNL     1       7.098   5.837  16.409  0.00  0.00    +0.000 A 
ATOM     21  C   UNL     1       6.553   5.546  15.161  0.00  0.00    +0.000 A 
ATOM     22  F   UNL     1       7.156   6.004  14.056  0.00  0.00    +0.000 F 
ATOM     23  C   UNL     1       5.396   4.789  15.044  0.00  0.00    +0.000 A 
ATOM     24  C   UNL     1       4.792   4.301  16.196  0.00  0.00    +0.000 A 
ATOM     25  F   UNL     1       3.664   3.583  16.075  0.00  0.00    +0.000 F 
ENDBRANCH   8  18
BRANCH   1  26
ATOM     26  N   UNL     1       0.793  11.287  19.268  0.00  0.00    +0.000 NA
ATOM     27  H   UNL     1       1.591  11.483  19.873  0.00  0.00    +0.000 HD
ATOM     28  H   UNL     1      -0.018  11.242  19.886  0.00  0.00    +0.000 HD
ENDBRANCH   1  26
BRANCH  10  29
ATOM     29  C   UNL     1       5.117   0.902  20.838  0.00  0.00    +0.000 C 
ATOM     30  O   UNL     1       5.452   0.724  22.002  0.00  0.00    +0.000 OA
BRANCH  29  31
ATOM     31  O   UNL     1       5.200  -0.080  19.914  0.00  0.00    +0.000 OA
ATOM     32  H   UNL     1       4.751   0.122  19.058  0.00  0.00    +0.000 HD
ENDBRANCH  29  31
ENDBRANCH  10  29
TORSDOF 4
ENDMDL
MODEL 6
REMARK VINA RESULT:      -6.9      7.232     10.054
REMARK  Name = 
REMARK  4 active torsions:
REMARK  status: ('A' for Active; 'I' for Inactive)
REMARK    1  A    between atoms: N_1  and  C_2
REMARK    2  A    between atoms: C_9  and  C_10
REMARK    3  A    between atoms: C_19  and  C_20
REMARK    4  A    between atoms: C_20  and  O_22
REMARK                            x       y       z     vdW  Elec       q    Type
REMARK                         _______ _______ _______ _____ _____    ______ ____
ROOT
ATOM      1  C   UNL     1       4.362  16.079  21.041  0.00  0.00    +0.000 C 
ATOM      2  C   UNL     1       4.515  14.562  21.065  0.00  0.00    +0.000 C 
ATOM      3  C   UNL     1       3.074  14.067  20.935  0.00  0.00    +0.000 C 
ATOM      4  N   UNL     1       2.288  15.065  21.649  0.00  0.00    +0.000 N 
ATOM      5  C   UNL     1       1.022  14.840  22.175  0.00  0.00    +0.000 A 
ATOM      6  N   UNL     1       0.491  13.645  22.095  0.00  0.00    +0.000 NA
ATOM      7  C   UNL     1      -0.759  13.395  22.650  0.00  0.00    +0.000 A 
ATOM      8  C   UNL     1      -1.276  12.136  22.611  0.00  0.00    +0.000 A 
ATOM      9  C   UNL     1      -2.582  11.867  23.199  0.00  0.00    +0.000 A 
ATOM     10  C   UNL     1      -3.317  12.827  23.784  0.00  0.00    +0.000 A 
ATOM     11  C   UNL     1      -2.769  14.201  23.822  0.00  0.00    +0.000 A 
ATOM     12  O   UNL     1      -3.446  15.088  24.353  0.00  0.00    +0.000 OA
ATOM     13  N   UNL     1      -1.513  14.405  23.259  0.00  0.00    +0.000 N 
ATOM     14  C   UNL     1      -0.945  15.659  23.312  0.00  0.00    +0.000 A 
ATOM     15  C   UNL     1       0.257  15.935  22.831  0.00  0.00    +0.000 A 
ATOM     16  F   UNL     1       0.787  17.167  22.907  0.00  0.00    +0.000 F 
ATOM     17  C   UNL     1       3.045  16.307  21.804  0.00  0.00    +0.000 C 
ENDROOT
BRANCH   8  18
ATOM     18  C   UNL     1      -0.499  11.041  21.991  0.00  0.00    +0.000 A 
ATOM     19  C   UNL     1       0.152  10.090  22.791  0.00  0.00    +0.000 A 
ATOM     20  C   UNL     1       0.859   9.043  22.196  0.00  0.00    +0.000 A 
ATOM     21  C   UNL     1       0.922   8.954  20.809  0.00  0.00    +0.000 A 
ATOM     22  F   UNL     1       1.586   7.936  20.245  0.00  0.00    +0.000 F 
ATOM     23  C   UNL     1       0.310   9.901  20.000  0.00  0.00    +0.000 A 
ATOM     24  C   UNL     1      -0.393  10.941  20.597  0.00  0.00    +0.000 A 
ATOM     25  F   UNL     1      -0.969  11.862  19.808  0.00  0.00    +0.000 F 
ENDBRANCH   8  18
BRANCH   1  26
ATOM     26  N   UNL     1       5.511  16.780  21.611  0.00  0.00    +0.000 NA
ATOM     27  H   UNL     1       6.360  16.527  21.105  0.00  0.00    +0.000 HD
ATOM     28  H   UNL     1       5.663  16.475  22.574  0.00  0.00    +0.000 HD
ENDBRANCH   1  26
BRANCH  10  29
ATOM     29  C   UNL     1      -4.628  12.470  24.372  0.00  0.00    +0.000 C 
ATOM     30  O   UNL     1      -5.621  12.234  23.695  0.00  0.00    +0.000 OA
BRANCH  29  31
ATOM     31  O   UNL     1      -4.659  12.426  25.721  0.00  0.00    +0.000 OA
ATOM     32  H   UNL     1      -3.775  12.492  26.155  0.00  0.00    +0.000 HD
ENDBRANCH  29  31
ENDBRANCH  10  29
TORSDOF 4
ENDMDL
MODEL 7
REMARK VINA RESULT:      -6.8      8.525     10.486
REMARK  Name = 
REMARK  4 active torsions:
REMARK  status: ('A' for Active; 'I' for Inactive)
REMARK    1  A    between atoms: N_1  and  C_2
REMARK    2  A    between atoms: C_9  and  C_10
REMARK    3  A    between atoms: C_19  and  C_20
REMARK    4  A    between atoms: C_20  and  O_22
REMARK                            x       y       z     vdW  Elec       q    Type
REMARK                         _______ _______ _______ _____ _____    ______ ____
ROOT
ATOM      1  C   UNL     1       2.554  14.602  19.439  0.00  0.00    +0.000 C 
ATOM      2  C   UNL     1       2.256  13.395  18.557  0.00  0.00    +0.000 C 
ATOM      3  C   UNL     1       0.736  13.447  18.402  0.00  0.00    +0.000 C 
ATOM      4  N   UNL     1       0.265  13.970  19.678  0.00  0.00    +0.000 N 
ATOM      5  C   UNL     1      -1.020  13.791  20.175  0.00  0.00    +0.000 A 
ATOM      6  N   UNL     1      -1.877  13.058  19.506  0.00  0.00    +0.000 NA
ATOM      7  C   UNL     1      -3.154  12.839  20.009  0.00  0.00    +0.000 A 
ATOM      8  C   UNL     1      -4.016  12.029  19.334  0.00  0.00    +0.000 A 
ATOM      9  C   UNL     1      -5.353  11.789  19.862  0.00  0.00    +0.000 A 
ATOM     10  C   UNL     1      -5.785  12.349  21.005  0.00  0.00    +0.000 A 
ATOM     11  C   UNL     1      -4.859  13.239  21.740  0.00  0.00    +0.000 A 
ATOM     12  O   UNL     1      -5.256  13.761  22.788  0.00  0.00    +0.000 OA
ATOM     13  N   UNL     1      -3.590  13.425  21.203  0.00  0.00    +0.000 N 
ATOM     14  C   UNL     1      -2.681  14.211  21.878  0.00  0.00    +0.000 A 
ATOM     15  C   UNL     1      -1.442  14.417  21.457  0.00  0.00    +0.000 A 
ATOM     16  F   UNL     1      -0.576  15.181  22.143  0.00  0.00    +0.000 F 
ATOM     17  C   UNL     1       1.349  14.638  20.396  0.00  0.00    +0.000 C 
ENDROOT
BRANCH   8  18
ATOM     18  C   UNL     1      -3.583  11.378  18.079  0.00  0.00    +0.000 A 
ATOM     19  C   UNL     1      -2.486  10.504  18.073  0.00  0.00    +0.000 A 
ATOM     20  C   UNL     1      -2.104   9.871  16.889  0.00  0.00    +0.000 A 
ATOM     21  C   UNL     1      -2.809  10.119  15.715  0.00  0.00    +0.000 A 
ATOM     22  F   UNL     1      -2.448   9.494  14.586  0.00  0.00    +0.000 F 
ATOM     23  C   UNL     1      -3.878  11.004  15.693  0.00  0.00    +0.000 A 
ATOM     24  C   UNL     1      -4.256  11.630  16.875  0.00  0.00    +0.000 A 
ATOM     25  F   UNL     1      -5.281  12.496  16.843  0.00  0.00    +0.000 F 
ENDBRANCH   8  18
BRANCH   1  26
ATOM     26  N   UNL     1       3.848  14.514  20.114  0.00  0.00    +0.000 NA
ATOM     27  H   UNL     1       4.114  15.429  20.477  0.00  0.00    +0.000 HD
ATOM     28  H   UNL     1       4.575  14.262  19.442  0.00  0.00    +0.000 HD
ENDBRANCH   1  26
BRANCH  10  29
ATOM     29  C   UNL     1      -7.152  12.043  21.482  0.00  0.00    +0.000 C 
ATOM     30  O   UNL     1      -7.599  10.904  21.542  0.00  0.00    +0.000 OA
BRANCH  29  31
ATOM     31  O   UNL     1      -7.886  13.116  21.847  0.00  0.00    +0.000 OA
ATOM     32  H   UNL     1      -7.415  13.756  22.434  0.00  0.00    +0.000 HD
ENDBRANCH  29  31
ENDBRANCH  10  29
TORSDOF 4
ENDMDL
MODEL 8
REMARK VINA RESULT:      -6.7      7.190      9.896
REMARK  Name = 
REMARK  4 active torsions:
REMARK  status: ('A' for Active; 'I' for Inactive)
REMARK    1  A    between atoms: N_1  and  C_2
REMARK    2  A    between atoms: C_9  and  C_10
REMARK    3  A    between atoms: C_19  and  C_20
REMARK    4  A    between atoms: C_20  and  O_22
REMARK                            x       y       z     vdW  Elec       q    Type
REMARK                         _______ _______ _______ _____ _____    ______ ____
ROOT
ATOM      1  C   UNL     1       3.289  16.134  19.015  0.00  0.00    +0.000 C 
ATOM      2  C   UNL     1       3.660  14.687  19.321  0.00  0.00    +0.000 C 
ATOM      3  C   UNL     1       2.304  14.025  19.562  0.00  0.00    +0.000 C 
ATOM      4  N   UNL     1       1.503  15.069  20.188  0.00  0.00    +0.000 N 
ATOM      5  C   UNL     1       0.380  14.835  20.973  0.00  0.00    +0.000 A 
ATOM      6  N   UNL     1       0.021  13.603  21.237  0.00  0.00    +0.000 NA
ATOM      7  C   UNL     1      -1.077  13.354  22.052  0.00  0.00    +0.000 A 
ATOM      8  C   UNL     1      -1.407  12.071  22.367  0.00  0.00    +0.000 A 
ATOM      9  C   UNL     1      -2.553  11.804  23.227  0.00  0.00    +0.000 A 
ATOM     10  C   UNL     1      -3.319  12.788  23.728  0.00  0.00    +0.000 A 
ATOM     11  C   UNL     1      -2.975  14.185  23.383  0.00  0.00    +0.000 A 
ATOM     12  O   UNL     1      -3.682  15.092  23.836  0.00  0.00    +0.000 OA
ATOM     13  N   UNL     1      -1.865  14.388  22.570  0.00  0.00    +0.000 N 
ATOM     14  C   UNL     1      -1.483  15.675  22.260  0.00  0.00    +0.000 A 
ATOM     15  C   UNL     1      -0.423  15.962  21.520  0.00  0.00    +0.000 A 
ATOM     16  F   UNL     1      -0.071  17.229  21.243  0.00  0.00    +0.000 F 
ATOM     17  C   UNL     1       2.087  16.387  19.944  0.00  0.00    +0.000 C 
ENDROOT
BRANCH   8  18
ATOM     18  C   UNL     1      -0.587  10.952  21.852  0.00  0.00    +0.000 A 
ATOM     19  C   UNL     1       0.238  10.219  22.718  0.00  0.00    +0.000 A 
ATOM     20  C   UNL     1       0.986   9.147  22.228  0.00  0.00    +0.000 A 
ATOM     21  C   UNL     1       0.918   8.817  20.878  0.00  0.00    +0.000 A 
ATOM     22  F   UNL     1       1.624   7.775  20.418  0.00  0.00    +0.000 F 
ATOM     23  C   UNL     1       0.132   9.549  19.999  0.00  0.00    +0.000 A 
ATOM     24  C   UNL     1      -0.613  10.615  20.492  0.00  0.00    +0.000 A 
ATOM     25  F   UNL     1      -1.359  11.328  19.634  0.00  0.00    +0.000 F 
ENDBRANCH   8  18
BRANCH   1  26
ATOM     26  N   UNL     1       4.399  17.065  19.209  0.00  0.00    +0.000 NA
ATOM     27  H   UNL     1       4.486  17.677  18.397  0.00  0.00    +0.000 HD
ATOM     28  H   UNL     1       5.280  16.551  19.262  0.00  0.00    +0.000 HD
ENDBRANCH   1  26
BRANCH  10  29
ATOM     29  C   UNL     1      -4.457  12.435  24.607  0.00  0.00    +0.000 C 
ATOM     30  O   UNL     1      -5.522  12.007  24.181  0.00  0.00    +0.000 OA
BRANCH  29  31
ATOM     31  O   UNL     1      -4.242  12.623  25.927  0.00  0.00    +0.000 OA
ATOM     32  H   UNL     1      -4.283  13.564  26.221  0.00  0.00    +0.000 HD
ENDBRANCH  29  31
ENDBRANCH  10  29
TORSDOF 4
ENDMDL
MODEL 9
REMARK VINA RESULT:      -6.6      7.920     10.439
REMARK  Name = 
REMARK  4 active torsions:
REMARK  status: ('A' for Active; 'I' for Inactive)
REMARK    1  A    between atoms: N_1  and  C_2
REMARK    2  A    between atoms: C_9  and  C_10
REMARK    3  A    between atoms: C_19  and  C_20
REMARK    4  A    between atoms: C_20  and  O_22
REMARK                            x       y       z     vdW  Elec       q    Type
REMARK                         _______ _______ _______ _____ _____    ______ ____
ROOT
ATOM      1  C   UNL     1      -3.747  10.062  15.757  0.00  0.00    +0.000 C 
ATOM      2  C   UNL     1      -2.361   9.822  16.347  0.00  0.00    +0.000 C 
ATOM      3  C   UNL     1      -2.580  10.038  17.844  0.00  0.00    +0.000 C 
ATOM      4  N   UNL     1      -3.594  11.083  17.909  0.00  0.00    +0.000 N 
ATOM      5  C   UNL     1      -3.801  11.911  19.006  0.00  0.00    +0.000 A 
ATOM      6  N   UNL     1      -3.013  11.813  20.049  0.00  0.00    +0.000 NA
ATOM      7  C   UNL     1      -3.184  12.660  21.137  0.00  0.00    +0.000 A 
ATOM      8  C   UNL     1      -2.324  12.588  22.190  0.00  0.00    +0.000 A 
ATOM      9  C   UNL     1      -2.495  13.480  23.331  0.00  0.00    +0.000 A 
ATOM     10  C   UNL     1      -3.487  14.382  23.394  0.00  0.00    +0.000 A 
ATOM     11  C   UNL     1      -4.434  14.461  22.260  0.00  0.00    +0.000 A 
ATOM     12  O   UNL     1      -5.352  15.285  22.318  0.00  0.00    +0.000 OA
ATOM     13  N   UNL     1      -4.221  13.599  21.189  0.00  0.00    +0.000 N 
ATOM     14  C   UNL     1      -5.052  13.668  20.092  0.00  0.00    +0.000 A 
ATOM     15  C   UNL     1      -4.904  12.909  19.017  0.00  0.00    +0.000 A 
ATOM     16  F   UNL     1      -5.727  13.008  17.959  0.00  0.00    +0.000 F 
ATOM     17  C   UNL     1      -4.307  11.194  16.637  0.00  0.00    +0.000 C 
ENDROOT
BRANCH   8  18
ATOM     18  C   UNL     1      -1.206  11.621  22.162  0.00  0.00    +0.000 A 
ATOM     19  C   UNL     1      -1.175  10.543  23.059  0.00  0.00    +0.000 A 
ATOM     20  C   UNL     1      -0.130   9.619  23.005  0.00  0.00    +0.000 A 
ATOM     21  C   UNL     1       0.884   9.778  22.065  0.00  0.00    +0.000 A 
ATOM     22  F   UNL     1       1.874   8.877  22.007  0.00  0.00    +0.000 F 
ATOM     23  C   UNL     1       0.888  10.854  21.189  0.00  0.00    +0.000 A 
ATOM     24  C   UNL     1      -0.156  11.771  21.246  0.00  0.00    +0.000 A 
ATOM     25  F   UNL     1      -0.137  12.818  20.406  0.00  0.00    +0.000 F 
ENDBRANCH   8  18
BRANCH   1  26
ATOM     26  N   UNL     1      -3.716  10.376  14.329  0.00  0.00    +0.000 NA
ATOM     27  H   UNL     1      -2.753  10.376  13.994  0.00  0.00    +0.000 HD
ATOM     28  H   UNL     1      -4.064  11.323  14.173  0.00  0.00    +0.000 HD
ENDBRANCH   1  26
BRANCH  10  29
ATOM     29  C   UNL     1      -3.583  15.262  24.581  0.00  0.00    +0.000 C 
ATOM     30  O   UNL     1      -2.603  15.659  25.199  0.00  0.00    +0.000 OA
BRANCH  29  31
ATOM     31  O   UNL     1      -4.839  15.599  24.946  0.00  0.00    +0.000 OA
ATOM     32  H   UNL     1      -5.456  15.761  24.192  0.00  0.00    +0.000 HD
ENDBRANCH  29  31
ENDBRANCH  10  29
TORSDOF 4
ENDMDL
