MODEL 1
REMARK VINA RESULT:      -7.8      0.000      0.000
REMARK  Name = 
REMARK  5 active torsions:
REMARK  status: ('A' for Active; 'I' for Inactive)
REMARK    1  A    between atoms: C_2  and  C_24
REMARK    2  A    between atoms: N_3  and  C_4
REMARK    3  A    between atoms: N_8  and  C_9
REMARK    4  A    between atoms: C_12  and  O_13
REMARK    5  A    between atoms: O_13  and  C_14
REMARK                            x       y       z     vdW  Elec       q    Type
REMARK                         _______ _______ _______ _____ _____    ______ ____
ROOT
ATOM      1  C   UNL     1       0.720  11.532  20.426  0.00  0.00    +0.000 C 
ATOM      2  C   UNL     1       0.722  11.335  18.898  0.00  0.00    +0.000 C 
ATOM      3  C   UNL     1       0.687   9.830  18.668  0.00  0.00    +0.000 C 
ATOM      4  C   UNL     1       1.834   9.227  17.872  0.00  0.00    +0.000 C 
ATOM      5  N   UNL     1       2.089   7.968  18.547  0.00  0.00    +0.000 N 
ATOM      6  C   UNL     1       1.597   8.047  19.875  0.00  0.00    +0.000 C 
ATOM      7  O   UNL     1       1.874   7.343  20.835  0.00  0.00    +0.000 OA
ATOM      8  N   UNL     1       0.807   9.212  19.960  0.00  0.00    +0.000 N 
ATOM      9  C   UNL     1       1.074  10.160  21.017  0.00  0.00    +0.000 C 
ENDROOT
BRANCH   5  10
ATOM     10  C   UNL     1       3.032   7.021  18.071  0.00  0.00    +0.000 A 
ATOM     11  C   UNL     1       4.314   7.403  17.661  0.00  0.00    +0.000 A 
ATOM     12  C   UNL     1       5.217   6.458  17.153  0.00  0.00    +0.000 A 
ATOM     13  C   UNL     1       4.861   5.113  17.050  0.00  0.00    +0.000 A 
ATOM     14  C   UNL     1       3.585   4.727  17.443  0.00  0.00    +0.000 A 
ATOM     15  C   UNL     1       2.696   5.664  17.983  0.00  0.00    +0.000 A 
BRANCH  13  16
ATOM     16  O   UNL     1       5.804   4.305  16.499  0.00  0.00    +0.000 OA
BRANCH  16  17
ATOM     17  C   UNL     1       6.099   4.406  15.113  0.00  0.00    +0.000 C 
ATOM     18  F   UNL     1       6.192   3.224  14.467  0.00  0.00    +0.000 F 
ATOM     19  F   UNL     1       5.145   5.149  14.510  0.00  0.00    +0.000 F 
ATOM     20  F   UNL     1       7.282   5.044  14.970  0.00  0.00    +0.000 F 
ENDBRANCH  16  17
ENDBRANCH  13  16
ENDBRANCH   5  10
BRANCH   1  23
ATOM     21  O   UNL     1       0.379  13.535  22.374  0.00  0.00    +0.000 OA
ATOM     22  C   UNL     1      -0.615  13.021  21.876  0.00  0.00    +0.000 C 
ATOM     23  N   UNL     1      -0.554  12.039  20.911  0.00  0.00    +0.000 N 
ATOM     24  H   UNL     1      -1.394  11.787  20.396  0.00  0.00    +0.000 HD
BRANCH  22  25
ATOM     25  C   UNL     1      -1.972  13.470  22.293  0.00  0.00    +0.000 A 
ATOM     26  C   UNL     1      -2.594  14.577  21.704  0.00  0.00    +0.000 A 
ATOM     27  C   UNL     1      -3.872  14.964  22.110  0.00  0.00    +0.000 A 
ATOM     28  C   UNL     1      -4.535  14.245  23.101  0.00  0.00    +0.000 A 
ATOM     29  C   UNL     1      -3.922  13.131  23.680  0.00  0.00    +0.000 A 
ATOM     30 CL   UNL     1      -4.750  12.243  24.899  0.00  0.00    +0.000 Cl
ATOM     31  C   UNL     1      -2.646  12.736  23.277  0.00  0.00    +0.000 A 
ENDBRANCH  22  25
ENDBRANCH   1  23
TORSDOF 5
ENDMDL
MODEL 2
REMARK VINA RESULT:      -7.7      1.045      1.736
REMARK  Name = 
REMARK  5 active torsions:
REMARK  status: ('A' for Active; 'I' for Inactive)
REMARK    1  A    between atoms: C_2  and  C_24
REMARK    2  A    between atoms: N_3  and  C_4
REMARK    3  A    between atoms: N_8  and  C_9
REMARK    4  A    between atoms: C_12  and  O_13
REMARK    5  A    between atoms: O_13  and  C_14
REMARK                            x       y       z     vdW  Elec       q    Type
REMARK                         _______ _______ _______ _____ _____    ______ ____
ROOT
ATOM      1  C   UNL     1       0.774  11.102  21.193  0.00  0.00    +0.000 C 
ATOM      2  C   UNL     1       0.709  11.136  19.655  0.00  0.00    +0.000 C 
ATOM      3  C   UNL     1       0.629   9.682  19.207  0.00  0.00    +0.000 C 
ATOM      4  C   UNL     1       1.727   9.184  18.280  0.00  0.00    +0.000 C 
ATOM      5  N   UNL     1       1.982   7.835  18.749  0.00  0.00    +0.000 N 
ATOM      6  C   UNL     1       1.546   7.725  20.094  0.00  0.00    +0.000 C 
ATOM      7  O   UNL     1       1.847   6.880  20.927  0.00  0.00    +0.000 OA
ATOM      8  N   UNL     1       0.788   8.877  20.386  0.00  0.00    +0.000 N 
ATOM      9  C   UNL     1       1.120   9.652  21.558  0.00  0.00    +0.000 C 
ENDROOT
BRANCH   5  10
ATOM     10  C   UNL     1       2.882   6.954  18.097  0.00  0.00    +0.000 A 
ATOM     11  C   UNL     1       2.646   5.577  18.035  0.00  0.00    +0.000 A 
ATOM     12  C   UNL     1       3.569   4.715  17.424  0.00  0.00    +0.000 A 
ATOM     13  C   UNL     1       4.742   5.214  16.858  0.00  0.00    +0.000 A 
ATOM     14  C   UNL     1       4.992   6.579  16.927  0.00  0.00    +0.000 A 
ATOM     15  C   UNL     1       4.053   7.442  17.505  0.00  0.00    +0.000 A 
BRANCH  13  16
ATOM     16  O   UNL     1       5.578   4.276  16.339  0.00  0.00    +0.000 OA
BRANCH  16  17
ATOM     17  C   UNL     1       6.074   4.425  15.016  0.00  0.00    +0.000 C 
ATOM     18  F   UNL     1       7.147   5.237  14.902  0.00  0.00    +0.000 F 
ATOM     19  F   UNL     1       6.404   3.210  14.528  0.00  0.00    +0.000 F 
ATOM     20  F   UNL     1       5.091   4.936  14.242  0.00  0.00    +0.000 F 
ENDBRANCH  16  17
ENDBRANCH  13  16
ENDBRANCH   5  10
BRANCH   1  23
ATOM     21  O   UNL     1       0.349  13.610  22.399  0.00  0.00    +0.000 OA
ATOM     22  C   UNL     1      -0.572  12.803  22.376  0.00  0.00    +0.000 C 
ATOM     23  N   UNL     1      -0.466  11.553  21.804  0.00  0.00    +0.000 N 
ATOM     24  H   UNL     1      -1.305  11.003  21.640  0.00  0.00    +0.000 HD
BRANCH  22  25
ATOM     25  C   UNL     1      -1.891  13.163  22.966  0.00  0.00    +0.000 A 
ATOM     26  C   UNL     1      -2.786  12.186  23.419  0.00  0.00    +0.000 A 
ATOM     27  C   UNL     1      -4.009  12.559  23.979  0.00  0.00    +0.000 A 
ATOM     28  C   UNL     1      -4.340  13.906  24.094  0.00  0.00    +0.000 A 
ATOM     29  C   UNL     1      -3.442  14.882  23.657  0.00  0.00    +0.000 A 
ATOM     30 CL   UNL     1      -3.855  16.546  23.809  0.00  0.00    +0.000 Cl
ATOM     31  C   UNL     1      -2.216  14.519  23.099  0.00  0.00    +0.000 A 
ENDBRANCH  22  25
ENDBRANCH   1  23
TORSDOF 5
ENDMDL
MODEL 3
REMARK VINA RESULT:      -7.7      1.205      1.444
REMARK  Name = 
REMARK  5 active torsions:
REMARK  status: ('A' for Active; 'I' for Inactive)
REMARK    1  A    between atoms: C_2  and  C_24
REMARK    2  A    between atoms: N_3  and  C_4
REMARK    3  A    between atoms: N_8  and  C_9
REMARK    4  A    between atoms: C_12  and  O_13
REMARK    5  A    between atoms: O_13  and  C_14
REMARK                            x       y       z     vdW  Elec       q    Type
REMARK                         _______ _______ _______ _____ _____    ______ ____
ROOT
ATOM      1  C   UNL     1       0.657  11.308  20.529  0.00  0.00    +0.000 C 
ATOM      2  C   UNL     1       0.861  11.303  19.002  0.00  0.00    +0.000 C 
ATOM      3  C   UNL     1       0.839   9.840  18.580  0.00  0.00    +0.000 C 
ATOM      4  C   UNL     1       2.074   9.308  17.870  0.00  0.00    +0.000 C 
ATOM      5  N   UNL     1       2.223   7.968  18.407  0.00  0.00    +0.000 N 
ATOM      6  C   UNL     1       1.559   7.896  19.658  0.00  0.00    +0.000 C 
ATOM      7  O   UNL     1       1.698   7.070  20.550  0.00  0.00    +0.000 OA
ATOM      8  N   UNL     1       0.779   9.063  19.787  0.00  0.00    +0.000 N 
ATOM      9  C   UNL     1       0.914   9.864  20.981  0.00  0.00    +0.000 C 
ENDROOT
BRANCH   5  10
ATOM     10  C   UNL     1       3.210   7.061  17.942  0.00  0.00    +0.000 A 
ATOM     11  C   UNL     1       4.443   7.505  17.453  0.00  0.00    +0.000 A 
ATOM     12  C   UNL     1       5.389   6.596  16.957  0.00  0.00    +0.000 A 
ATOM     13  C   UNL     1       5.125   5.226  16.946  0.00  0.00    +0.000 A 
ATOM     14  C   UNL     1       3.897   4.778  17.417  0.00  0.00    +0.000 A 
ATOM     15  C   UNL     1       2.968   5.682  17.945  0.00  0.00    +0.000 A 
BRANCH  13  16
ATOM     16  O   UNL     1       6.099   4.453  16.397  0.00  0.00    +0.000 OA
BRANCH  16  17
ATOM     17  C   UNL     1       6.307   4.469  14.992  0.00  0.00    +0.000 C 
ATOM     18  F   UNL     1       6.455   3.251  14.429  0.00  0.00    +0.000 F 
ATOM     19  F   UNL     1       5.265   5.090  14.398  0.00  0.00    +0.000 F 
ATOM     20  F   UNL     1       7.426   5.181  14.731  0.00  0.00    +0.000 F 
ENDBRANCH  16  17
ENDBRANCH  13  16
ENDBRANCH   5  10
BRANCH   1  23
ATOM     21  O   UNL     1      -0.380  11.398  23.144  0.00  0.00    +0.000 OA
ATOM     22  C   UNL     1      -1.082  11.783  22.217  0.00  0.00    +0.000 C 
ATOM     23  N   UNL     1      -0.664  11.787  20.904  0.00  0.00    +0.000 N 
ATOM     24  H   UNL     1      -1.203  12.291  20.206  0.00  0.00    +0.000 HD
BRANCH  22  25
ATOM     25  C   UNL     1      -2.451  12.302  22.488  0.00  0.00    +0.000 A 
ATOM     26  C   UNL     1      -3.008  12.275  23.772  0.00  0.00    +0.000 A 
ATOM     27  C   UNL     1      -4.290  12.781  23.994  0.00  0.00    +0.000 A 
ATOM     28  C   UNL     1      -5.017  13.321  22.937  0.00  0.00    +0.000 A 
ATOM     29  C   UNL     1      -4.457  13.363  21.658  0.00  0.00    +0.000 A 
ATOM     30 CL   UNL     1      -5.360  14.039  20.357  0.00  0.00    +0.000 Cl
ATOM     31  C   UNL     1      -3.176  12.862  21.428  0.00  0.00    +0.000 A 
ENDBRANCH  22  25
ENDBRANCH   1  23
TORSDOF 5
ENDMDL
MODEL 4
REMARK VINA RESULT:      -7.5      0.910      1.176
REMARK  Name = 
REMARK  5 active torsions:
REMARK  status: ('A' for Active; 'I' for Inactive)
REMARK    1  A    between atoms: C_2  and  C_24
REMARK    2  A    between atoms: N_3  and  C_4
REMARK    3  A    between atoms: N_8  and  C_9
REMARK    4  A    between atoms: C_12  and  O_13
REMARK    5  A    between atoms: O_13  and  C_14
REMARK                            x       y       z     vdW  Elec       q    Type
REMARK                         _______ _______ _______ _____ _____    ______ ____
ROOT
ATOM      1  C   UNL     1       0.990  11.265  20.786  0.00  0.00    +0.000 C 
ATOM      2  C   UNL     1       1.072  11.236  19.248  0.00  0.00    +0.000 C 
ATOM      3  C   UNL     1       0.953   9.771  18.849  0.00  0.00    +0.000 C 
ATOM      4  C   UNL     1       2.105   9.178  18.052  0.00  0.00    +0.000 C 
ATOM      5  N   UNL     1       2.237   7.838  18.593  0.00  0.00    +0.000 N 
ATOM      6  C   UNL     1       1.672   7.808  19.893  0.00  0.00    +0.000 C 
ATOM      7  O   UNL     1       1.844   6.985  20.782  0.00  0.00    +0.000 OA
ATOM      8  N   UNL     1       0.955   9.009  20.068  0.00  0.00    +0.000 N 
ATOM      9  C   UNL     1       1.218   9.815  21.237  0.00  0.00    +0.000 C 
ENDROOT
BRANCH   5  10
ATOM     10  C   UNL     1       3.144   6.884  18.065  0.00  0.00    +0.000 A 
ATOM     11  C   UNL     1       4.448   7.234  17.700  0.00  0.00    +0.000 A 
ATOM     12  C   UNL     1       5.317   6.286  17.137  0.00  0.00    +0.000 A 
ATOM     13  C   UNL     1       4.901   4.970  16.936  0.00  0.00    +0.000 A 
ATOM     14  C   UNL     1       3.602   4.617  17.283  0.00  0.00    +0.000 A 
ATOM     15  C   UNL     1       2.748   5.554  17.876  0.00  0.00    +0.000 A 
BRANCH  13  16
ATOM     16  O   UNL     1       5.816   4.159  16.341  0.00  0.00    +0.000 OA
BRANCH  16  17
ATOM     17  C   UNL     1       6.173   4.373  14.983  0.00  0.00    +0.000 C 
ATOM     18  F   UNL     1       7.343   5.021  14.802  0.00  0.00    +0.000 F 
ATOM     19  F   UNL     1       6.242   3.181  14.351  0.00  0.00    +0.000 F 
ATOM     20  F   UNL     1       5.203   5.106  14.393  0.00  0.00    +0.000 F 
ENDBRANCH  16  17
ENDBRANCH  13  16
ENDBRANCH   5  10
BRANCH   1  23
ATOM     21  O   UNL     1       0.651  13.685  22.183  0.00  0.00    +0.000 OA
ATOM     22  C   UNL     1      -0.335  13.001  21.940  0.00  0.00    +0.000 C 
ATOM     23  N   UNL     1      -0.276  11.805  21.257  0.00  0.00    +0.000 N 
ATOM     24  H   UNL     1      -1.132  11.378  20.915  0.00  0.00    +0.000 HD
BRANCH  22  25
ATOM     25  C   UNL     1      -1.684  13.463  22.370  0.00  0.00    +0.000 A 
ATOM     26  C   UNL     1      -2.841  13.113  21.664  0.00  0.00    +0.000 A 
ATOM     27  C   UNL     1      -4.092  13.553  22.102  0.00  0.00    +0.000 A 
ATOM     28  C   UNL     1      -4.191  14.338  23.247  0.00  0.00    +0.000 A 
ATOM     29  C   UNL     1      -3.039  14.676  23.961  0.00  0.00    +0.000 A 
ATOM     30 CL   UNL     1      -3.172  15.641  25.380  0.00  0.00    +0.000 Cl
ATOM     31  C   UNL     1      -1.786  14.238  23.533  0.00  0.00    +0.000 A 
ENDBRANCH  22  25
ENDBRANCH   1  23
TORSDOF 5
ENDMDL
MODEL 5
REMARK VINA RESULT:      -7.5      1.174      1.809
REMARK  Name = 
REMARK  5 active torsions:
REMARK  status: ('A' for Active; 'I' for Inactive)
REMARK    1  A    between atoms: C_2  and  C_24
REMARK    2  A    between atoms: N_3  and  C_4
REMARK    3  A    between atoms: N_8  and  C_9
REMARK    4  A    between atoms: C_12  and  O_13
REMARK    5  A    between atoms: O_13  and  C_14
REMARK                            x       y       z     vdW  Elec       q    Type
REMARK                         _______ _______ _______ _____ _____    ______ ____
ROOT
ATOM      1  C   UNL     1       0.189  11.313  20.661  0.00  0.00    +0.000 C 
ATOM      2  C   UNL     1       0.280  11.246  19.125  0.00  0.00    +0.000 C 
ATOM      3  C   UNL     1       0.392   9.767  18.776  0.00  0.00    +0.000 C 
ATOM      4  C   UNL     1       1.624   9.334  17.997  0.00  0.00    +0.000 C 
ATOM      5  N   UNL     1       1.962   8.051  18.583  0.00  0.00    +0.000 N 
ATOM      6  C   UNL     1       1.404   7.976  19.884  0.00  0.00    +0.000 C 
ATOM      7  O   UNL     1       1.700   7.221  20.800  0.00  0.00    +0.000 OA
ATOM      8  N   UNL     1       0.509   9.056  20.019  0.00  0.00    +0.000 N 
ATOM      9  C   UNL     1       0.639   9.932  21.160  0.00  0.00    +0.000 C 
ENDROOT
BRANCH   5  10
ATOM     10  C   UNL     1       3.009   7.232  18.085  0.00  0.00    +0.000 A 
ATOM     11  C   UNL     1       2.944   5.837  18.151  0.00  0.00    +0.000 A 
ATOM     12  C   UNL     1       4.008   5.045  17.692  0.00  0.00    +0.000 A 
ATOM     13  C   UNL     1       5.153   5.632  17.154  0.00  0.00    +0.000 A 
ATOM     14  C   UNL     1       5.231   7.018  17.097  0.00  0.00    +0.000 A 
ATOM     15  C   UNL     1       4.155   7.807  17.521  0.00  0.00    +0.000 A 
BRANCH  13  16
ATOM     16  O   UNL     1       6.132   4.763  16.789  0.00  0.00    +0.000 OA
BRANCH  16  17
ATOM     17  C   UNL     1       6.238   4.344  15.436  0.00  0.00    +0.000 C 
ATOM     18  F   UNL     1       5.328   4.891  14.602  0.00  0.00    +0.000 F 
ATOM     19  F   UNL     1       7.473   4.641  14.976  0.00  0.00    +0.000 F 
ATOM     20  F   UNL     1       6.083   3.002  15.388  0.00  0.00    +0.000 F 
ENDBRANCH  16  17
ENDBRANCH  13  16
ENDBRANCH   5  10
BRANCH   1  23
ATOM     21  O   UNL     1      -0.447  12.521  23.123  0.00  0.00    +0.000 OA
ATOM     22  C   UNL     1      -1.355  12.250  22.347  0.00  0.00    +0.000 C 
ATOM     23  N   UNL     1      -1.147  11.665  21.116  0.00  0.00    +0.000 N 
ATOM     24  H   UNL     1      -1.903  11.640  20.438  0.00  0.00    +0.000 HD
BRANCH  22  25
ATOM     25  C   UNL     1      -2.762  12.574  22.708  0.00  0.00    +0.000 A 
ATOM     26  C   UNL     1      -3.257  12.368  24.002  0.00  0.00    +0.000 A 
ATOM     27  C   UNL     1      -4.578  12.696  24.310  0.00  0.00    +0.000 A 
ATOM     28  C   UNL     1      -5.408  13.234  23.330  0.00  0.00    +0.000 A 
ATOM     29  C   UNL     1      -4.912  13.454  22.043  0.00  0.00    +0.000 A 
ATOM     30 CL   UNL     1      -5.943  14.127  20.840  0.00  0.00    +0.000 Cl
ATOM     31  C   UNL     1      -3.592  13.133  21.727  0.00  0.00    +0.000 A 
ENDBRANCH  22  25
ENDBRANCH   1  23
TORSDOF 5
ENDMDL
MODEL 6
REMARK VINA RESULT:      -7.4      1.614      2.055
REMARK  Name = 
REMARK  5 active torsions:
REMARK  status: ('A' for Active; 'I' for Inactive)
REMARK    1  A    between atoms: C_2  and  C_24
REMARK    2  A    between atoms: N_3  and  C_4
REMARK    3  A    between atoms: N_8  and  C_9
REMARK    4  A    between atoms: C_12  and  O_13
REMARK    5  A    between atoms: O_13  and  C_14
REMARK                            x       y       z     vdW  Elec       q    Type
REMARK                         _______ _______ _______ _____ _____    ______ ____
ROOT
ATOM      1  C   UNL     1       0.163  11.794  20.903  0.00  0.00    +0.000 C 
ATOM      2  C   UNL     1       0.119  11.512  19.389  0.00  0.00    +0.000 C 
ATOM      3  C   UNL     1       0.202   9.998  19.242  0.00  0.00    +0.000 C 
ATOM      4  C   UNL     1       1.362   9.447  18.427  0.00  0.00    +0.000 C 
ATOM      5  N   UNL     1       1.750   8.254  19.156  0.00  0.00    +0.000 N 
ATOM      6  C   UNL     1       1.307   8.368  20.498  0.00  0.00    +0.000 C 
ATOM      7  O   UNL     1       1.682   7.744  21.481  0.00  0.00    +0.000 OA
ATOM      8  N   UNL     1       0.427   9.467  20.558  0.00  0.00    +0.000 N 
ATOM      9  C   UNL     1       0.655  10.492  21.549  0.00  0.00    +0.000 C 
ENDROOT
BRANCH   5  10
ATOM     10  C   UNL     1       2.750   7.362  18.689  0.00  0.00    +0.000 A 
ATOM     11  C   UNL     1       3.065   6.186  19.377  0.00  0.00    +0.000 A 
ATOM     12  C   UNL     1       4.086   5.338  18.923  0.00  0.00    +0.000 A 
ATOM     13  C   UNL     1       4.808   5.646  17.770  0.00  0.00    +0.000 A 
ATOM     14  C   UNL     1       4.511   6.820  17.087  0.00  0.00    +0.000 A 
ATOM     15  C   UNL     1       3.468   7.647  17.521  0.00  0.00    +0.000 A 
BRANCH  13  16
ATOM     16  O   UNL     1       5.802   4.773  17.459  0.00  0.00    +0.000 OA
BRANCH  16  17
ATOM     17  C   UNL     1       7.156   5.202  17.492  0.00  0.00    +0.000 C 
ATOM     18  F   UNL     1       8.064   4.204  17.550  0.00  0.00    +0.000 F 
ATOM     19  F   UNL     1       7.410   5.947  16.394  0.00  0.00    +0.000 F 
ATOM     20  F   UNL     1       7.334   5.982  18.581  0.00  0.00    +0.000 F 
ENDBRANCH  16  17
ENDBRANCH  13  16
ENDBRANCH   5  10
BRANCH   1  23
ATOM     21  O   UNL     1      -0.252  13.436  23.151  0.00  0.00    +0.000 OA
ATOM     22  C   UNL     1      -1.227  13.024  22.534  0.00  0.00    +0.000 C 
ATOM     23  N   UNL     1      -1.129  12.222  21.418  0.00  0.00    +0.000 N 
ATOM     24  H   UNL     1      -1.948  12.069  20.835  0.00  0.00    +0.000 HD
BRANCH  22  25
ATOM     25  C   UNL     1      -2.598  13.407  22.970  0.00  0.00    +0.000 A 
ATOM     26  C   UNL     1      -3.526  12.452  23.402  0.00  0.00    +0.000 A 
ATOM     27  C   UNL     1      -4.799  12.846  23.816  0.00  0.00    +0.000 A 
ATOM     28  C   UNL     1      -5.148  14.194  23.805  0.00  0.00    +0.000 A 
ATOM     29  C   UNL     1      -4.219  15.149  23.387  0.00  0.00    +0.000 A 
ATOM     30 CL   UNL     1      -4.656  16.814  23.383  0.00  0.00    +0.000 Cl
ATOM     31  C   UNL     1      -2.943  14.765  22.976  0.00  0.00    +0.000 A 
ENDBRANCH  22  25
ENDBRANCH   1  23
TORSDOF 5
ENDMDL
MODEL 7
REMARK VINA RESULT:      -7.4      6.435     11.294
REMARK  Name = 
REMARK  5 active torsions:
REMARK  status: ('A' for Active; 'I' for Inactive)
REMARK    1  A    between atoms: C_2  and  C_24
REMARK    2  A    between atoms: N_3  and  C_4
REMARK    3  A    between atoms: N_8  and  C_9
REMARK    4  A    between atoms: C_12  and  O_13
REMARK    5  A    between atoms: O_13  and  C_14
REMARK                            x       y       z     vdW  Elec       q    Type
REMARK                         _______ _______ _______ _____ _____    ______ ____
ROOT
ATOM      1  C   UNL     1       1.883   8.654  20.348  0.00  0.00    +0.000 C 
ATOM      2  C   UNL     1       1.360   8.674  21.797  0.00  0.00    +0.000 C 
ATOM      3  C   UNL     1      -0.050   9.246  21.725  0.00  0.00    +0.000 C 
ATOM      4  C   UNL     1      -0.325  10.506  22.531  0.00  0.00    +0.000 C 
ATOM      5  N   UNL     1      -1.195  11.280  21.665  0.00  0.00    +0.000 N 
ATOM      6  C   UNL     1      -1.012  10.851  20.326  0.00  0.00    +0.000 C 
ATOM      7  O   UNL     1      -1.314  11.430  19.291  0.00  0.00    +0.000 OA
ATOM      8  N   UNL     1      -0.260   9.660  20.365  0.00  0.00    +0.000 N 
ATOM      9  C   UNL     1       0.931   9.559  19.554  0.00  0.00    +0.000 C 
ENDROOT
BRANCH   5  10
ATOM     10  C   UNL     1      -1.783  12.507  22.067  0.00  0.00    +0.000 A 
ATOM     11  C   UNL     1      -1.007  13.577  22.527  0.00  0.00    +0.000 A 
ATOM     12  C   UNL     1      -1.610  14.767  22.961  0.00  0.00    +0.000 A 
ATOM     13  C   UNL     1      -2.997  14.913  22.938  0.00  0.00    +0.000 A 
ATOM     14  C   UNL     1      -3.775  13.851  22.496  0.00  0.00    +0.000 A 
ATOM     15  C   UNL     1      -3.172  12.677  22.029  0.00  0.00    +0.000 A 
BRANCH  13  16
ATOM     16  O   UNL     1      -3.462  16.093  23.428  0.00  0.00    +0.000 OA
BRANCH  16  17
ATOM     17  C   UNL     1      -4.051  16.139  24.720  0.00  0.00    +0.000 C 
ATOM     18  F   UNL     1      -3.917  17.320  25.360  0.00  0.00    +0.000 F 
ATOM     19  F   UNL     1      -5.368  15.857  24.615  0.00  0.00    +0.000 F 
ATOM     20  F   UNL     1      -3.477  15.188  25.489  0.00  0.00    +0.000 F 
ENDBRANCH  16  17
ENDBRANCH  13  16
ENDBRANCH   5  10
BRANCH   1  23
ATOM     21  O   UNL     1       3.389   7.847  18.111  0.00  0.00    +0.000 OA
ATOM     22  C   UNL     1       2.716   7.011  18.701  0.00  0.00    +0.000 C 
ATOM     23  N   UNL     1       1.951   7.304  19.810  0.00  0.00    +0.000 N 
ATOM     24  H   UNL     1       1.571   6.547  20.372  0.00  0.00    +0.000 HD
BRANCH  22  25
ATOM     25  C   UNL     1       2.718   5.596  18.240  0.00  0.00    +0.000 A 
ATOM     26  C   UNL     1       3.715   5.099  17.391  0.00  0.00    +0.000 A 
ATOM     27  C   UNL     1       3.694   3.763  16.988  0.00  0.00    +0.000 A 
ATOM     28  C   UNL     1       2.682   2.917  17.435  0.00  0.00    +0.000 A 
ATOM     29  C   UNL     1       1.696   3.407  18.294  0.00  0.00    +0.000 A 
ATOM     30 CL   UNL     1       0.452   2.353  18.848  0.00  0.00    +0.000 Cl
ATOM     31  C   UNL     1       1.711   4.740  18.705  0.00  0.00    +0.000 A 
ENDBRANCH  22  25
ENDBRANCH   1  23
TORSDOF 5
ENDMDL
MODEL 8
REMARK VINA RESULT:      -7.3      3.359      4.111
REMARK  Name = 
REMARK  5 active torsions:
REMARK  status: ('A' for Active; 'I' for Inactive)
REMARK    1  A    between atoms: C_2  and  C_24
REMARK    2  A    between atoms: N_3  and  C_4
REMARK    3  A    between atoms: N_8  and  C_9
REMARK    4  A    between atoms: C_12  and  O_13
REMARK    5  A    between atoms: O_13  and  C_14
REMARK                            x       y       z     vdW  Elec       q    Type
REMARK                         _______ _______ _______ _____ _____    ______ ____
ROOT
ATOM      1  C   UNL     1      -0.906  11.323  19.724  0.00  0.00    +0.000 C 
ATOM      2  C   UNL     1      -0.334  10.710  21.016  0.00  0.00    +0.000 C 
ATOM      3  C   UNL     1       0.989  10.066  20.624  0.00  0.00    +0.000 C 
ATOM      4  C   UNL     1       1.135   8.575  20.888  0.00  0.00    +0.000 C 
ATOM      5  N   UNL     1       1.867   8.096  19.730  0.00  0.00    +0.000 N 
ATOM      6  C   UNL     1       1.688   9.010  18.660  0.00  0.00    +0.000 C 
ATOM      7  O   UNL     1       1.875   8.831  17.465  0.00  0.00    +0.000 OA
ATOM      8  N   UNL     1       1.093  10.170  19.195  0.00  0.00    +0.000 N 
ATOM      9  C   UNL     1      -0.106  10.687  18.578  0.00  0.00    +0.000 C 
ENDROOT
BRANCH   5  10
ATOM     10  C   UNL     1       2.311   6.754  19.605  0.00  0.00    +0.000 A 
ATOM     11  C   UNL     1       1.832   5.741  20.441  0.00  0.00    +0.000 A 
ATOM     12  C   UNL     1       2.315   4.429  20.331  0.00  0.00    +0.000 A 
ATOM     13  C   UNL     1       3.282   4.103  19.380  0.00  0.00    +0.000 A 
ATOM     14  C   UNL     1       3.774   5.106  18.554  0.00  0.00    +0.000 A 
ATOM     15  C   UNL     1       3.265   6.407  18.641  0.00  0.00    +0.000 A 
BRANCH  13  16
ATOM     16  O   UNL     1       3.704   2.811  19.404  0.00  0.00    +0.000 OA
BRANCH  16  17
ATOM     17  C   UNL     1       3.039   1.835  18.614  0.00  0.00    +0.000 C 
ATOM     18  F   UNL     1       2.672   2.257  17.385  0.00  0.00    +0.000 F 
ATOM     19  F   UNL     1       3.842   0.758  18.474  0.00  0.00    +0.000 F 
ATOM     20  F   UNL     1       1.921   1.444  19.264  0.00  0.00    +0.000 F 
ENDBRANCH  16  17
ENDBRANCH  13  16
ENDBRANCH   5  10
BRANCH   1  23
ATOM     21  O   UNL     1      -2.739  13.074  20.949  0.00  0.00    +0.000 OA
ATOM     22  C   UNL     1      -1.781  13.547  20.350  0.00  0.00    +0.000 C 
ATOM     23  N   UNL     1      -0.825  12.776  19.724  0.00  0.00    +0.000 N 
ATOM     24  H   UNL     1       0.042  13.204  19.413  0.00  0.00    +0.000 HD
BRANCH  22  25
ATOM     25  C   UNL     1      -1.596  15.024  20.294  0.00  0.00    +0.000 A 
ATOM     26  C   UNL     1      -2.418  15.896  21.017  0.00  0.00    +0.000 A 
ATOM     27  C   UNL     1      -2.208  17.275  20.952  0.00  0.00    +0.000 A 
ATOM     28  C   UNL     1      -1.175  17.786  20.171  0.00  0.00    +0.000 A 
ATOM     29  C   UNL     1      -0.345  16.916  19.461  0.00  0.00    +0.000 A 
ATOM     30 CL   UNL     1       0.935  17.555  18.503  0.00  0.00    +0.000 Cl
ATOM     31  C   UNL     1      -0.545  15.537  19.523  0.00  0.00    +0.000 A 
ENDBRANCH  22  25
ENDBRANCH   1  23
TORSDOF 5
ENDMDL
MODEL 9
REMARK VINA RESULT:      -7.3      6.157     11.187
REMARK  Name = 
REMARK  5 active torsions:
REMARK  status: ('A' for Active; 'I' for Inactive)
REMARK    1  A    between atoms: C_2  and  C_24
REMARK    2  A    between atoms: N_3  and  C_4
REMARK    3  A    between atoms: N_8  and  C_9
REMARK    4  A    between atoms: C_12  and  O_13
REMARK    5  A    between atoms: O_13  and  C_14
REMARK                            x       y       z     vdW  Elec       q    Type
REMARK                         _______ _______ _______ _____ _____    ______ ____
ROOT
ATOM      1  C   UNL     1       1.452   8.040  18.711  0.00  0.00    +0.000 C 
ATOM      2  C   UNL     1       0.948   9.337  18.051  0.00  0.00    +0.000 C 
ATOM      3  C   UNL     1       0.979  10.402  19.139  0.00  0.00    +0.000 C 
ATOM      4  C   UNL     1      -0.337  11.089  19.469  0.00  0.00    +0.000 C 
ATOM      5  N   UNL     1      -0.289  11.239  20.912  0.00  0.00    +0.000 N 
ATOM      6  C   UNL     1       0.616  10.285  21.444  0.00  0.00    +0.000 C 
ATOM      7  O   UNL     1       0.712   9.885  22.596  0.00  0.00    +0.000 OA
ATOM      8  N   UNL     1       1.329   9.733  20.362  0.00  0.00    +0.000 N 
ATOM      9  C   UNL     1       1.385   8.296  20.223  0.00  0.00    +0.000 C 
ENDROOT
BRANCH   5  10
ATOM     10  C   UNL     1      -1.288  11.929  21.644  0.00  0.00    +0.000 A 
ATOM     11  C   UNL     1      -1.664  11.529  22.931  0.00  0.00    +0.000 A 
ATOM     12  C   UNL     1      -2.685  12.197  23.623  0.00  0.00    +0.000 A 
ATOM     13  C   UNL     1      -3.345  13.282  23.045  0.00  0.00    +0.000 A 
ATOM     14  C   UNL     1      -2.988  13.678  21.762  0.00  0.00    +0.000 A 
ATOM     15  C   UNL     1      -1.945  13.033  21.087  0.00  0.00    +0.000 A 
BRANCH  13  16
ATOM     16  O   UNL     1      -4.347  13.815  23.795  0.00  0.00    +0.000 OA
BRANCH  16  17
ATOM     17  C   UNL     1      -5.624  13.195  23.811  0.00  0.00    +0.000 C 
ATOM     18  F   UNL     1      -5.963  12.566  22.665  0.00  0.00    +0.000 F 
ATOM     19  F   UNL     1      -5.668  12.297  24.820  0.00  0.00    +0.000 F 
ATOM     20  F   UNL     1      -6.559  14.141  24.051  0.00  0.00    +0.000 F 
ENDBRANCH  16  17
ENDBRANCH  13  16
ENDBRANCH   5  10
BRANCH   1  23
ATOM     21  O   UNL     1       2.281   5.477  17.895  0.00  0.00    +0.000 OA
ATOM     22  C   UNL     1       3.097   6.390  17.888  0.00  0.00    +0.000 C 
ATOM     23  N   UNL     1       2.788   7.680  18.262  0.00  0.00    +0.000 N 
ATOM     24  H   UNL     1       3.440   8.433  18.056  0.00  0.00    +0.000 HD
BRANCH  22  25
ATOM     25  C   UNL     1       4.493   6.136  17.439  0.00  0.00    +0.000 A 
ATOM     26  C   UNL     1       4.844   4.967  16.753  0.00  0.00    +0.000 A 
ATOM     27  C   UNL     1       6.160   4.766  16.334  0.00  0.00    +0.000 A 
ATOM     28  C   UNL     1       7.129   5.732  16.594  0.00  0.00    +0.000 A 
ATOM     29  C   UNL     1       6.777   6.906  17.265  0.00  0.00    +0.000 A 
ATOM     30 CL   UNL     1       7.978   8.099  17.577  0.00  0.00    +0.000 Cl
ATOM     31  C   UNL     1       5.464   7.116  17.684  0.00  0.00    +0.000 A 
ENDBRANCH  22  25
ENDBRANCH   1  23
TORSDOF 5
ENDMDL
