MODEL 1
REMARK VINA RESULT:      -9.6      0.000      0.000
REMARK  Name = 
REMARK  4 active torsions:
REMARK  status: ('A' for Active; 'I' for Inactive)
REMARK    1  A    between atoms: C_2  and  C_5
REMARK    2  A    between atoms: C_9  and  C_10
REMARK    3  A    between atoms: C_12  and  C_13
REMARK    4  A    between atoms: C_22  and  N_23
REMARK                            x       y       z     vdW  Elec       q    Type
REMARK                         _______ _______ _______ _____ _____    ______ ____
ROOT
ATOM      1  C   UNL     1       3.515   6.574  18.048  0.00  0.00    +0.000 A 
ATOM      2  C   UNL     1       4.804   6.953  17.724  0.00  0.00    +0.000 A 
ATOM      3  C   UNL     1       5.558   5.978  17.062  0.00  0.00    +0.000 A 
ATOM      4  C   UNL     1       6.881   5.619  17.369  0.00  0.00    +0.000 A 
ATOM      5  C   UNL     1       7.509   4.675  16.558  0.00  0.00    +0.000 A 
ATOM      6  C   UNL     1       6.916   4.339  15.344  0.00  0.00    +0.000 A 
ATOM      7  C   UNL     1       5.560   4.625  15.157  0.00  0.00    +0.000 A 
ATOM      8  C   UNL     1       4.858   5.140  16.231  0.00  0.00    +0.000 A 
ATOM      9  N   UNL     1       3.658   4.694  16.692  0.00  0.00    +0.000 NA
ATOM     10  C   UNL     1       3.207   5.243  17.840  0.00  0.00    +0.000 A 
ENDROOT
BRANCH  10  11
ATOM     11  N   UNL     1       2.760   4.419  18.884  0.00  0.00    +0.000 N 
ATOM     12  C   UNL     1       3.679   3.553  19.663  0.00  0.00    +0.000 C 
ATOM     13  C   UNL     1       3.334   2.056  19.561  0.00  0.00    +0.000 C 
ATOM     14  O   UNL     1       1.950   1.801  19.808  0.00  0.00    +0.000 OA
ATOM     15  C   UNL     1       1.159   2.509  18.844  0.00  0.00    +0.000 C 
ATOM     16  C   UNL     1       1.344   4.035  18.975  0.00  0.00    +0.000 C 
ENDBRANCH  10  11
BRANCH   1  19
ATOM     17  C   UNL     1       1.164   9.074  18.682  0.00  0.00    +0.000 A 
ATOM     18  N   UNL     1       1.890   8.417  17.808  0.00  0.00    +0.000 NA
ATOM     19  C   UNL     1       2.550   7.505  18.591  0.00  0.00    +0.000 A 
ATOM     20  N   UNL     1       2.235   7.562  19.898  0.00  0.00    +0.000 NA
ATOM     21  O   UNL     1       1.321   8.612  19.954  0.00  0.00    +0.000 OA
BRANCH  17  26
ATOM     22  C   UNL     1      -1.771  11.116  17.469  0.00  0.00    +0.000 A 
ATOM     23  C   UNL     1      -1.507  12.338  18.100  0.00  0.00    +0.000 A 
ATOM     24  C   UNL     1      -0.383  12.485  18.912  0.00  0.00    +0.000 A 
ATOM     25  C   UNL     1       0.487  11.417  19.104  0.00  0.00    +0.000 A 
ATOM     26  C   UNL     1       0.248  10.175  18.483  0.00  0.00    +0.000 A 
ATOM     27  C   UNL     1      -0.888  10.040  17.673  0.00  0.00    +0.000 A 
BRANCH  22  29
ATOM     28  F   UNL     1      -2.709  11.127  15.257  0.00  0.00    +0.000 F 
ATOM     29  C   UNL     1      -2.971  10.924  16.577  0.00  0.00    +0.000 C 
ATOM     30  F   UNL     1      -3.991  11.767  16.893  0.00  0.00    +0.000 F 
ATOM     31  F   UNL     1      -3.485   9.666  16.667  0.00  0.00    +0.000 F 
ENDBRANCH  22  29
ENDBRANCH  17  26
ENDBRANCH   1  19
TORSDOF 4
ENDMDL
MODEL 2
REMARK VINA RESULT:      -9.4      2.217      2.766
REMARK  Name = 
REMARK  4 active torsions:
REMARK  status: ('A' for Active; 'I' for Inactive)
REMARK    1  A    between atoms: C_2  and  C_5
REMARK    2  A    between atoms: C_9  and  C_10
REMARK    3  A    between atoms: C_12  and  C_13
REMARK    4  A    between atoms: C_22  and  N_23
REMARK                            x       y       z     vdW  Elec       q    Type
REMARK                         _______ _______ _______ _____ _____    ______ ____
ROOT
ATOM      1  C   UNL     1       3.493   6.711  17.948  0.00  0.00    +0.000 A 
ATOM      2  C   UNL     1       4.759   7.024  17.492  0.00  0.00    +0.000 A 
ATOM      3  C   UNL     1       5.470   5.955  16.938  0.00  0.00    +0.000 A 
ATOM      4  C   UNL     1       6.810   5.633  17.213  0.00  0.00    +0.000 A 
ATOM      5  C   UNL     1       7.387   4.573  16.515  0.00  0.00    +0.000 A 
ATOM      6  C   UNL     1       6.718   4.065  15.403  0.00  0.00    +0.000 A 
ATOM      7  C   UNL     1       5.353   4.333  15.260  0.00  0.00    +0.000 A 
ATOM      8  C   UNL     1       4.720   5.009  16.286  0.00  0.00    +0.000 A 
ATOM      9  N   UNL     1       3.551   4.648  16.881  0.00  0.00    +0.000 NA
ATOM     10  C   UNL     1       3.172   5.367  17.960  0.00  0.00    +0.000 A 
ENDROOT
BRANCH  10  11
ATOM     11  N   UNL     1       2.791   4.711  19.141  0.00  0.00    +0.000 N 
ATOM     12  C   UNL     1       3.756   3.958  19.980  0.00  0.00    +0.000 C 
ATOM     13  C   UNL     1       3.400   2.467  20.123  0.00  0.00    +0.000 C 
ATOM     14  O   UNL     1       2.034   2.269  20.492  0.00  0.00    +0.000 OA
ATOM     15  C   UNL     1       1.185   2.837  19.486  0.00  0.00    +0.000 C 
ATOM     16  C   UNL     1       1.382   4.363  19.377  0.00  0.00    +0.000 C 
ENDBRANCH  10  11
BRANCH   1  19
ATOM     17  C   UNL     1       1.332   8.826  19.688  0.00  0.00    +0.000 A 
ATOM     18  N   UNL     1       2.199   7.842  19.719  0.00  0.00    +0.000 NA
ATOM     19  C   UNL     1       2.564   7.722  18.404  0.00  0.00    +0.000 A 
ATOM     20  N   UNL     1       1.976   8.608  17.579  0.00  0.00    +0.000 NA
ATOM     21  O   UNL     1       1.152   9.334  18.436  0.00  0.00    +0.000 OA
BRANCH  17  26
ATOM     22  C   UNL     1      -1.000  11.113  21.584  0.00  0.00    +0.000 A 
ATOM     23  C   UNL     1      -0.870  10.592  22.877  0.00  0.00    +0.000 A 
ATOM     24  C   UNL     1      -0.030   9.506  23.119  0.00  0.00    +0.000 A 
ATOM     25  C   UNL     1       0.687   8.928  22.076  0.00  0.00    +0.000 A 
ATOM     26  C   UNL     1       0.575   9.429  20.764  0.00  0.00    +0.000 A 
ATOM     27  C   UNL     1      -0.276  10.519  20.534  0.00  0.00    +0.000 A 
BRANCH  22  29
ATOM     28  F   UNL     1      -1.319  13.494  21.567  0.00  0.00    +0.000 F 
ATOM     29  C   UNL     1      -1.891  12.292  21.286  0.00  0.00    +0.000 C 
ATOM     30  F   UNL     1      -3.053  12.253  21.993  0.00  0.00    +0.000 F 
ATOM     31  F   UNL     1      -2.254  12.347  19.976  0.00  0.00    +0.000 F 
ENDBRANCH  22  29
ENDBRANCH  17  26
ENDBRANCH   1  19
TORSDOF 4
ENDMDL
MODEL 3
REMARK VINA RESULT:      -9.4      1.985      3.830
REMARK  Name = 
REMARK  4 active torsions:
REMARK  status: ('A' for Active; 'I' for Inactive)
REMARK    1  A    between atoms: C_2  and  C_5
REMARK    2  A    between atoms: C_9  and  C_10
REMARK    3  A    between atoms: C_12  and  C_13
REMARK    4  A    between atoms: C_22  and  N_23
REMARK                            x       y       z     vdW  Elec       q    Type
REMARK                         _______ _______ _______ _____ _____    ______ ____
ROOT
ATOM      1  C   UNL     1       2.879   6.345  18.109  0.00  0.00    +0.000 A 
ATOM      2  C   UNL     1       2.037   5.248  18.092  0.00  0.00    +0.000 A 
ATOM      3  C   UNL     1       2.660   4.021  18.342  0.00  0.00    +0.000 A 
ATOM      4  C   UNL     1       2.467   2.840  17.606  0.00  0.00    +0.000 A 
ATOM      5  C   UNL     1       3.114   1.684  18.039  0.00  0.00    +0.000 A 
ATOM      6  C   UNL     1       3.690   1.678  19.307  0.00  0.00    +0.000 A 
ATOM      7  C   UNL     1       3.960   2.901  19.928  0.00  0.00    +0.000 A 
ATOM      8  C   UNL     1       3.728   4.055  19.202  0.00  0.00    +0.000 A 
ATOM      9  N   UNL     1       4.593   5.095  19.055  0.00  0.00    +0.000 NA
ATOM     10  C   UNL     1       4.230   6.067  18.190  0.00  0.00    +0.000 A 
ENDROOT
BRANCH  10  11
ATOM     11  N   UNL     1       5.133   6.508  17.211  0.00  0.00    +0.000 N 
ATOM     12  C   UNL     1       5.250   5.854  15.885  0.00  0.00    +0.000 C 
ATOM     13  C   UNL     1       6.654   5.283  15.612  0.00  0.00    +0.000 C 
ATOM     14  O   UNL     1       7.687   6.232  15.883  0.00  0.00    +0.000 OA
ATOM     15  C   UNL     1       7.622   6.622  17.261  0.00  0.00    +0.000 C 
ATOM     16  C   UNL     1       6.291   7.333  17.584  0.00  0.00    +0.000 C 
ENDBRANCH  10  11
BRANCH   1  19
ATOM     17  C   UNL     1       1.167   9.375  18.358  0.00  0.00    +0.000 A 
ATOM     18  N   UNL     1       1.304   8.132  18.756  0.00  0.00    +0.000 NA
ATOM     19  C   UNL     1       2.381   7.701  18.026  0.00  0.00    +0.000 A 
ATOM     20  N   UNL     1       2.921   8.636  17.224  0.00  0.00    +0.000 NA
ATOM     21  O   UNL     1       2.105   9.744  17.442  0.00  0.00    +0.000 OA
BRANCH  17  26
ATOM     22  C   UNL     1      -2.060  11.313  18.649  0.00  0.00    +0.000 A 
ATOM     23  C   UNL     1      -1.666  12.334  19.523  0.00  0.00    +0.000 A 
ATOM     24  C   UNL     1      -0.360  12.380  20.009  0.00  0.00    +0.000 A 
ATOM     25  C   UNL     1       0.564  11.411  19.630  0.00  0.00    +0.000 A 
ATOM     26  C   UNL     1       0.196  10.372  18.753  0.00  0.00    +0.000 A 
ATOM     27  C   UNL     1      -1.121  10.334  18.275  0.00  0.00    +0.000 A 
BRANCH  22  29
ATOM     28  F   UNL     1      -4.384  11.892  18.853  0.00  0.00    +0.000 F 
ATOM     29  C   UNL     1      -3.461  11.236  18.096  0.00  0.00    +0.000 C 
ATOM     30  F   UNL     1      -3.905   9.955  17.988  0.00  0.00    +0.000 F 
ATOM     31  F   UNL     1      -3.554  11.770  16.848  0.00  0.00    +0.000 F 
ENDBRANCH  22  29
ENDBRANCH  17  26
ENDBRANCH   1  19
TORSDOF 4
ENDMDL
MODEL 4
REMARK VINA RESULT:      -9.4      2.970      4.622
REMARK  Name = 
REMARK  4 active torsions:
REMARK  status: ('A' for Active; 'I' for Inactive)
REMARK    1  A    between atoms: C_2  and  C_5
REMARK    2  A    between atoms: C_9  and  C_10
REMARK    3  A    between atoms: C_12  and  C_13
REMARK    4  A    between atoms: C_22  and  N_23
REMARK                            x       y       z     vdW  Elec       q    Type
REMARK                         _______ _______ _______ _____ _____    ______ ____
ROOT
ATOM      1  C   UNL     1       2.798   6.520  18.222  0.00  0.00    +0.000 A 
ATOM      2  C   UNL     1       1.908   5.464  18.169  0.00  0.00    +0.000 A 
ATOM      3  C   UNL     1       2.475   4.201  18.371  0.00  0.00    +0.000 A 
ATOM      4  C   UNL     1       2.226   3.058  17.593  0.00  0.00    +0.000 A 
ATOM      5  C   UNL     1       2.821   1.859  17.979  0.00  0.00    +0.000 A 
ATOM      6  C   UNL     1       3.400   1.780  19.244  0.00  0.00    +0.000 A 
ATOM      7  C   UNL     1       3.727   2.965  19.908  0.00  0.00    +0.000 A 
ATOM      8  C   UNL     1       3.546   4.154  19.227  0.00  0.00    +0.000 A 
ATOM      9  N   UNL     1       4.456   5.159  19.113  0.00  0.00    +0.000 NA
ATOM     10  C   UNL     1       4.136   6.178  18.287  0.00  0.00    +0.000 A 
ENDROOT
BRANCH  10  11
ATOM     11  N   UNL     1       5.055   6.613  17.320  0.00  0.00    +0.000 N 
ATOM     12  C   UNL     1       5.131   6.012  15.967  0.00  0.00    +0.000 C 
ATOM     13  C   UNL     1       6.501   5.381  15.659  0.00  0.00    +0.000 C 
ATOM     14  O   UNL     1       7.584   6.263  15.962  0.00  0.00    +0.000 OA
ATOM     15  C   UNL     1       7.547   6.596  17.356  0.00  0.00    +0.000 C 
ATOM     16  C   UNL     1       6.257   7.360  17.720  0.00  0.00    +0.000 C 
ENDBRANCH  10  11
BRANCH   1  19
ATOM     17  C   UNL     1       1.395   9.670  18.754  0.00  0.00    +0.000 A 
ATOM     18  N   UNL     1       1.594   8.447  19.186  0.00  0.00    +0.000 NA
ATOM     19  C   UNL     1       2.363   7.899  18.192  0.00  0.00    +0.000 A 
ATOM     20  N   UNL     1       2.662   8.744  17.188  0.00  0.00    +0.000 NA
ATOM     21  O   UNL     1       2.009   9.917  17.562  0.00  0.00    +0.000 OA
BRANCH  17  26
ATOM     22  C   UNL     1      -0.566  11.719  21.246  0.00  0.00    +0.000 A 
ATOM     23  C   UNL     1      -0.821  12.867  20.485  0.00  0.00    +0.000 A 
ATOM     24  C   UNL     1      -0.353  12.964  19.175  0.00  0.00    +0.000 A 
ATOM     25  C   UNL     1       0.373  11.919  18.611  0.00  0.00    +0.000 A 
ATOM     26  C   UNL     1       0.647  10.754  19.352  0.00  0.00    +0.000 A 
ATOM     27  C   UNL     1       0.175  10.671  20.670  0.00  0.00    +0.000 A 
BRANCH  22  29
ATOM     28  F   UNL     1      -2.409  11.400  22.753  0.00  0.00    +0.000 F 
ATOM     29  C   UNL     1      -1.063  11.576  22.662  0.00  0.00    +0.000 C 
ATOM     30  F   UNL     1      -0.773  12.665  23.425  0.00  0.00    +0.000 F 
ATOM     31  F   UNL     1      -0.502  10.513  23.301  0.00  0.00    +0.000 F 
ENDBRANCH  22  29
ENDBRANCH  17  26
ENDBRANCH   1  19
TORSDOF 4
ENDMDL
MODEL 5
REMARK VINA RESULT:      -9.2      2.815      4.481
REMARK  Name = 
REMARK  4 active torsions:
REMARK  status: ('A' for Active; 'I' for Inactive)
REMARK    1  A    between atoms: C_2  and  C_5
REMARK    2  A    between atoms: C_9  and  C_10
REMARK    3  A    between atoms: C_12  and  C_13
REMARK    4  A    between atoms: C_22  and  N_23
REMARK                            x       y       z     vdW  Elec       q    Type
REMARK                         _______ _______ _______ _____ _____    ______ ____
ROOT
ATOM      1  C   UNL     1       2.919   6.306  18.194  0.00  0.00    +0.000 A 
ATOM      2  C   UNL     1       2.053   5.229  18.176  0.00  0.00    +0.000 A 
ATOM      3  C   UNL     1       2.656   3.983  18.378  0.00  0.00    +0.000 A 
ATOM      4  C   UNL     1       2.415   2.825  17.620  0.00  0.00    +0.000 A 
ATOM      5  C   UNL     1       3.049   1.645  18.005  0.00  0.00    +0.000 A 
ATOM      6  C   UNL     1       3.662   1.595  19.254  0.00  0.00    +0.000 A 
ATOM      7  C   UNL     1       3.977   2.796  19.896  0.00  0.00    +0.000 A 
ATOM      8  C   UNL     1       3.750   3.972  19.206  0.00  0.00    +0.000 A 
ATOM      9  N   UNL     1       4.632   4.997  19.057  0.00  0.00    +0.000 NA
ATOM     10  C   UNL     1       4.265   5.998  18.227  0.00  0.00    +0.000 A 
ENDROOT
BRANCH  10  11
ATOM     11  N   UNL     1       5.148   6.444  17.232  0.00  0.00    +0.000 N 
ATOM     12  C   UNL     1       5.323   5.727  15.945  0.00  0.00    +0.000 C 
ATOM     13  C   UNL     1       6.764   5.237  15.715  0.00  0.00    +0.000 C 
ATOM     14  O   UNL     1       7.730   6.265  15.941  0.00  0.00    +0.000 OA
ATOM     15  C   UNL     1       7.624   6.724  17.296  0.00  0.00    +0.000 C 
ATOM     16  C   UNL     1       6.246   7.362  17.569  0.00  0.00    +0.000 C 
ENDBRANCH  10  11
BRANCH   1  19
ATOM     17  C   UNL     1       1.502   9.445  18.753  0.00  0.00    +0.000 A 
ATOM     18  N   UNL     1       1.774   8.245  19.207  0.00  0.00    +0.000 NA
ATOM     19  C   UNL     1       2.449   7.674  18.159  0.00  0.00    +0.000 A 
ATOM     20  N   UNL     1       2.623   8.486  17.100  0.00  0.00    +0.000 NA
ATOM     21  O   UNL     1       1.983   9.659  17.497  0.00  0.00    +0.000 OA
BRANCH  17  26
ATOM     22  C   UNL     1       0.320  12.926  19.618  0.00  0.00    +0.000 A 
ATOM     23  C   UNL     1      -0.584  12.638  20.648  0.00  0.00    +0.000 A 
ATOM     24  C   UNL     1      -0.801  11.320  21.049  0.00  0.00    +0.000 A 
ATOM     25  C   UNL     1      -0.121  10.277  20.427  0.00  0.00    +0.000 A 
ATOM     26  C   UNL     1       0.793  10.536  19.387  0.00  0.00    +0.000 A 
ATOM     27  C   UNL     1       0.999  11.865  18.991  0.00  0.00    +0.000 A 
BRANCH  22  29
ATOM     28  F   UNL     1       0.861  15.197  20.184  0.00  0.00    +0.000 F 
ATOM     29  C   UNL     1       0.586  14.339  19.164  0.00  0.00    +0.000 C 
ATOM     30  F   UNL     1      -0.471  14.875  18.496  0.00  0.00    +0.000 F 
ATOM     31  F   UNL     1       1.645  14.417  18.313  0.00  0.00    +0.000 F 
ENDBRANCH  22  29
ENDBRANCH  17  26
ENDBRANCH   1  19
TORSDOF 4
ENDMDL
MODEL 6
REMARK VINA RESULT:      -9.1      0.656      1.357
REMARK  Name = 
REMARK  4 active torsions:
REMARK  status: ('A' for Active; 'I' for Inactive)
REMARK    1  A    between atoms: C_2  and  C_5
REMARK    2  A    between atoms: C_9  and  C_10
REMARK    3  A    between atoms: C_12  and  C_13
REMARK    4  A    between atoms: C_22  and  N_23
REMARK                            x       y       z     vdW  Elec       q    Type
REMARK                         _______ _______ _______ _____ _____    ______ ____
ROOT
ATOM      1  C   UNL     1       3.592   6.379  18.078  0.00  0.00    +0.000 A 
ATOM      2  C   UNL     1       4.904   6.747  17.847  0.00  0.00    +0.000 A 
ATOM      3  C   UNL     1       5.665   5.811  17.138  0.00  0.00    +0.000 A 
ATOM      4  C   UNL     1       6.963   5.389  17.473  0.00  0.00    +0.000 A 
ATOM      5  C   UNL     1       7.606   4.501  16.613  0.00  0.00    +0.000 A 
ATOM      6  C   UNL     1       7.063   4.287  15.348  0.00  0.00    +0.000 A 
ATOM      7  C   UNL     1       5.725   4.627  15.125  0.00  0.00    +0.000 A 
ATOM      8  C   UNL     1       4.986   5.067  16.207  0.00  0.00    +0.000 A 
ATOM      9  N   UNL     1       3.754   4.619  16.571  0.00  0.00    +0.000 NA
ATOM     10  C   UNL     1       3.262   5.080  17.741  0.00  0.00    +0.000 A 
ENDROOT
BRANCH  10  11
ATOM     11  N   UNL     1       2.745   4.182  18.688  0.00  0.00    +0.000 N 
ATOM     12  C   UNL     1       1.297   3.875  18.785  0.00  0.00    +0.000 C 
ATOM     13  C   UNL     1       0.690   4.237  20.153  0.00  0.00    +0.000 C 
ATOM     14  O   UNL     1       1.464   3.729  21.241  0.00  0.00    +0.000 OA
ATOM     15  C   UNL     1       2.787   4.279  21.178  0.00  0.00    +0.000 C 
ATOM     16  C   UNL     1       3.518   3.843  19.891  0.00  0.00    +0.000 C 
ENDBRANCH  10  11
BRANCH   1  19
ATOM     17  C   UNL     1       1.249   8.859  18.809  0.00  0.00    +0.000 A 
ATOM     18  N   UNL     1       1.984   8.244  17.912  0.00  0.00    +0.000 NA
ATOM     19  C   UNL     1       2.626   7.287  18.655  0.00  0.00    +0.000 A 
ATOM     20  N   UNL     1       2.292   7.278  19.959  0.00  0.00    +0.000 NA
ATOM     21  O   UNL     1       1.384   8.329  20.057  0.00  0.00    +0.000 OA
BRANCH  17  26
ATOM     22  C   UNL     1      -1.651  10.987  17.659  0.00  0.00    +0.000 A 
ATOM     23  C   UNL     1      -1.391  12.170  18.361  0.00  0.00    +0.000 A 
ATOM     24  C   UNL     1      -0.281  12.264  19.200  0.00  0.00    +0.000 A 
ATOM     25  C   UNL     1       0.579  11.180  19.348  0.00  0.00    +0.000 A 
ATOM     26  C   UNL     1       0.343   9.977  18.655  0.00  0.00    +0.000 A 
ATOM     27  C   UNL     1      -0.779   9.894  17.819  0.00  0.00    +0.000 A 
BRANCH  22  29
ATOM     28  F   UNL     1      -3.837  11.736  17.001  0.00  0.00    +0.000 F 
ATOM     29  C   UNL     1      -2.836  10.852  16.737  0.00  0.00    +0.000 C 
ATOM     30  F   UNL     1      -3.400   9.616  16.796  0.00  0.00    +0.000 F 
ATOM     31  F   UNL     1      -2.500  11.047  15.432  0.00  0.00    +0.000 F 
ENDBRANCH  22  29
ENDBRANCH  17  26
ENDBRANCH   1  19
TORSDOF 4
ENDMDL
MODEL 7
REMARK VINA RESULT:      -9.0      4.007      9.187
REMARK  Name = 
REMARK  4 active torsions:
REMARK  status: ('A' for Active; 'I' for Inactive)
REMARK    1  A    between atoms: C_2  and  C_5
REMARK    2  A    between atoms: C_9  and  C_10
REMARK    3  A    between atoms: C_12  and  C_13
REMARK    4  A    between atoms: C_22  and  N_23
REMARK                            x       y       z     vdW  Elec       q    Type
REMARK                         _______ _______ _______ _____ _____    ______ ____
ROOT
ATOM      1  C   UNL     1       0.668  10.470  19.685  0.00  0.00    +0.000 A 
ATOM      2  C   UNL     1      -0.089  10.025  20.752  0.00  0.00    +0.000 A 
ATOM      3  C   UNL     1      -0.864  11.006  21.378  0.00  0.00    +0.000 A 
ATOM      4  C   UNL     1      -0.969  11.206  22.765  0.00  0.00    +0.000 A 
ATOM      5  C   UNL     1      -1.846  12.187  23.223  0.00  0.00    +0.000 A 
ATOM      6  C   UNL     1      -2.766  12.728  22.328  0.00  0.00    +0.000 A 
ATOM      7  C   UNL     1      -2.531  12.589  20.957  0.00  0.00    +0.000 A 
ATOM      8  C   UNL     1      -1.341  12.003  20.565  0.00  0.00    +0.000 A 
ATOM      9  N   UNL     1      -0.479  12.489  19.632  0.00  0.00    +0.000 NA
ATOM     10  C   UNL     1       0.697  11.838  19.496  0.00  0.00    +0.000 A 
ENDROOT
BRANCH  10  11
ATOM     11  N   UNL     1       1.902  12.557  19.501  0.00  0.00    +0.000 N 
ATOM     12  C   UNL     1       2.442  13.195  20.727  0.00  0.00    +0.000 C 
ATOM     13  C   UNL     1       2.596  14.722  20.598  0.00  0.00    +0.000 C 
ATOM     14  O   UNL     1       3.278  15.099  19.401  0.00  0.00    +0.000 OA
ATOM     15  C   UNL     1       2.539  14.627  18.267  0.00  0.00    +0.000 C 
ATOM     16  C   UNL     1       2.459  13.086  18.248  0.00  0.00    +0.000 C 
ENDBRANCH  10  11
BRANCH   1  19
ATOM     17  C   UNL     1       2.404   7.841  18.186  0.00  0.00    +0.000 A 
ATOM     18  N   UNL     1       1.717   8.286  19.211  0.00  0.00    +0.000 NA
ATOM     19  C   UNL     1       1.403   9.565  18.829  0.00  0.00    +0.000 A 
ATOM     20  N   UNL     1       1.847   9.905  17.605  0.00  0.00    +0.000 NA
ATOM     21  O   UNL     1       2.519   8.759  17.186  0.00  0.00    +0.000 OA
BRANCH  17  26
ATOM     22  C   UNL     1       2.933   4.106  18.010  0.00  0.00    +0.000 A 
ATOM     23  C   UNL     1       4.267   4.059  17.585  0.00  0.00    +0.000 A 
ATOM     24  C   UNL     1       4.977   5.237  17.359  0.00  0.00    +0.000 A 
ATOM     25  C   UNL     1       4.367   6.472  17.553  0.00  0.00    +0.000 A 
ATOM     26  C   UNL     1       3.027   6.551  17.979  0.00  0.00    +0.000 A 
ATOM     27  C   UNL     1       2.322   5.359  18.198  0.00  0.00    +0.000 A 
BRANCH  22  29
ATOM     28  F   UNL     1       0.789   3.044  18.232  0.00  0.00    +0.000 F 
ATOM     29  C   UNL     1       2.136   2.853  18.272  0.00  0.00    +0.000 C 
ATOM     30  F   UNL     1       2.404   2.316  19.493  0.00  0.00    +0.000 F 
ATOM     31  F   UNL     1       2.402   1.873  17.366  0.00  0.00    +0.000 F 
ENDBRANCH  22  29
ENDBRANCH  17  26
ENDBRANCH   1  19
TORSDOF 4
ENDMDL
MODEL 8
REMARK VINA RESULT:      -9.0      2.523      3.062
REMARK  Name = 
REMARK  4 active torsions:
REMARK  status: ('A' for Active; 'I' for Inactive)
REMARK    1  A    between atoms: C_2  and  C_5
REMARK    2  A    between atoms: C_9  and  C_10
REMARK    3  A    between atoms: C_12  and  C_13
REMARK    4  A    between atoms: C_22  and  N_23
REMARK                            x       y       z     vdW  Elec       q    Type
REMARK                         _______ _______ _______ _____ _____    ______ ____
ROOT
ATOM      1  C   UNL     1       3.575   6.001  18.578  0.00  0.00    +0.000 A 
ATOM      2  C   UNL     1       4.893   6.388  18.422  0.00  0.00    +0.000 A 
ATOM      3  C   UNL     1       5.636   5.610  17.529  0.00  0.00    +0.000 A 
ATOM      4  C   UNL     1       6.927   5.106  17.760  0.00  0.00    +0.000 A 
ATOM      5  C   UNL     1       7.553   4.408  16.729  0.00  0.00    +0.000 A 
ATOM      6  C   UNL     1       7.004   4.473  15.451  0.00  0.00    +0.000 A 
ATOM      7  C   UNL     1       5.672   4.874  15.311  0.00  0.00    +0.000 A 
ATOM      8  C   UNL     1       4.942   5.089  16.466  0.00  0.00    +0.000 A 
ATOM      9  N   UNL     1       3.704   4.594  16.734  0.00  0.00    +0.000 NA
ATOM     10  C   UNL     1       3.222   4.808  17.978  0.00  0.00    +0.000 A 
ENDROOT
BRANCH  10  11
ATOM     11  N   UNL     1       2.692   3.740  18.718  0.00  0.00    +0.000 N 
ATOM     12  C   UNL     1       1.237   3.458  18.777  0.00  0.00    +0.000 C 
ATOM     13  C   UNL     1       0.662   3.530  20.203  0.00  0.00    +0.000 C 
ATOM     14  O   UNL     1       1.436   2.777  21.139  0.00  0.00    +0.000 OA
ATOM     15  C   UNL     1       2.774   3.291  21.169  0.00  0.00    +0.000 C 
ATOM     16  C   UNL     1       3.472   3.126  19.803  0.00  0.00    +0.000 C 
ENDBRANCH  10  11
BRANCH   1  19
ATOM     17  C   UNL     1       1.333   8.349  19.857  0.00  0.00    +0.000 A 
ATOM     18  N   UNL     1       2.090   7.952  18.861  0.00  0.00    +0.000 NA
ATOM     19  C   UNL     1       2.625   6.784  19.338  0.00  0.00    +0.000 A 
ATOM     20  N   UNL     1       2.206   6.441  20.570  0.00  0.00    +0.000 NA
ATOM     21  O   UNL     1       1.354   7.489  20.914  0.00  0.00    +0.000 OA
BRANCH  17  26
ATOM     22  C   UNL     1      -0.811  11.084  21.335  0.00  0.00    +0.000 A 
ATOM     23  C   UNL     1      -1.120  11.815  20.181  0.00  0.00    +0.000 A 
ATOM     24  C   UNL     1      -0.629  11.414  18.939  0.00  0.00    +0.000 A 
ATOM     25  C   UNL     1       0.174  10.283  18.835  0.00  0.00    +0.000 A 
ATOM     26  C   UNL     1       0.504   9.529  19.978  0.00  0.00    +0.000 A 
ATOM     27  C   UNL     1       0.008   9.945  21.221  0.00  0.00    +0.000 A 
BRANCH  22  29
ATOM     28  F   UNL     1      -0.734  12.596  23.201  0.00  0.00    +0.000 F 
ATOM     29  C   UNL     1      -1.330  11.483  22.693  0.00  0.00    +0.000 C 
ATOM     30  F   UNL     1      -1.155  10.504  23.622  0.00  0.00    +0.000 F 
ATOM     31  F   UNL     1      -2.665  11.748  22.677  0.00  0.00    +0.000 F 
ENDBRANCH  22  29
ENDBRANCH  17  26
ENDBRANCH   1  19
TORSDOF 4
ENDMDL
MODEL 9
REMARK VINA RESULT:      -9.0      1.562      1.973
REMARK  Name = 
REMARK  4 active torsions:
REMARK  status: ('A' for Active; 'I' for Inactive)
REMARK    1  A    between atoms: C_2  and  C_5
REMARK    2  A    between atoms: C_9  and  C_10
REMARK    3  A    between atoms: C_12  and  C_13
REMARK    4  A    between atoms: C_22  and  N_23
REMARK                            x       y       z     vdW  Elec       q    Type
REMARK                         _______ _______ _______ _____ _____    ______ ____
ROOT
ATOM      1  C   UNL     1       3.583   5.846  18.693  0.00  0.00    +0.000 A 
ATOM      2  C   UNL     1       4.899   6.246  18.563  0.00  0.00    +0.000 A 
ATOM      3  C   UNL     1       5.644   5.533  17.618  0.00  0.00    +0.000 A 
ATOM      4  C   UNL     1       6.936   5.018  17.814  0.00  0.00    +0.000 A 
ATOM      5  C   UNL     1       7.564   4.394  16.737  0.00  0.00    +0.000 A 
ATOM      6  C   UNL     1       7.013   4.545  15.466  0.00  0.00    +0.000 A 
ATOM      7  C   UNL     1       5.680   4.951  15.356  0.00  0.00    +0.000 A 
ATOM      8  C   UNL     1       4.951   5.085  16.522  0.00  0.00    +0.000 A 
ATOM      9  N   UNL     1       3.714   4.569  16.757  0.00  0.00    +0.000 NA
ATOM     10  C   UNL     1       3.232   4.696  18.013  0.00  0.00    +0.000 A 
ENDROOT
BRANCH  10  11
ATOM     11  N   UNL     1       2.706   3.578  18.678  0.00  0.00    +0.000 N 
ATOM     12  C   UNL     1       1.250   3.299  18.735  0.00  0.00    +0.000 C 
ATOM     13  C   UNL     1       0.693   3.268  20.170  0.00  0.00    +0.000 C 
ATOM     14  O   UNL     1       1.474   2.444  21.037  0.00  0.00    +0.000 OA
ATOM     15  C   UNL     1       2.816   2.948  21.087  0.00  0.00    +0.000 C 
ATOM     16  C   UNL     1       3.496   2.882  19.704  0.00  0.00    +0.000 C 
ENDBRANCH  10  11
BRANCH   1  19
ATOM     17  C   UNL     1       1.375   8.116  20.158  0.00  0.00    +0.000 A 
ATOM     18  N   UNL     1       2.156   7.808  19.150  0.00  0.00    +0.000 NA
ATOM     19  C   UNL     1       2.631   6.573  19.506  0.00  0.00    +0.000 A 
ATOM     20  N   UNL     1       2.152   6.106  20.674  0.00  0.00    +0.000 NA
ATOM     21  O   UNL     1       1.324   7.140  21.107  0.00  0.00    +0.000 OA
BRANCH  17  26
ATOM     22  C   UNL     1      -0.873  11.091  19.561  0.00  0.00    +0.000 A 
ATOM     23  C   UNL     1      -0.934  11.626  20.854  0.00  0.00    +0.000 A 
ATOM     24  C   UNL     1      -0.248  11.016  21.903  0.00  0.00    +0.000 A 
ATOM     25  C   UNL     1       0.504   9.867  21.675  0.00  0.00    +0.000 A 
ATOM     26  C   UNL     1       0.583   9.305  20.386  0.00  0.00    +0.000 A 
ATOM     27  C   UNL     1      -0.115   9.926  19.341  0.00  0.00    +0.000 A 
BRANCH  22  29
ATOM     28  F   UNL     1      -0.974  12.839  17.916  0.00  0.00    +0.000 F 
ATOM     29  C   UNL     1      -1.595  11.729  18.401  0.00  0.00    +0.000 C 
ATOM     30  F   UNL     1      -2.858  12.115  18.727  0.00  0.00    +0.000 F 
ATOM     31  F   UNL     1      -1.724  10.881  17.345  0.00  0.00    +0.000 F 
ENDBRANCH  22  29
ENDBRANCH  17  26
ENDBRANCH   1  19
TORSDOF 4
ENDMDL
