MODEL 1
REMARK VINA RESULT:      -7.3      0.000      0.000
REMARK  Name = 
REMARK  14 active torsions:
REMARK  status: ('A' for Active; 'I' for Inactive)
REMARK    1  A    between atoms: C_1  and  O_2
REMARK    2  A    between atoms: O_2  and  C_3
REMARK    3  A    between atoms: C_4  and  O_5
REMARK    4  A    between atoms: O_5  and  C_6
REMARK    5  A    between atoms: C_6  and  C_7
REMARK    6  A    between atoms: C_11  and  C_12
REMARK    7  A    between atoms: N_13  and  C_14
REMARK    8  A    between atoms: C_15  and  C_16
REMARK    9  A    between atoms: C_16  and  C_17
REMARK   10  A    between atoms: C_16  and  C_18
REMARK   11  A    between atoms: C_22  and  C_23
REMARK   12  A    between atoms: C_23  and  C_24
REMARK   13  A    between atoms: C_23  and  C_25
REMARK   14  A    between atoms: C_26  and  N_27
REMARK                            x       y       z     vdW  Elec       q    Type
REMARK                         _______ _______ _______ _____ _____    ______ ____
ROOT
ATOM      1  C   UNL     1       0.820  10.466  20.012  0.00  0.00    +0.000 A 
ATOM      2  C   UNL     1       0.632  10.317  21.399  0.00  0.00    +0.000 A 
ATOM      3  C   UNL     1       0.924   9.126  22.076  0.00  0.00    +0.000 A 
ATOM      4  C   UNL     1       1.471   8.053  21.393  0.00  0.00    +0.000 A 
ATOM      5  C   UNL     1       1.695   8.168  20.025  0.00  0.00    +0.000 A 
ATOM      6  C   UNL     1       1.322   9.338  19.335  0.00  0.00    +0.000 A 
ENDROOT
BRANCH   6   7
ATOM      7  N   UNL     1       1.449   9.301  17.902  0.00  0.00    +0.000 N 
ATOM      8  O   UNL     1       0.454   8.950  17.261  0.00  0.00    +0.000 OA
ATOM      9  O   UNL     1       2.561   9.592  17.435  0.00  0.00    +0.000 OA
ENDBRANCH   6   7
BRANCH   1  11
ATOM     10  C   UNL     1       1.780  12.586  19.355  0.00  0.00    +0.000 C 
ATOM     11  O   UNL     1       0.655  11.735  19.537  0.00  0.00    +0.000 OA
ENDBRANCH   1  11
BRANCH   5  12
ATOM     12  C   UNL     1       2.556   7.123  19.442  0.00  0.00    +0.000 C 
ATOM     13  N   UNL     1       2.151   6.384  18.463  0.00  0.00    +0.000 NA
BRANCH  13  14
ATOM     14  C   UNL     1       2.928   5.277  18.049  0.00  0.00    +0.000 A 
ATOM     15  C   UNL     1       2.472   3.979  18.430  0.00  0.00    +0.000 A 
ATOM     16  C   UNL     1       3.275   2.856  18.143  0.00  0.00    +0.000 A 
ATOM     17  C   UNL     1       4.466   2.978  17.443  0.00  0.00    +0.000 A 
ATOM     18  C   UNL     1       4.869   4.227  16.990  0.00  0.00    +0.000 A 
ATOM     19  C   UNL     1       4.126   5.393  17.276  0.00  0.00    +0.000 A 
BRANCH  15  20
ATOM     20  C   UNL     1       1.159   3.665  19.160  0.00  0.00    +0.000 C 
ATOM     21  C   UNL     1       0.616   2.285  18.785  0.00  0.00    +0.000 C 
ATOM     22  C   UNL     1       1.139   3.876  20.675  0.00  0.00    +0.000 C 
ENDBRANCH  15  20
BRANCH  19  23
ATOM     23  C   UNL     1       4.682   6.719  16.751  0.00  0.00    +0.000 C 
ATOM     24  C   UNL     1       5.944   7.126  17.530  0.00  0.00    +0.000 C 
ATOM     25  C   UNL     1       4.975   6.720  15.247  0.00  0.00    +0.000 C 
ENDBRANCH  19  23
ENDBRANCH  13  14
ENDBRANCH   5  12
BRANCH   2  26
ATOM     26  O   UNL     1       0.274  11.363  22.289  0.00  0.00    +0.000 OA
BRANCH  26  27
ATOM     27  C   UNL     1      -1.020  11.650  22.724  0.00  0.00    +0.000 C 
ATOM     28  C   UNL     1      -1.283  13.103  22.434  0.00  0.00    +0.000 C 
ATOM     29  O   UNL     1      -1.774  10.912  23.342  0.00  0.00    +0.000 OA
ENDBRANCH  26  27
ENDBRANCH   2  26
TORSDOF 8
ENDMDL
MODEL 2
REMARK VINA RESULT:      -7.0      0.467      3.241
REMARK  Name = 
REMARK  14 active torsions:
REMARK  status: ('A' for Active; 'I' for Inactive)
REMARK    1  A    between atoms: C_1  and  O_2
REMARK    2  A    between atoms: O_2  and  C_3
REMARK    3  A    between atoms: C_4  and  O_5
REMARK    4  A    between atoms: O_5  and  C_6
REMARK    5  A    between atoms: C_6  and  C_7
REMARK    6  A    between atoms: C_11  and  C_12
REMARK    7  A    between atoms: N_13  and  C_14
REMARK    8  A    between atoms: C_15  and  C_16
REMARK    9  A    between atoms: C_16  and  C_17
REMARK   10  A    between atoms: C_16  and  C_18
REMARK   11  A    between atoms: C_22  and  C_23
REMARK   12  A    between atoms: C_23  and  C_24
REMARK   13  A    between atoms: C_23  and  C_25
REMARK   14  A    between atoms: C_26  and  N_27
REMARK                            x       y       z     vdW  Elec       q    Type
REMARK                         _______ _______ _______ _____ _____    ______ ____
ROOT
ATOM      1  C   UNL     1       0.920  10.544  19.932  0.00  0.00    +0.000 A 
ATOM      2  C   UNL     1       0.662  10.455  21.312  0.00  0.00    +0.000 A 
ATOM      3  C   UNL     1       0.840   9.271  22.038  0.00  0.00    +0.000 A 
ATOM      4  C   UNL     1       1.342   8.141  21.415  0.00  0.00    +0.000 A 
ATOM      5  C   UNL     1       1.634   8.194  20.057  0.00  0.00    +0.000 A 
ATOM      6  C   UNL     1       1.373   9.362  19.314  0.00  0.00    +0.000 A 
ENDROOT
BRANCH   6   7
ATOM      7  N   UNL     1       1.561   9.268  17.890  0.00  0.00    +0.000 N 
ATOM      8  O   UNL     1       2.686   9.533  17.456  0.00  0.00    +0.000 OA
ATOM      9  O   UNL     1       0.565   8.964  17.217  0.00  0.00    +0.000 OA
ENDBRANCH   6   7
BRANCH   1  11
ATOM     10  C   UNL     1      -0.322  12.268  18.778  0.00  0.00    +0.000 C 
ATOM     11  O   UNL     1       0.864  11.804  19.410  0.00  0.00    +0.000 OA
ENDBRANCH   1  11
BRANCH   5  12
ATOM     12  C   UNL     1       2.446   7.074  19.547  0.00  0.00    +0.000 C 
ATOM     13  N   UNL     1       2.100   6.417  18.490  0.00  0.00    +0.000 NA
BRANCH  13  14
ATOM     14  C   UNL     1       2.800   5.240  18.133  0.00  0.00    +0.000 A 
ATOM     15  C   UNL     1       3.976   5.394  17.340  0.00  0.00    +0.000 A 
ATOM     16  C   UNL     1       4.639   4.245  16.861  0.00  0.00    +0.000 A 
ATOM     17  C   UNL     1       4.210   2.970  17.198  0.00  0.00    +0.000 A 
ATOM     18  C   UNL     1       3.120   2.816  18.044  0.00  0.00    +0.000 A 
ATOM     19  C   UNL     1       2.395   3.927  18.528  0.00  0.00    +0.000 A 
BRANCH  15  20
ATOM     20  C   UNL     1       4.612   6.727  16.923  0.00  0.00    +0.000 C 
ATOM     21  C   UNL     1       5.851   7.053  17.760  0.00  0.00    +0.000 C 
ATOM     22  C   UNL     1       4.882   6.931  15.431  0.00  0.00    +0.000 C 
ENDBRANCH  15  20
BRANCH  19  23
ATOM     23  C   UNL     1       1.193   3.634  19.431  0.00  0.00    +0.000 C 
ATOM     24  C   UNL     1       0.561   2.279  19.073  0.00  0.00    +0.000 C 
ATOM     25  C   UNL     1       1.513   3.681  20.928  0.00  0.00    +0.000 C 
ENDBRANCH  19  23
ENDBRANCH  13  14
ENDBRANCH   5  12
BRANCH   2  26
ATOM     26  O   UNL     1       0.337  11.553  22.152  0.00  0.00    +0.000 OA
BRANCH  26  27
ATOM     27  C   UNL     1      -0.908  11.787  22.735  0.00  0.00    +0.000 C 
ATOM     28  C   UNL     1      -1.097  13.279  22.815  0.00  0.00    +0.000 C 
ATOM     29  O   UNL     1      -1.668  10.960  23.215  0.00  0.00    +0.000 OA
ENDBRANCH  26  27
ENDBRANCH   2  26
TORSDOF 8
ENDMDL
MODEL 3
REMARK VINA RESULT:      -6.8      2.061      4.391
REMARK  Name = 
REMARK  14 active torsions:
REMARK  status: ('A' for Active; 'I' for Inactive)
REMARK    1  A    between atoms: C_1  and  O_2
REMARK    2  A    between atoms: O_2  and  C_3
REMARK    3  A    between atoms: C_4  and  O_5
REMARK    4  A    between atoms: O_5  and  C_6
REMARK    5  A    between atoms: C_6  and  C_7
REMARK    6  A    between atoms: C_11  and  C_12
REMARK    7  A    between atoms: N_13  and  C_14
REMARK    8  A    between atoms: C_15  and  C_16
REMARK    9  A    between atoms: C_16  and  C_17
REMARK   10  A    between atoms: C_16  and  C_18
REMARK   11  A    between atoms: C_22  and  C_23
REMARK   12  A    between atoms: C_23  and  C_24
REMARK   13  A    between atoms: C_23  and  C_25
REMARK   14  A    between atoms: C_26  and  N_27
REMARK                            x       y       z     vdW  Elec       q    Type
REMARK                         _______ _______ _______ _____ _____    ______ ____
ROOT
ATOM      1  C   UNL     1      -0.146   9.912  20.083  0.00  0.00    +0.000 A 
ATOM      2  C   UNL     1      -0.388  10.449  18.805  0.00  0.00    +0.000 A 
ATOM      3  C   UNL     1       0.409  10.143  17.695  0.00  0.00    +0.000 A 
ATOM      4  C   UNL     1       1.450   9.238  17.813  0.00  0.00    +0.000 A 
ATOM      5  C   UNL     1       1.708   8.666  19.054  0.00  0.00    +0.000 A 
ATOM      6  C   UNL     1       0.956   9.041  20.185  0.00  0.00    +0.000 A 
ENDROOT
BRANCH   6   7
ATOM      7  N   UNL     1       1.399   8.514  21.449  0.00  0.00    +0.000 N 
ATOM      8  O   UNL     1       1.211   7.310  21.649  0.00  0.00    +0.000 OA
ATOM      9  O   UNL     1       1.899   9.323  22.244  0.00  0.00    +0.000 OA
ENDBRANCH   6   7
BRANCH   1  11
ATOM     10  C   UNL     1      -0.952  11.243  21.934  0.00  0.00    +0.000 C 
ATOM     11  O   UNL     1      -1.110  10.170  21.014  0.00  0.00    +0.000 OA
ENDBRANCH   1  11
BRANCH   5  12
ATOM     12  C   UNL     1       2.607   7.498  19.030  0.00  0.00    +0.000 C 
ATOM     13  N   UNL     1       2.446   6.541  18.177  0.00  0.00    +0.000 NA
BRANCH  13  14
ATOM     14  C   UNL     1       3.210   5.356  18.297  0.00  0.00    +0.000 A 
ATOM     15  C   UNL     1       4.507   5.352  17.702  0.00  0.00    +0.000 A 
ATOM     16  C   UNL     1       5.256   4.157  17.692  0.00  0.00    +0.000 A 
ATOM     17  C   UNL     1       4.787   3.005  18.305  0.00  0.00    +0.000 A 
ATOM     18  C   UNL     1       3.566   3.029  18.964  0.00  0.00    +0.000 A 
ATOM     19  C   UNL     1       2.755   4.185  18.979  0.00  0.00    +0.000 A 
BRANCH  15  20
ATOM     20  C   UNL     1       5.193   6.550  17.031  0.00  0.00    +0.000 C 
ATOM     21  C   UNL     1       6.630   6.733  17.526  0.00  0.00    +0.000 C 
ATOM     22  C   UNL     1       5.118   6.628  15.505  0.00  0.00    +0.000 C 
ENDBRANCH  15  20
BRANCH  19  23
ATOM     23  C   UNL     1       1.415   4.086  19.714  0.00  0.00    +0.000 C 
ATOM     24  C   UNL     1       0.544   2.971  19.109  0.00  0.00    +0.000 C 
ATOM     25  C   UNL     1       1.547   3.882  21.226  0.00  0.00    +0.000 C 
ENDBRANCH  19  23
ENDBRANCH  13  14
ENDBRANCH   5  12
BRANCH   2  26
ATOM     26  O   UNL     1      -1.520  11.229  18.451  0.00  0.00    +0.000 OA
BRANCH  26  27
ATOM     27  C   UNL     1      -2.402  10.950  17.407  0.00  0.00    +0.000 C 
ATOM     28  C   UNL     1      -3.150   9.695  17.771  0.00  0.00    +0.000 C 
ATOM     29  O   UNL     1      -2.484  11.526  16.332  0.00  0.00    +0.000 OA
ENDBRANCH  26  27
ENDBRANCH   2  26
TORSDOF 8
ENDMDL
MODEL 4
REMARK VINA RESULT:      -6.8      1.773      4.200
REMARK  Name = 
REMARK  14 active torsions:
REMARK  status: ('A' for Active; 'I' for Inactive)
REMARK    1  A    between atoms: C_1  and  O_2
REMARK    2  A    between atoms: O_2  and  C_3
REMARK    3  A    between atoms: C_4  and  O_5
REMARK    4  A    between atoms: O_5  and  C_6
REMARK    5  A    between atoms: C_6  and  C_7
REMARK    6  A    between atoms: C_11  and  C_12
REMARK    7  A    between atoms: N_13  and  C_14
REMARK    8  A    between atoms: C_15  and  C_16
REMARK    9  A    between atoms: C_16  and  C_17
REMARK   10  A    between atoms: C_16  and  C_18
REMARK   11  A    between atoms: C_22  and  C_23
REMARK   12  A    between atoms: C_23  and  C_24
REMARK   13  A    between atoms: C_23  and  C_25
REMARK   14  A    between atoms: C_26  and  N_27
REMARK                            x       y       z     vdW  Elec       q    Type
REMARK                         _______ _______ _______ _____ _____    ______ ____
ROOT
ATOM      1  C   UNL     1       0.412  10.577  19.985  0.00  0.00    +0.000 A 
ATOM      2  C   UNL     1       0.825  11.384  18.909  0.00  0.00    +0.000 A 
ATOM      3  C   UNL     1       1.723  10.938  17.933  0.00  0.00    +0.000 A 
ATOM      4  C   UNL     1       2.200   9.638  17.967  0.00  0.00    +0.000 A 
ATOM      5  C   UNL     1       1.797   8.799  19.001  0.00  0.00    +0.000 A 
ATOM      6  C   UNL     1       0.959   9.280  20.026  0.00  0.00    +0.000 A 
ENDROOT
BRANCH   6   7
ATOM      7  N   UNL     1       0.725   8.387  21.130  0.00  0.00    +0.000 N 
ATOM      8  O   UNL     1       1.649   8.240  21.936  0.00  0.00    +0.000 OA
ATOM      9  O   UNL     1      -0.374   7.813  21.157  0.00  0.00    +0.000 OA
ENDBRANCH   6   7
BRANCH   1  11
ATOM     10  C   UNL     1      -0.300  11.757  21.972  0.00  0.00    +0.000 C 
ATOM     11  O   UNL     1      -0.594  11.096  20.748  0.00  0.00    +0.000 OA
ENDBRANCH   1  11
BRANCH   5  12
ATOM     12  C   UNL     1       2.087   7.369  18.795  0.00  0.00    +0.000 C 
ATOM     13  N   UNL     1       3.196   6.841  19.196  0.00  0.00    +0.000 NA
BRANCH  13  14
ATOM     14  C   UNL     1       3.519   5.515  18.824  0.00  0.00    +0.000 A 
ATOM     15  C   UNL     1       4.423   5.344  17.733  0.00  0.00    +0.000 A 
ATOM     16  C   UNL     1       4.681   4.044  17.251  0.00  0.00    +0.000 A 
ATOM     17  C   UNL     1       4.127   2.925  17.855  0.00  0.00    +0.000 A 
ATOM     18  C   UNL     1       3.320   3.081  18.973  0.00  0.00    +0.000 A 
ATOM     19  C   UNL     1       2.996   4.358  19.481  0.00  0.00    +0.000 A 
BRANCH  15  20
ATOM     20  C   UNL     1       5.159   6.467  16.990  0.00  0.00    +0.000 C 
ATOM     21  C   UNL     1       6.577   6.672  17.529  0.00  0.00    +0.000 C 
ATOM     22  C   UNL     1       5.151   6.410  15.462  0.00  0.00    +0.000 C 
ENDBRANCH  15  20
BRANCH  19  23
ATOM     23  C   UNL     1       2.073   4.408  20.702  0.00  0.00    +0.000 C 
ATOM     24  C   UNL     1       0.598   4.336  20.272  0.00  0.00    +0.000 C 
ATOM     25  C   UNL     1       2.364   3.327  21.748  0.00  0.00    +0.000 C 
ENDBRANCH  19  23
ENDBRANCH  13  14
ENDBRANCH   5  12
BRANCH   2  26
ATOM     26  O   UNL     1       0.292  12.663  18.600  0.00  0.00    +0.000 OA
BRANCH  26  27
ATOM     27  C   UNL     1       0.796  13.883  19.052  0.00  0.00    +0.000 C 
ATOM     28  C   UNL     1      -0.256  14.929  18.798  0.00  0.00    +0.000 C 
ATOM     29  O   UNL     1       1.924  14.110  19.464  0.00  0.00    +0.000 OA
ENDBRANCH  26  27
ENDBRANCH   2  26
TORSDOF 8
ENDMDL
MODEL 5
REMARK VINA RESULT:      -6.6      2.151      2.996
REMARK  Name = 
REMARK  14 active torsions:
REMARK  status: ('A' for Active; 'I' for Inactive)
REMARK    1  A    between atoms: C_1  and  O_2
REMARK    2  A    between atoms: O_2  and  C_3
REMARK    3  A    between atoms: C_4  and  O_5
REMARK    4  A    between atoms: O_5  and  C_6
REMARK    5  A    between atoms: C_6  and  C_7
REMARK    6  A    between atoms: C_11  and  C_12
REMARK    7  A    between atoms: N_13  and  C_14
REMARK    8  A    between atoms: C_15  and  C_16
REMARK    9  A    between atoms: C_16  and  C_17
REMARK   10  A    between atoms: C_16  and  C_18
REMARK   11  A    between atoms: C_22  and  C_23
REMARK   12  A    between atoms: C_23  and  C_24
REMARK   13  A    between atoms: C_23  and  C_25
REMARK   14  A    between atoms: C_26  and  N_27
REMARK                            x       y       z     vdW  Elec       q    Type
REMARK                         _______ _______ _______ _____ _____    ______ ____
ROOT
ATOM      1  C   UNL     1      -0.271   9.878  20.170  0.00  0.00    +0.000 A 
ATOM      2  C   UNL     1      -0.644  10.368  18.905  0.00  0.00    +0.000 A 
ATOM      3  C   UNL     1       0.099  10.110  17.747  0.00  0.00    +0.000 A 
ATOM      4  C   UNL     1       1.220   9.300  17.804  0.00  0.00    +0.000 A 
ATOM      5  C   UNL     1       1.610   8.775  19.032  0.00  0.00    +0.000 A 
ATOM      6  C   UNL     1       0.906   9.105  20.207  0.00  0.00    +0.000 A 
ENDROOT
BRANCH   6   7
ATOM      7  N   UNL     1       1.477   8.641  21.444  0.00  0.00    +0.000 N 
ATOM      8  O   UNL     1       1.990   9.492  22.177  0.00  0.00    +0.000 OA
ATOM      9  O   UNL     1       1.436   7.419  21.651  0.00  0.00    +0.000 OA
ENDBRANCH   6   7
BRANCH   1  11
ATOM     10  C   UNL     1      -1.067  11.173  22.050  0.00  0.00    +0.000 C 
ATOM     11  O   UNL     1      -1.189  10.069  21.162  0.00  0.00    +0.000 OA
ENDBRANCH   1  11
BRANCH   5  12
ATOM     12  C   UNL     1       2.602   7.688  18.960  0.00  0.00    +0.000 C 
ATOM     13  N   UNL     1       2.416   6.653  18.209  0.00  0.00    +0.000 NA
BRANCH  13  14
ATOM     14  C   UNL     1       3.297   5.550  18.300  0.00  0.00    +0.000 A 
ATOM     15  C   UNL     1       2.800   4.368  18.929  0.00  0.00    +0.000 A 
ATOM     16  C   UNL     1       3.678   3.286  19.149  0.00  0.00    +0.000 A 
ATOM     17  C   UNL     1       4.992   3.320  18.711  0.00  0.00    +0.000 A 
ATOM     18  C   UNL     1       5.454   4.430  18.018  0.00  0.00    +0.000 A 
ATOM     19  C   UNL     1       4.635   5.559  17.797  0.00  0.00    +0.000 A 
BRANCH  15  20
ATOM     20  C   UNL     1       1.365   4.147  19.424  0.00  0.00    +0.000 C 
ATOM     21  C   UNL     1       0.648   3.057  18.624  0.00  0.00    +0.000 C 
ATOM     22  C   UNL     1       1.171   3.948  20.928  0.00  0.00    +0.000 C 
ENDBRANCH  15  20
BRANCH  19  23
ATOM     23  C   UNL     1       5.261   6.738  17.046  0.00  0.00    +0.000 C 
ATOM     24  C   UNL     1       6.740   6.905  17.433  0.00  0.00    +0.000 C 
ATOM     25  C   UNL     1       5.127   6.648  15.523  0.00  0.00    +0.000 C 
ENDBRANCH  19  23
ENDBRANCH  13  14
ENDBRANCH   5  12
BRANCH   2  26
ATOM     26  O   UNL     1      -1.861  11.042  18.620  0.00  0.00    +0.000 OA
BRANCH  26  27
ATOM     27  C   UNL     1      -2.940  10.505  17.918  0.00  0.00    +0.000 C 
ATOM     28  C   UNL     1      -3.856  11.644  17.556  0.00  0.00    +0.000 C 
ATOM     29  O   UNL     1      -3.186   9.323  17.729  0.00  0.00    +0.000 OA
ENDBRANCH  26  27
ENDBRANCH   2  26
TORSDOF 8
ENDMDL
MODEL 6
REMARK VINA RESULT:      -6.5      1.790      4.075
REMARK  Name = 
REMARK  14 active torsions:
REMARK  status: ('A' for Active; 'I' for Inactive)
REMARK    1  A    between atoms: C_1  and  O_2
REMARK    2  A    between atoms: O_2  and  C_3
REMARK    3  A    between atoms: C_4  and  O_5
REMARK    4  A    between atoms: O_5  and  C_6
REMARK    5  A    between atoms: C_6  and  C_7
REMARK    6  A    between atoms: C_11  and  C_12
REMARK    7  A    between atoms: N_13  and  C_14
REMARK    8  A    between atoms: C_15  and  C_16
REMARK    9  A    between atoms: C_16  and  C_17
REMARK   10  A    between atoms: C_16  and  C_18
REMARK   11  A    between atoms: C_22  and  C_23
REMARK   12  A    between atoms: C_23  and  C_24
REMARK   13  A    between atoms: C_23  and  C_25
REMARK   14  A    between atoms: C_26  and  N_27
REMARK                            x       y       z     vdW  Elec       q    Type
REMARK                         _______ _______ _______ _____ _____    ______ ____
ROOT
ATOM      1  C   UNL     1       0.018   9.834  20.158  0.00  0.00    +0.000 A 
ATOM      2  C   UNL     1      -0.172  10.492  18.929  0.00  0.00    +0.000 A 
ATOM      3  C   UNL     1       0.606  10.217  17.798  0.00  0.00    +0.000 A 
ATOM      4  C   UNL     1       1.573   9.227  17.842  0.00  0.00    +0.000 A 
ATOM      5  C   UNL     1       1.777   8.536  19.031  0.00  0.00    +0.000 A 
ATOM      6  C   UNL     1       1.049   8.875  20.189  0.00  0.00    +0.000 A 
ENDROOT
BRANCH   6   7
ATOM      7  N   UNL     1       1.440   8.212  21.405  0.00  0.00    +0.000 N 
ATOM      8  O   UNL     1       1.102   7.032  21.532  0.00  0.00    +0.000 OA
ATOM      9  O   UNL     1       2.053   8.896  22.238  0.00  0.00    +0.000 OA
ENDBRANCH   6   7
BRANCH   1  11
ATOM     10  C   UNL     1      -0.621  10.905  22.230  0.00  0.00    +0.000 C 
ATOM     11  O   UNL     1      -0.930  10.089  21.106  0.00  0.00    +0.000 OA
ENDBRANCH   1  11
BRANCH   5  12
ATOM     12  C   UNL     1       2.583   7.308  18.911  0.00  0.00    +0.000 C 
ATOM     13  N   UNL     1       2.366   6.449  17.972  0.00  0.00    +0.000 NA
BRANCH  13  14
ATOM     14  C   UNL     1       3.032   5.201  17.992  0.00  0.00    +0.000 A 
ATOM     15  C   UNL     1       4.220   5.082  17.208  0.00  0.00    +0.000 A 
ATOM     16  C   UNL     1       4.851   3.825  17.103  0.00  0.00    +0.000 A 
ATOM     17  C   UNL     1       4.381   2.719  17.795  0.00  0.00    +0.000 A 
ATOM     18  C   UNL     1       3.281   2.852  18.630  0.00  0.00    +0.000 A 
ATOM     19  C   UNL     1       2.585   4.075  18.750  0.00  0.00    +0.000 A 
BRANCH  15  20
ATOM     20  C   UNL     1       4.899   6.214  16.426  0.00  0.00    +0.000 C 
ATOM     21  C   UNL     1       5.932   6.954  17.278  0.00  0.00    +0.000 C 
ATOM     22  C   UNL     1       5.464   5.864  15.049  0.00  0.00    +0.000 C 
ENDBRANCH  15  20
BRANCH  19  23
ATOM     23  C   UNL     1       1.367   4.095  19.679  0.00  0.00    +0.000 C 
ATOM     24  C   UNL     1       0.341   3.030  19.254  0.00  0.00    +0.000 C 
ATOM     25  C   UNL     1       1.712   3.923  21.162  0.00  0.00    +0.000 C 
ENDBRANCH  19  23
ENDBRANCH  13  14
ENDBRANCH   5  12
BRANCH   2  26
ATOM     26  O   UNL     1      -1.238  11.384  18.640  0.00  0.00    +0.000 OA
BRANCH  26  27
ATOM     27  C   UNL     1      -1.338  12.700  19.092  0.00  0.00    +0.000 C 
ATOM     28  C   UNL     1      -0.268  13.500  18.397  0.00  0.00    +0.000 C 
ATOM     29  O   UNL     1      -2.065  13.125  19.978  0.00  0.00    +0.000 OA
ENDBRANCH  26  27
ENDBRANCH   2  26
TORSDOF 8
ENDMDL
MODEL 7
REMARK VINA RESULT:      -6.4      4.435      8.826
REMARK  Name = 
REMARK  14 active torsions:
REMARK  status: ('A' for Active; 'I' for Inactive)
REMARK    1  A    between atoms: C_1  and  O_2
REMARK    2  A    between atoms: O_2  and  C_3
REMARK    3  A    between atoms: C_4  and  O_5
REMARK    4  A    between atoms: O_5  and  C_6
REMARK    5  A    between atoms: C_6  and  C_7
REMARK    6  A    between atoms: C_11  and  C_12
REMARK    7  A    between atoms: N_13  and  C_14
REMARK    8  A    between atoms: C_15  and  C_16
REMARK    9  A    between atoms: C_16  and  C_17
REMARK   10  A    between atoms: C_16  and  C_18
REMARK   11  A    between atoms: C_22  and  C_23
REMARK   12  A    between atoms: C_23  and  C_24
REMARK   13  A    between atoms: C_23  and  C_25
REMARK   14  A    between atoms: C_26  and  N_27
REMARK                            x       y       z     vdW  Elec       q    Type
REMARK                         _______ _______ _______ _____ _____    ______ ____
ROOT
ATOM      1  C   UNL     1       7.112   4.876  14.860  0.00  0.00    +0.000 A 
ATOM      2  C   UNL     1       6.378   4.018  14.020  0.00  0.00    +0.000 A 
ATOM      3  C   UNL     1       5.216   3.361  14.442  0.00  0.00    +0.000 A 
ATOM      4  C   UNL     1       4.713   3.583  15.713  0.00  0.00    +0.000 A 
ATOM      5  C   UNL     1       5.395   4.443  16.568  0.00  0.00    +0.000 A 
ATOM      6  C   UNL     1       6.608   5.036  16.166  0.00  0.00    +0.000 A 
ENDROOT
BRANCH   6   7
ATOM      7  N   UNL     1       7.318   5.782  17.172  0.00  0.00    +0.000 N 
ATOM      8  O   UNL     1       7.793   5.140  18.113  0.00  0.00    +0.000 OA
ATOM      9  O   UNL     1       7.359   7.013  17.024  0.00  0.00    +0.000 OA
ENDBRANCH   6   7
BRANCH   1  11
ATOM     10  C   UNL     1       8.141   5.695  12.832  0.00  0.00    +0.000 C 
ATOM     11  O   UNL     1       8.114   5.571  14.248  0.00  0.00    +0.000 OA
ENDBRANCH   1  11
BRANCH   5  12
ATOM     12  C   UNL     1       4.642   4.867  17.761  0.00  0.00    +0.000 C 
ATOM     13  N   UNL     1       3.355   4.977  17.741  0.00  0.00    +0.000 NA
BRANCH  13  14
ATOM     14  C   UNL     1       2.681   5.557  18.842  0.00  0.00    +0.000 A 
ATOM     15  C   UNL     1       2.445   6.964  18.795  0.00  0.00    +0.000 A 
ATOM     16  C   UNL     1       1.885   7.606  19.920  0.00  0.00    +0.000 A 
ATOM     17  C   UNL     1       1.499   6.890  21.043  0.00  0.00    +0.000 A 
ATOM     18  C   UNL     1       1.642   5.509  21.057  0.00  0.00    +0.000 A 
ATOM     19  C   UNL     1       2.228   4.814  19.976  0.00  0.00    +0.000 A 
BRANCH  15  20
ATOM     20  C   UNL     1       2.763   7.891  17.614  0.00  0.00    +0.000 C 
ATOM     21  C   UNL     1       2.015   9.222  17.718  0.00  0.00    +0.000 C 
ATOM     22  C   UNL     1       4.240   8.111  17.281  0.00  0.00    +0.000 C 
ENDBRANCH  15  20
BRANCH  19  23
ATOM     23  C   UNL     1       2.361   3.295  20.116  0.00  0.00    +0.000 C 
ATOM     24  C   UNL     1       2.233   2.871  21.589  0.00  0.00    +0.000 C 
ATOM     25  C   UNL     1       1.371   2.502  19.257  0.00  0.00    +0.000 C 
ENDBRANCH  19  23
ENDBRANCH  13  14
ENDBRANCH   5  12
BRANCH   2  26
ATOM     26  O   UNL     1       6.625   3.828  12.635  0.00  0.00    +0.000 OA
BRANCH  26  27
ATOM     27  C   UNL     1       5.971   2.909  11.813  0.00  0.00    +0.000 C 
ATOM     28  C   UNL     1       7.005   1.939  11.308  0.00  0.00    +0.000 C 
ATOM     29  O   UNL     1       4.804   2.938  11.453  0.00  0.00    +0.000 OA
ENDBRANCH  26  27
ENDBRANCH   2  26
TORSDOF 8
ENDMDL
MODEL 8
REMARK VINA RESULT:      -6.4      1.723      2.683
REMARK  Name = 
REMARK  14 active torsions:
REMARK  status: ('A' for Active; 'I' for Inactive)
REMARK    1  A    between atoms: C_1  and  O_2
REMARK    2  A    between atoms: O_2  and  C_3
REMARK    3  A    between atoms: C_4  and  O_5
REMARK    4  A    between atoms: O_5  and  C_6
REMARK    5  A    between atoms: C_6  and  C_7
REMARK    6  A    between atoms: C_11  and  C_12
REMARK    7  A    between atoms: N_13  and  C_14
REMARK    8  A    between atoms: C_15  and  C_16
REMARK    9  A    between atoms: C_16  and  C_17
REMARK   10  A    between atoms: C_16  and  C_18
REMARK   11  A    between atoms: C_22  and  C_23
REMARK   12  A    between atoms: C_23  and  C_24
REMARK   13  A    between atoms: C_23  and  C_25
REMARK   14  A    between atoms: C_26  and  N_27
REMARK                            x       y       z     vdW  Elec       q    Type
REMARK                         _______ _______ _______ _____ _____    ______ ____
ROOT
ATOM      1  C   UNL     1       0.456  10.514  20.021  0.00  0.00    +0.000 A 
ATOM      2  C   UNL     1       0.867  11.394  19.002  0.00  0.00    +0.000 A 
ATOM      3  C   UNL     1       1.730  11.004  17.971  0.00  0.00    +0.000 A 
ATOM      4  C   UNL     1       2.173   9.694  17.891  0.00  0.00    +0.000 A 
ATOM      5  C   UNL     1       1.771   8.786  18.866  0.00  0.00    +0.000 A 
ATOM      6  C   UNL     1       0.970   9.205  19.946  0.00  0.00    +0.000 A 
ENDROOT
BRANCH   6   7
ATOM      7  N   UNL     1       0.738   8.233  20.982  0.00  0.00    +0.000 N 
ATOM      8  O   UNL     1      -0.396   7.752  21.053  0.00  0.00    +0.000 OA
ATOM      9  O   UNL     1       1.690   7.989  21.738  0.00  0.00    +0.000 OA
ENDBRANCH   6   7
BRANCH   1  11
ATOM     10  C   UNL     1      -0.220  11.311  22.201  0.00  0.00    +0.000 C 
ATOM     11  O   UNL     1      -0.518  10.995  20.847  0.00  0.00    +0.000 OA
ENDBRANCH   1  11
BRANCH   5  12
ATOM     12  C   UNL     1       2.018   7.370  18.541  0.00  0.00    +0.000 C 
ATOM     13  N   UNL     1       3.144   6.801  18.821  0.00  0.00    +0.000 NA
BRANCH  13  14
ATOM     14  C   UNL     1       3.414   5.499  18.336  0.00  0.00    +0.000 A 
ATOM     15  C   UNL     1       2.769   4.410  18.995  0.00  0.00    +0.000 A 
ATOM     16  C   UNL     1       3.099   3.089  18.625  0.00  0.00    +0.000 A 
ATOM     17  C   UNL     1       3.986   2.828  17.592  0.00  0.00    +0.000 A 
ATOM     18  C   UNL     1       4.545   3.885  16.886  0.00  0.00    +0.000 A 
ATOM     19  C   UNL     1       4.281   5.228  17.232  0.00  0.00    +0.000 A 
BRANCH  15  20
ATOM     20  C   UNL     1       1.729   4.525  20.118  0.00  0.00    +0.000 C 
ATOM     21  C   UNL     1       0.576   3.538  19.929  0.00  0.00    +0.000 C 
ATOM     22  C   UNL     1       2.252   4.498  21.555  0.00  0.00    +0.000 C 
ENDBRANCH  15  20
BRANCH  19  23
ATOM     23  C   UNL     1       4.977   6.310  16.402  0.00  0.00    +0.000 C 
ATOM     24  C   UNL     1       6.142   6.936  17.190  0.00  0.00    +0.000 C 
ATOM     25  C   UNL     1       5.473   5.826  15.036  0.00  0.00    +0.000 C 
ENDBRANCH  19  23
ENDBRANCH  13  14
ENDBRANCH   5  12
BRANCH   2  26
ATOM     26  O   UNL     1       0.361  12.706  18.807  0.00  0.00    +0.000 OA
BRANCH  26  27
ATOM     27  C   UNL     1       0.835  13.859  19.433  0.00  0.00    +0.000 C 
ATOM     28  C   UNL     1      -0.357  14.600  19.978  0.00  0.00    +0.000 C 
ATOM     29  O   UNL     1       1.983  14.277  19.442  0.00  0.00    +0.000 OA
ENDBRANCH  26  27
ENDBRANCH   2  26
TORSDOF 8
ENDMDL
MODEL 9
REMARK VINA RESULT:      -6.4      1.011      1.249
REMARK  Name = 
REMARK  14 active torsions:
REMARK  status: ('A' for Active; 'I' for Inactive)
REMARK    1  A    between atoms: C_1  and  O_2
REMARK    2  A    between atoms: O_2  and  C_3
REMARK    3  A    between atoms: C_4  and  O_5
REMARK    4  A    between atoms: O_5  and  C_6
REMARK    5  A    between atoms: C_6  and  C_7
REMARK    6  A    between atoms: C_11  and  C_12
REMARK    7  A    between atoms: N_13  and  C_14
REMARK    8  A    between atoms: C_15  and  C_16
REMARK    9  A    between atoms: C_16  and  C_17
REMARK   10  A    between atoms: C_16  and  C_18
REMARK   11  A    between atoms: C_22  and  C_23
REMARK   12  A    between atoms: C_23  and  C_24
REMARK   13  A    between atoms: C_23  and  C_25
REMARK   14  A    between atoms: C_26  and  N_27
REMARK                            x       y       z     vdW  Elec       q    Type
REMARK                         _______ _______ _______ _____ _____    ______ ____
ROOT
ATOM      1  C   UNL     1       0.971  10.721  19.699  0.00  0.00    +0.000 A 
ATOM      2  C   UNL     1       0.825  10.776  21.098  0.00  0.00    +0.000 A 
ATOM      3  C   UNL     1       0.857   9.634  21.906  0.00  0.00    +0.000 A 
ATOM      4  C   UNL     1       1.095   8.390  21.345  0.00  0.00    +0.000 A 
ATOM      5  C   UNL     1       1.268   8.294  19.968  0.00  0.00    +0.000 A 
ATOM      6  C   UNL     1       1.152   9.436  19.151  0.00  0.00    +0.000 A 
ENDROOT
BRANCH   6   7
ATOM      7  N   UNL     1       1.192   9.210  17.730  0.00  0.00    +0.000 N 
ATOM      8  O   UNL     1       2.301   9.255  17.188  0.00  0.00    +0.000 OA
ATOM      9  O   UNL     1       0.104   9.025  17.166  0.00  0.00    +0.000 OA
ENDBRANCH   6   7
BRANCH   1  11
ATOM     10  C   UNL     1      -0.051  12.565  18.516  0.00  0.00    +0.000 C 
ATOM     11  O   UNL     1       1.090  11.930  19.079  0.00  0.00    +0.000 OA
ENDBRANCH   1  11
BRANCH   5  12
ATOM     12  C   UNL     1       1.823   7.013  19.496  0.00  0.00    +0.000 C 
ATOM     13  N   UNL     1       3.030   6.654  19.783  0.00  0.00    +0.000 NA
BRANCH  13  14
ATOM     14  C   UNL     1       3.589   5.509  19.167  0.00  0.00    +0.000 A 
ATOM     15  C   UNL     1       3.160   4.235  19.645  0.00  0.00    +0.000 A 
ATOM     16  C   UNL     1       3.777   3.069  19.145  0.00  0.00    +0.000 A 
ATOM     17  C   UNL     1       4.744   3.131  18.153  0.00  0.00    +0.000 A 
ATOM     18  C   UNL     1       5.099   4.363  17.620  0.00  0.00    +0.000 A 
ATOM     19  C   UNL     1       4.543   5.567  18.103  0.00  0.00    +0.000 A 
BRANCH  15  20
ATOM     20  C   UNL     1       2.071   3.988  20.697  0.00  0.00    +0.000 C 
ATOM     21  C   UNL     1       0.713   3.701  20.054  0.00  0.00    +0.000 C 
ATOM     22  C   UNL     1       2.386   2.977  21.801  0.00  0.00    +0.000 C 
ENDBRANCH  15  20
BRANCH  19  23
ATOM     23  C   UNL     1       5.031   6.868  17.459  0.00  0.00    +0.000 C 
ATOM     24  C   UNL     1       6.540   7.055  17.689  0.00  0.00    +0.000 C 
ATOM     25  C   UNL     1       4.714   6.980  15.964  0.00  0.00    +0.000 C 
ENDBRANCH  19  23
ENDBRANCH  13  14
ENDBRANCH   5  12
BRANCH   2  26
ATOM     26  O   UNL     1       0.774  11.971  21.864  0.00  0.00    +0.000 OA
BRANCH  26  27
ATOM     27  C   UNL     1      -0.388  12.642  22.243  0.00  0.00    +0.000 C 
ATOM     28  C   UNL     1      -0.145  14.115  22.044  0.00  0.00    +0.000 C 
ATOM     29  O   UNL     1      -1.385  12.162  22.761  0.00  0.00    +0.000 OA
ENDBRANCH  26  27
ENDBRANCH   2  26
TORSDOF 8
ENDMDL
