MODEL 1
REMARK VINA RESULT:      -8.0      0.000      0.000
REMARK  Name = 
REMARK  7 active torsions:
REMARK  status: ('A' for Active; 'I' for Inactive)
REMARK    1  A    between atoms: C_1  and  C_2
REMARK    2  A    between atoms: C_2  and  O_3
REMARK    3  A    between atoms: O_3  and  C_4
REMARK    4  A    between atoms: C_7  and  O_8
REMARK    5  A    between atoms: O_8  and  C_9
REMARK    6  A    between atoms: C_9  and  C_10
REMARK    7  A    between atoms: C_21  and  C_22
REMARK                            x       y       z     vdW  Elec       q    Type
REMARK                         _______ _______ _______ _____ _____    ______ ____
ROOT
ATOM      1  C   UNL     1       5.633   6.155  16.682  0.00  0.00    +0.000 A 
ATOM      2  C   UNL     1       4.732   6.288  17.761  0.00  0.00    +0.000 A 
ATOM      3  C   UNL     1       3.695   5.348  18.002  0.00  0.00    +0.000 A 
ATOM      4  C   UNL     1       2.764   5.383  19.068  0.00  0.00    +0.000 A 
ATOM      5  N   UNL     1       1.754   4.490  19.214  0.00  0.00    +0.000 NA
ATOM      6  C   UNL     1       1.677   3.486  18.328  0.00  0.00    +0.000 A 
ATOM      7  C   UNL     1       2.561   3.324  17.283  0.00  0.00    +0.000 A 
ATOM      8  C   UNL     1       3.581   4.260  17.114  0.00  0.00    +0.000 A 
ATOM      9  C   UNL     1       4.515   4.099  16.077  0.00  0.00    +0.000 A 
ATOM     10  C   UNL     1       5.558   5.017  15.865  0.00  0.00    +0.000 A 
ENDROOT
BRANCH  10  11
ATOM     11  C   UNL     1       6.589   4.647  14.853  0.00  0.00    +0.000 C 
ATOM     12  N   UNL     1       7.728   5.410  14.808  0.00  0.00    +0.000 N 
ATOM     13  O   UNL     1       6.452   3.712  14.076  0.00  0.00    +0.000 OA
ATOM     14  H   UNL     1       7.953   6.146  15.461  0.00  0.00    +0.000 HD
ATOM     15  H   UNL     1       8.438   5.128  14.143  0.00  0.00    +0.000 HD
ENDBRANCH  10  11
BRANCH   1  16
ATOM     16  O   UNL     1       6.519   7.198  16.603  0.00  0.00    +0.000 OA
BRANCH  16  18
ATOM     17  C   UNL     1       7.925   8.794  17.715  0.00  0.00    +0.000 C 
ATOM     18  C   UNL     1       7.506   7.338  17.629  0.00  0.00    +0.000 C 
ENDBRANCH  16  18
ENDBRANCH   1  16
BRANCH   4  19
ATOM     19  O   UNL     1       2.898   6.350  20.059  0.00  0.00    +0.000 OA
BRANCH  19  20
ATOM     20  C   UNL     1       1.619   6.661  20.645  0.00  0.00    +0.000 C 
BRANCH  20  21
ATOM     21  C   UNL     1       1.396   8.163  20.833  0.00  0.00    +0.000 C 
ATOM     22  C   UNL     1       0.085   8.572  21.486  0.00  0.00    +0.000 C 
ATOM     23  C   UNL     1      -0.069  10.032  21.057  0.00  0.00    +0.000 C 
ATOM     24  C   UNL     1       0.633  10.064  19.721  0.00  0.00    +0.000 C 
ATOM     25  O   UNL     1       0.600  10.968  18.906  0.00  0.00    +0.000 OA
ATOM     26  N   UNL     1       1.384   8.914  19.607  0.00  0.00    +0.000 N 
ATOM     27  H   UNL     1       2.037   8.806  18.840  0.00  0.00    +0.000 HD
ENDBRANCH  20  21
ENDBRANCH  19  20
ENDBRANCH   4  19
TORSDOF 6
ENDMDL
MODEL 2
REMARK VINA RESULT:      -7.8      3.897      5.328
REMARK  Name = 
REMARK  7 active torsions:
REMARK  status: ('A' for Active; 'I' for Inactive)
REMARK    1  A    between atoms: C_1  and  C_2
REMARK    2  A    between atoms: C_2  and  O_3
REMARK    3  A    between atoms: O_3  and  C_4
REMARK    4  A    between atoms: C_7  and  O_8
REMARK    5  A    between atoms: O_8  and  C_9
REMARK    6  A    between atoms: C_9  and  C_10
REMARK    7  A    between atoms: C_21  and  C_22
REMARK                            x       y       z     vdW  Elec       q    Type
REMARK                         _______ _______ _______ _____ _____    ______ ____
ROOT
ATOM      1  C   UNL     1       6.097   3.985  13.900  0.00  0.00    +0.000 A 
ATOM      2  C   UNL     1       5.211   3.688  14.958  0.00  0.00    +0.000 A 
ATOM      3  C   UNL     1       5.435   4.147  16.283  0.00  0.00    +0.000 A 
ATOM      4  C   UNL     1       4.593   3.923  17.400  0.00  0.00    +0.000 A 
ATOM      5  N   UNL     1       4.889   4.334  18.658  0.00  0.00    +0.000 NA
ATOM      6  C   UNL     1       6.014   5.043  18.834  0.00  0.00    +0.000 A 
ATOM      7  C   UNL     1       6.879   5.363  17.810  0.00  0.00    +0.000 A 
ATOM      8  C   UNL     1       6.591   4.914  16.522  0.00  0.00    +0.000 A 
ATOM      9  C   UNL     1       7.439   5.257  15.456  0.00  0.00    +0.000 A 
ATOM     10  C   UNL     1       7.193   4.826  14.140  0.00  0.00    +0.000 A 
ENDROOT
BRANCH  10  11
ATOM     11  C   UNL     1       8.056   5.400  13.068  0.00  0.00    +0.000 C 
ATOM     12  N   UNL     1       7.677   5.177  11.769  0.00  0.00    +0.000 N 
ATOM     13  O   UNL     1       9.071   6.040  13.304  0.00  0.00    +0.000 OA
ATOM     14  H   UNL     1       6.817   4.728  11.491  0.00  0.00    +0.000 HD
ATOM     15  H   UNL     1       8.248   5.602  11.049  0.00  0.00    +0.000 HD
ENDBRANCH  10  11
BRANCH   1  16
ATOM     16  O   UNL     1       5.720   3.402  12.718  0.00  0.00    +0.000 OA
BRANCH  16  18
ATOM     17  C   UNL     1       4.198   2.853  10.945  0.00  0.00    +0.000 C 
ATOM     18  C   UNL     1       4.404   3.654  12.218  0.00  0.00    +0.000 C 
ENDBRANCH  16  18
ENDBRANCH   1  16
BRANCH   4  19
ATOM     19  O   UNL     1       3.368   3.290  17.215  0.00  0.00    +0.000 OA
BRANCH  19  20
ATOM     20  C   UNL     1       3.333   2.033  17.919  0.00  0.00    +0.000 C 
BRANCH  20  21
ATOM     21  C   UNL     1       2.389   2.048  19.123  0.00  0.00    +0.000 C 
ATOM     22  C   UNL     1       1.208   3.003  19.039  0.00  0.00    +0.000 C 
ATOM     23  C   UNL     1       0.806   3.177  20.505  0.00  0.00    +0.000 C 
ATOM     24  C   UNL     1       2.115   2.995  21.235  0.00  0.00    +0.000 C 
ATOM     25  O   UNL     1       2.332   3.240  22.408  0.00  0.00    +0.000 OA
ATOM     26  N   UNL     1       3.017   2.432  20.358  0.00  0.00    +0.000 N 
ATOM     27  H   UNL     1       3.916   2.106  20.692  0.00  0.00    +0.000 HD
ENDBRANCH  20  21
ENDBRANCH  19  20
ENDBRANCH   4  19
TORSDOF 6
ENDMDL
MODEL 3
REMARK VINA RESULT:      -7.8      4.180      8.032
REMARK  Name = 
REMARK  7 active torsions:
REMARK  status: ('A' for Active; 'I' for Inactive)
REMARK    1  A    between atoms: C_1  and  C_2
REMARK    2  A    between atoms: C_2  and  O_3
REMARK    3  A    between atoms: O_3  and  C_4
REMARK    4  A    between atoms: C_7  and  O_8
REMARK    5  A    between atoms: O_8  and  C_9
REMARK    6  A    between atoms: C_9  and  C_10
REMARK    7  A    between atoms: C_21  and  C_22
REMARK                            x       y       z     vdW  Elec       q    Type
REMARK                         _______ _______ _______ _____ _____    ______ ____
ROOT
ATOM      1  C   UNL     1       3.879   3.267  18.022  0.00  0.00    +0.000 A 
ATOM      2  C   UNL     1       4.433   3.944  16.914  0.00  0.00    +0.000 A 
ATOM      3  C   UNL     1       5.549   4.813  17.039  0.00  0.00    +0.000 A 
ATOM      4  C   UNL     1       6.187   5.512  15.987  0.00  0.00    +0.000 A 
ATOM      5  N   UNL     1       7.214   6.378  16.173  0.00  0.00    +0.000 NA
ATOM      6  C   UNL     1       7.684   6.528  17.421  0.00  0.00    +0.000 A 
ATOM      7  C   UNL     1       7.173   5.858  18.511  0.00  0.00    +0.000 A 
ATOM      8  C   UNL     1       6.097   4.991  18.324  0.00  0.00    +0.000 A 
ATOM      9  C   UNL     1       5.581   4.270  19.414  0.00  0.00    +0.000 A 
ATOM     10  C   UNL     1       4.496   3.387  19.276  0.00  0.00    +0.000 A 
ENDROOT
BRANCH  10  11
ATOM     11  C   UNL     1       4.154   2.546  20.459  0.00  0.00    +0.000 C 
ATOM     12  N   UNL     1       5.061   1.585  20.830  0.00  0.00    +0.000 N 
ATOM     13  O   UNL     1       3.114   2.676  21.089  0.00  0.00    +0.000 OA
ATOM     14  H   UNL     1       5.973   1.465  20.414  0.00  0.00    +0.000 HD
ATOM     15  H   UNL     1       4.838   1.044  21.656  0.00  0.00    +0.000 HD
ENDBRANCH  10  11
BRANCH   1  16
ATOM     16  O   UNL     1       2.777   2.523  17.689  0.00  0.00    +0.000 OA
BRANCH  16  18
ATOM     17  C   UNL     1       0.687   2.227  18.833  0.00  0.00    +0.000 C 
ATOM     18  C   UNL     1       1.480   3.098  17.875  0.00  0.00    +0.000 C 
ENDBRANCH  16  18
ENDBRANCH   1  16
BRANCH   4  19
ATOM     19  O   UNL     1       5.789   5.282  14.674  0.00  0.00    +0.000 OA
BRANCH  19  20
ATOM     20  C   UNL     1       6.778   4.508  13.968  0.00  0.00    +0.000 C 
BRANCH  20  21
ATOM     21  C   UNL     1       6.271   3.968  12.629  0.00  0.00    +0.000 C 
ATOM     22  C   UNL     1       4.773   3.733  12.523  0.00  0.00    +0.000 C 
ATOM     23  C   UNL     1       4.664   2.747  11.358  0.00  0.00    +0.000 C 
ATOM     24  C   UNL     1       5.965   1.986  11.442  0.00  0.00    +0.000 C 
ATOM     25  O   UNL     1       6.247   0.964  10.842  0.00  0.00    +0.000 OA
ATOM     26  N   UNL     1       6.816   2.687  12.268  0.00  0.00    +0.000 N 
ATOM     27  H   UNL     1       7.788   2.413  12.347  0.00  0.00    +0.000 HD
ENDBRANCH  20  21
ENDBRANCH  19  20
ENDBRANCH   4  19
TORSDOF 6
ENDMDL
MODEL 4
REMARK VINA RESULT:      -7.8      1.283      1.485
REMARK  Name = 
REMARK  7 active torsions:
REMARK  status: ('A' for Active; 'I' for Inactive)
REMARK    1  A    between atoms: C_1  and  C_2
REMARK    2  A    between atoms: C_2  and  O_3
REMARK    3  A    between atoms: O_3  and  C_4
REMARK    4  A    between atoms: C_7  and  O_8
REMARK    5  A    between atoms: O_8  and  C_9
REMARK    6  A    between atoms: C_9  and  C_10
REMARK    7  A    between atoms: C_21  and  C_22
REMARK                            x       y       z     vdW  Elec       q    Type
REMARK                         _______ _______ _______ _____ _____    ______ ____
ROOT
ATOM      1  C   UNL     1       5.451   6.066  16.677  0.00  0.00    +0.000 A 
ATOM      2  C   UNL     1       4.551   6.341  17.729  0.00  0.00    +0.000 A 
ATOM      3  C   UNL     1       3.526   5.433  18.104  0.00  0.00    +0.000 A 
ATOM      4  C   UNL     1       2.597   5.609  19.159  0.00  0.00    +0.000 A 
ATOM      5  N   UNL     1       1.597   4.735  19.434  0.00  0.00    +0.000 NA
ATOM      6  C   UNL     1       1.530   3.614  18.699  0.00  0.00    +0.000 A 
ATOM      7  C   UNL     1       2.413   3.316  17.684  0.00  0.00    +0.000 A 
ATOM      8  C   UNL     1       3.422   4.229  17.381  0.00  0.00    +0.000 A 
ATOM      9  C   UNL     1       4.355   3.933  16.374  0.00  0.00    +0.000 A 
ATOM     10  C   UNL     1       5.388   4.823  16.029  0.00  0.00    +0.000 A 
ENDROOT
BRANCH  10  11
ATOM     11  C   UNL     1       6.420   4.324  15.077  0.00  0.00    +0.000 C 
ATOM     12  N   UNL     1       7.724   4.672  15.324  0.00  0.00    +0.000 N 
ATOM     13  O   UNL     1       6.149   3.638  14.101  0.00  0.00    +0.000 OA
ATOM     14  H   UNL     1       8.041   5.167  16.145  0.00  0.00    +0.000 HD
ATOM     15  H   UNL     1       8.423   4.298  14.693  0.00  0.00    +0.000 HD
ENDBRANCH  10  11
BRANCH   1  16
ATOM     16  O   UNL     1       6.325   7.096  16.447  0.00  0.00    +0.000 OA
BRANCH  16  18
ATOM     17  C   UNL     1       7.817   6.625  18.268  0.00  0.00    +0.000 C 
ATOM     18  C   UNL     1       6.994   7.689  17.564  0.00  0.00    +0.000 C 
ENDBRANCH  16  18
ENDBRANCH   1  16
BRANCH   4  19
ATOM     19  O   UNL     1       2.722   6.708  20.002  0.00  0.00    +0.000 OA
BRANCH  19  20
ATOM     20  C   UNL     1       2.007   7.842  19.472  0.00  0.00    +0.000 C 
BRANCH  20  21
ATOM     21  C   UNL     1       0.956   8.391  20.439  0.00  0.00    +0.000 C 
ATOM     22  C   UNL     1       0.470   9.807  20.170  0.00  0.00    +0.000 C 
ATOM     23  C   UNL     1      -0.107  10.232  21.522  0.00  0.00    +0.000 C 
ATOM     24  C   UNL     1       0.730   9.448  22.504  0.00  0.00    +0.000 C 
ATOM     25  O   UNL     1       0.771   9.607  23.711  0.00  0.00    +0.000 OA
ATOM     26  N   UNL     1       1.396   8.465  21.806  0.00  0.00    +0.000 N 
ATOM     27  H   UNL     1       1.907   7.745  22.303  0.00  0.00    +0.000 HD
ENDBRANCH  20  21
ENDBRANCH  19  20
ENDBRANCH   4  19
TORSDOF 6
ENDMDL
MODEL 5
REMARK VINA RESULT:      -7.8      1.988      6.583
REMARK  Name = 
REMARK  7 active torsions:
REMARK  status: ('A' for Active; 'I' for Inactive)
REMARK    1  A    between atoms: C_1  and  C_2
REMARK    2  A    between atoms: C_2  and  O_3
REMARK    3  A    between atoms: O_3  and  C_4
REMARK    4  A    between atoms: C_7  and  O_8
REMARK    5  A    between atoms: O_8  and  C_9
REMARK    6  A    between atoms: C_9  and  C_10
REMARK    7  A    between atoms: C_21  and  C_22
REMARK                            x       y       z     vdW  Elec       q    Type
REMARK                         _______ _______ _______ _____ _____    ______ ____
ROOT
ATOM      1  C   UNL     1       2.292   7.307  19.192  0.00  0.00    +0.000 A 
ATOM      2  C   UNL     1       2.535   6.106  18.490  0.00  0.00    +0.000 A 
ATOM      3  C   UNL     1       2.230   4.833  19.040  0.00  0.00    +0.000 A 
ATOM      4  C   UNL     1       2.413   3.581  18.404  0.00  0.00    +0.000 A 
ATOM      5  N   UNL     1       2.161   2.390  19.002  0.00  0.00    +0.000 NA
ATOM      6  C   UNL     1       1.652   2.411  20.243  0.00  0.00    +0.000 A 
ATOM      7  C   UNL     1       1.385   3.573  20.936  0.00  0.00    +0.000 A 
ATOM      8  C   UNL     1       1.673   4.797  20.333  0.00  0.00    +0.000 A 
ATOM      9  C   UNL     1       1.378   5.994  21.005  0.00  0.00    +0.000 A 
ATOM     10  C   UNL     1       1.654   7.252  20.440  0.00  0.00    +0.000 A 
ENDROOT
BRANCH  10  11
ATOM     11  C   UNL     1       1.133   8.447  21.164  0.00  0.00    +0.000 C 
ATOM     12  N   UNL     1       1.852   8.891  22.245  0.00  0.00    +0.000 N 
ATOM     13  O   UNL     1       0.105   9.025  20.839  0.00  0.00    +0.000 OA
ATOM     14  H   UNL     1       2.747   8.521  22.530  0.00  0.00    +0.000 HD
ATOM     15  H   UNL     1       1.510   9.725  22.707  0.00  0.00    +0.000 HD
ENDBRANCH  10  11
BRANCH   1  16
ATOM     16  O   UNL     1       2.708   8.415  18.502  0.00  0.00    +0.000 OA
BRANCH  16  18
ATOM     17  C   UNL     1       1.762  10.595  18.158  0.00  0.00    +0.000 C 
ATOM     18  C   UNL     1       1.748   9.140  17.725  0.00  0.00    +0.000 C 
ENDBRANCH  16  18
ENDBRANCH   1  16
BRANCH   4  19
ATOM     19  O   UNL     1       2.831   3.544  17.078  0.00  0.00    +0.000 OA
BRANCH  19  20
ATOM     20  C   UNL     1       4.242   3.262  16.995  0.00  0.00    +0.000 C 
BRANCH  20  21
ATOM     21  C   UNL     1       5.010   4.295  16.168  0.00  0.00    +0.000 C 
ATOM     22  C   UNL     1       6.020   3.743  15.173  0.00  0.00    +0.000 C 
ATOM     23  C   UNL     1       6.944   4.937  14.927  0.00  0.00    +0.000 C 
ATOM     24  C   UNL     1       6.880   5.685  16.236  0.00  0.00    +0.000 C 
ATOM     25  O   UNL     1       7.605   6.599  16.586  0.00  0.00    +0.000 OA
ATOM     26  N   UNL     1       5.805   5.202  16.951  0.00  0.00    +0.000 N 
ATOM     27  H   UNL     1       5.509   5.667  17.801  0.00  0.00    +0.000 HD
ENDBRANCH  20  21
ENDBRANCH  19  20
ENDBRANCH   4  19
TORSDOF 6
ENDMDL
MODEL 6
REMARK VINA RESULT:      -7.7      2.869      8.186
REMARK  Name = 
REMARK  7 active torsions:
REMARK  status: ('A' for Active; 'I' for Inactive)
REMARK    1  A    between atoms: C_1  and  C_2
REMARK    2  A    between atoms: C_2  and  O_3
REMARK    3  A    between atoms: O_3  and  C_4
REMARK    4  A    between atoms: C_7  and  O_8
REMARK    5  A    between atoms: O_8  and  C_9
REMARK    6  A    between atoms: C_9  and  C_10
REMARK    7  A    between atoms: C_21  and  C_22
REMARK                            x       y       z     vdW  Elec       q    Type
REMARK                         _______ _______ _______ _____ _____    ______ ____
ROOT
ATOM      1  C   UNL     1       2.998   4.383  17.921  0.00  0.00    +0.000 A 
ATOM      2  C   UNL     1       3.942   4.259  16.878  0.00  0.00    +0.000 A 
ATOM      3  C   UNL     1       5.177   4.960  16.889  0.00  0.00    +0.000 A 
ATOM      4  C   UNL     1       6.193   4.879  15.906  0.00  0.00    +0.000 A 
ATOM      5  N   UNL     1       7.329   5.619  15.936  0.00  0.00    +0.000 NA
ATOM      6  C   UNL     1       7.520   6.425  16.992  0.00  0.00    +0.000 A 
ATOM      7  C   UNL     1       6.622   6.541  18.032  0.00  0.00    +0.000 A 
ATOM      8  C   UNL     1       5.440   5.804  17.985  0.00  0.00    +0.000 A 
ATOM      9  C   UNL     1       4.525   5.879  19.048  0.00  0.00    +0.000 A 
ATOM     10  C   UNL     1       3.319   5.158  19.045  0.00  0.00    +0.000 A 
ENDROOT
BRANCH  10  11
ATOM     11  C   UNL     1       2.518   5.176  20.303  0.00  0.00    +0.000 C 
ATOM     12  N   UNL     1       1.886   6.348  20.630  0.00  0.00    +0.000 N 
ATOM     13  O   UNL     1       2.415   4.204  21.039  0.00  0.00    +0.000 OA
ATOM     14  H   UNL     1       1.856   7.168  20.041  0.00  0.00    +0.000 HD
ATOM     15  H   UNL     1       1.314   6.340  21.465  0.00  0.00    +0.000 HD
ENDBRANCH  10  11
BRANCH   1  16
ATOM     16  O   UNL     1       1.855   3.664  17.686  0.00  0.00    +0.000 OA
BRANCH  16  18
ATOM     17  C   UNL     1       0.619   2.109  19.034  0.00  0.00    +0.000 C 
ATOM     18  C   UNL     1       1.806   2.297  18.107  0.00  0.00    +0.000 C 
ENDBRANCH  16  18
ENDBRANCH   1  16
BRANCH   4  19
ATOM     19  O   UNL     1       6.065   3.966  14.864  0.00  0.00    +0.000 OA
BRANCH  19  20
ATOM     20  C   UNL     1       6.817   4.396  13.713  0.00  0.00    +0.000 C 
BRANCH  20  21
ATOM     21  C   UNL     1       6.296   3.802  12.403  0.00  0.00    +0.000 C 
ATOM     22  C   UNL     1       4.796   3.569  12.320  0.00  0.00    +0.000 C 
ATOM     23  C   UNL     1       4.673   2.535  11.199  0.00  0.00    +0.000 C 
ATOM     24  C   UNL     1       5.971   1.773  11.303  0.00  0.00    +0.000 C 
ATOM     25  O   UNL     1       6.245   0.726  10.744  0.00  0.00    +0.000 OA
ATOM     26  N   UNL     1       6.833   2.505  12.090  0.00  0.00    +0.000 N 
ATOM     27  H   UNL     1       7.805   2.231  12.173  0.00  0.00    +0.000 HD
ENDBRANCH  20  21
ENDBRANCH  19  20
ENDBRANCH   4  19
TORSDOF 6
ENDMDL
MODEL 7
REMARK VINA RESULT:      -7.7      1.046      1.068
REMARK  Name = 
REMARK  7 active torsions:
REMARK  status: ('A' for Active; 'I' for Inactive)
REMARK    1  A    between atoms: C_1  and  C_2
REMARK    2  A    between atoms: C_2  and  O_3
REMARK    3  A    between atoms: O_3  and  C_4
REMARK    4  A    between atoms: C_7  and  O_8
REMARK    5  A    between atoms: O_8  and  C_9
REMARK    6  A    between atoms: C_9  and  C_10
REMARK    7  A    between atoms: C_21  and  C_22
REMARK                            x       y       z     vdW  Elec       q    Type
REMARK                         _______ _______ _______ _____ _____    ______ ____
ROOT
ATOM      1  C   UNL     1       5.570   6.113  16.796  0.00  0.00    +0.000 A 
ATOM      2  C   UNL     1       4.591   6.380  17.777  0.00  0.00    +0.000 A 
ATOM      3  C   UNL     1       3.534   5.474  18.057  0.00  0.00    +0.000 A 
ATOM      4  C   UNL     1       2.525   5.642  19.036  0.00  0.00    +0.000 A 
ATOM      5  N   UNL     1       1.502   4.771  19.219  0.00  0.00    +0.000 NA
ATOM      6  C   UNL     1       1.487   3.660  18.465  0.00  0.00    +0.000 A 
ATOM      7  C   UNL     1       2.447   3.370  17.520  0.00  0.00    +0.000 A 
ATOM      8  C   UNL     1       3.482   4.281  17.311  0.00  0.00    +0.000 A 
ATOM      9  C   UNL     1       4.491   3.992  16.377  0.00  0.00    +0.000 A 
ATOM     10  C   UNL     1       5.552   4.880  16.129  0.00  0.00    +0.000 A 
ENDROOT
BRANCH  10  11
ATOM     11  C   UNL     1       6.655   4.387  15.255  0.00  0.00    +0.000 C 
ATOM     12  N   UNL     1       6.304   3.635  14.163  0.00  0.00    +0.000 N 
ATOM     13  O   UNL     1       7.835   4.619  15.479  0.00  0.00    +0.000 OA
ATOM     14  H   UNL     1       5.355   3.464  13.864  0.00  0.00    +0.000 HD
ATOM     15  H   UNL     1       7.057   3.336  13.554  0.00  0.00    +0.000 HD
ENDBRANCH  10  11
BRANCH   1  16
ATOM     16  O   UNL     1       6.466   7.141  16.651  0.00  0.00    +0.000 OA
BRANCH  16  18
ATOM     17  C   UNL     1       7.906   8.733  17.725  0.00  0.00    +0.000 C 
ATOM     18  C   UNL     1       7.523   7.269  17.607  0.00  0.00    +0.000 C 
ENDBRANCH  16  18
ENDBRANCH   1  16
BRANCH   4  19
ATOM     19  O   UNL     1       2.588   6.729  19.902  0.00  0.00    +0.000 OA
BRANCH  19  20
ATOM     20  C   UNL     1       1.923   7.874  19.333  0.00  0.00    +0.000 C 
BRANCH  20  21
ATOM     21  C   UNL     1       1.379   8.836  20.391  0.00  0.00    +0.000 C 
ATOM     22  C   UNL     1       0.528   8.216  21.489  0.00  0.00    +0.000 C 
ATOM     23  C   UNL     1      -0.262   9.412  22.024  0.00  0.00    +0.000 C 
ATOM     24  C   UNL     1      -0.384  10.303  20.812  0.00  0.00    +0.000 C 
ATOM     25  O   UNL     1      -1.101  11.280  20.699  0.00  0.00    +0.000 OA
ATOM     26  N   UNL     1       0.516   9.860  19.866  0.00  0.00    +0.000 N 
ATOM     27  H   UNL     1       0.686  10.406  19.031  0.00  0.00    +0.000 HD
ENDBRANCH  20  21
ENDBRANCH  19  20
ENDBRANCH   4  19
TORSDOF 6
ENDMDL
MODEL 8
REMARK VINA RESULT:      -7.7      4.037      7.777
REMARK  Name = 
REMARK  7 active torsions:
REMARK  status: ('A' for Active; 'I' for Inactive)
REMARK    1  A    between atoms: C_1  and  C_2
REMARK    2  A    between atoms: C_2  and  O_3
REMARK    3  A    between atoms: O_3  and  C_4
REMARK    4  A    between atoms: C_7  and  O_8
REMARK    5  A    between atoms: O_8  and  C_9
REMARK    6  A    between atoms: C_9  and  C_10
REMARK    7  A    between atoms: C_21  and  C_22
REMARK                            x       y       z     vdW  Elec       q    Type
REMARK                         _______ _______ _______ _____ _____    ______ ____
ROOT
ATOM      1  C   UNL     1       3.983   3.374  18.092  0.00  0.00    +0.000 A 
ATOM      2  C   UNL     1       4.517   4.123  17.020  0.00  0.00    +0.000 A 
ATOM      3  C   UNL     1       5.623   4.998  17.185  0.00  0.00    +0.000 A 
ATOM      4  C   UNL     1       6.241   5.766  16.169  0.00  0.00    +0.000 A 
ATOM      5  N   UNL     1       7.258   6.634  16.396  0.00  0.00    +0.000 NA
ATOM      6  C   UNL     1       7.739   6.717  17.646  0.00  0.00    +0.000 A 
ATOM      7  C   UNL     1       7.248   5.977  18.700  0.00  0.00    +0.000 A 
ATOM      8  C   UNL     1       6.181   5.108  18.473  0.00  0.00    +0.000 A 
ATOM      9  C   UNL     1       5.686   4.318  19.524  0.00  0.00    +0.000 A 
ATOM     10  C   UNL     1       4.611   3.430  19.345  0.00  0.00    +0.000 A 
ENDROOT
BRANCH  10  11
ATOM     11  C   UNL     1       4.293   2.517  20.479  0.00  0.00    +0.000 C 
ATOM     12  N   UNL     1       3.039   2.608  21.028  0.00  0.00    +0.000 N 
ATOM     13  O   UNL     1       5.097   1.714  20.931  0.00  0.00    +0.000 OA
ATOM     14  H   UNL     1       2.294   3.185  20.666  0.00  0.00    +0.000 HD
ATOM     15  H   UNL     1       2.820   1.957  21.773  0.00  0.00    +0.000 HD
ENDBRANCH  10  11
BRANCH   1  16
ATOM     16  O   UNL     1       2.887   2.637  17.726  0.00  0.00    +0.000 OA
BRANCH  16  18
ATOM     17  C   UNL     1       0.714   2.488  18.735  0.00  0.00    +0.000 C 
ATOM     18  C   UNL     1       1.598   3.256  17.769  0.00  0.00    +0.000 C 
ENDBRANCH  16  18
ENDBRANCH   1  16
BRANCH   4  19
ATOM     19  O   UNL     1       5.832   5.607  14.849  0.00  0.00    +0.000 OA
BRANCH  19  20
ATOM     20  C   UNL     1       6.805   4.852  14.101  0.00  0.00    +0.000 C 
BRANCH  20  21
ATOM     21  C   UNL     1       6.194   3.665  13.354  0.00  0.00    +0.000 C 
ATOM     22  C   UNL     1       6.986   3.137  12.168  0.00  0.00    +0.000 C 
ATOM     23  C   UNL     1       5.929   2.380  11.361  0.00  0.00    +0.000 C 
ATOM     24  C   UNL     1       4.661   3.136  11.679  0.00  0.00    +0.000 C 
ATOM     25  O   UNL     1       3.588   3.023  11.114  0.00  0.00    +0.000 OA
ATOM     26  N   UNL     1       4.905   3.934  12.776  0.00  0.00    +0.000 N 
ATOM     27  H   UNL     1       4.142   4.421  13.231  0.00  0.00    +0.000 HD
ENDBRANCH  20  21
ENDBRANCH  19  20
ENDBRANCH   4  19
TORSDOF 6
ENDMDL
MODEL 9
REMARK VINA RESULT:      -7.6      2.201      6.528
REMARK  Name = 
REMARK  7 active torsions:
REMARK  status: ('A' for Active; 'I' for Inactive)
REMARK    1  A    between atoms: C_1  and  C_2
REMARK    2  A    between atoms: C_2  and  O_3
REMARK    3  A    between atoms: O_3  and  C_4
REMARK    4  A    between atoms: C_7  and  O_8
REMARK    5  A    between atoms: O_8  and  C_9
REMARK    6  A    between atoms: C_9  and  C_10
REMARK    7  A    between atoms: C_21  and  C_22
REMARK                            x       y       z     vdW  Elec       q    Type
REMARK                         _______ _______ _______ _____ _____    ______ ____
ROOT
ATOM      1  C   UNL     1       2.222   7.298  19.321  0.00  0.00    +0.000 A 
ATOM      2  C   UNL     1       2.589   6.203  18.508  0.00  0.00    +0.000 A 
ATOM      3  C   UNL     1       2.389   4.858  18.915  0.00  0.00    +0.000 A 
ATOM      4  C   UNL     1       2.699   3.701  18.161  0.00  0.00    +0.000 A 
ATOM      5  N   UNL     1       2.543   2.436  18.626  0.00  0.00    +0.000 NA
ATOM      6  C   UNL     1       2.007   2.282  19.846  0.00  0.00    +0.000 A 
ATOM      7  C   UNL     1       1.619   3.337  20.645  0.00  0.00    +0.000 A 
ATOM      8  C   UNL     1       1.809   4.638  20.179  0.00  0.00    +0.000 A 
ATOM      9  C   UNL     1       1.391   5.728  20.960  0.00  0.00    +0.000 A 
ATOM     10  C   UNL     1       1.564   7.057  20.536  0.00  0.00    +0.000 A 
ENDROOT
BRANCH  10  11
ATOM     11  C   UNL     1       0.920   8.119  21.361  0.00  0.00    +0.000 C 
ATOM     12  N   UNL     1       1.748   8.964  22.056  0.00  0.00    +0.000 N 
ATOM     13  O   UNL     1      -0.293   8.254  21.442  0.00  0.00    +0.000 OA
ATOM     14  H   UNL     1       2.755   8.971  21.983  0.00  0.00    +0.000 HD
ATOM     15  H   UNL     1       1.303   9.705  22.584  0.00  0.00    +0.000 HD
ENDBRANCH  10  11
BRANCH   1  16
ATOM     16  O   UNL     1       2.551   8.505  18.761  0.00  0.00    +0.000 OA
BRANCH  16  18
ATOM     17  C   UNL     1       1.042  10.351  18.483  0.00  0.00    +0.000 C 
ATOM     18  C   UNL     1       1.634   9.108  17.843  0.00  0.00    +0.000 C 
ENDBRANCH  16  18
ENDBRANCH   1  16
BRANCH   4  19
ATOM     19  O   UNL     1       3.149   3.839  16.852  0.00  0.00    +0.000 OA
BRANCH  19  20
ATOM     20  C   UNL     1       4.566   3.591  16.770  0.00  0.00    +0.000 C 
BRANCH  20  21
ATOM     21  C   UNL     1       5.406   4.713  17.382  0.00  0.00    +0.000 C 
ATOM     22  C   UNL     1       6.242   5.533  16.412  0.00  0.00    +0.000 C 
ATOM     23  C   UNL     1       7.305   6.155  17.320  0.00  0.00    +0.000 C 
ATOM     24  C   UNL     1       7.456   5.125  18.412  0.00  0.00    +0.000 C 
ATOM     25  O   UNL     1       8.331   5.087  19.258  0.00  0.00    +0.000 OA
ATOM     26  N   UNL     1       6.384   4.263  18.336  0.00  0.00    +0.000 N 
ATOM     27  H   UNL     1       6.227   3.579  19.066  0.00  0.00    +0.000 HD
ENDBRANCH  20  21
ENDBRANCH  19  20
ENDBRANCH   4  19
TORSDOF 6
ENDMDL
