MODEL 1
REMARK VINA RESULT:      -7.2      0.000      0.000
REMARK  Name = 
REMARK  13 active torsions:
REMARK  status: ('A' for Active; 'I' for Inactive)
REMARK    1  A    between atoms: C_1  and  C_2
REMARK    2  A    between atoms: C_5  and  C_6
REMARK    3  A    between atoms: C_6  and  C_7
REMARK    4  A    between atoms: C_6  and  C_8
REMARK    5  A    between atoms: C_9  and  O_10
REMARK    6  A    between atoms: O_10  and  C_11
REMARK    7  A    between atoms: C_11  and  C_12
REMARK    8  A    between atoms: C_11  and  C_13
REMARK    9  A    between atoms: N_15  and  C_16
REMARK   10  A    between atoms: C_16  and  C_17
REMARK   11  A    between atoms: C_17  and  N_18
REMARK   12  A    between atoms: N_18  and  C_19
REMARK   13  A    between atoms: N_18  and  C_20
REMARK                            x       y       z     vdW  Elec       q    Type
REMARK                         _______ _______ _______ _____ _____    ______ ____
ROOT
ATOM      1  C   UNL     1       1.912   7.689  19.698  0.00  0.00    +0.000 C 
ATOM      2  O   UNL     1       1.574   7.624  20.874  0.00  0.00    +0.000 OA
ATOM      3  N   UNL     1       2.732   6.763  19.092  0.00  0.00    +0.000 N 
ATOM      4  H   UNL     1       3.162   7.050  18.218  0.00  0.00    +0.000 HD
ENDROOT
BRANCH   1   5
ATOM      5  C   UNL     1       1.358   8.746  18.738  0.00  0.00    +0.000 C 
ATOM      6  C   UNL     1       2.494   9.207  17.831  0.00  0.00    +0.000 C 
BRANCH   5   7
ATOM      7  O   UNL     1       0.905   9.881  19.488  0.00  0.00    +0.000 OA
BRANCH   7  13
ATOM      8  C   UNL     1      -3.007  10.430  16.489  0.00  0.00    +0.000 C 
ATOM      9  C   UNL     1      -2.257  10.759  17.748  0.00  0.00    +0.000 A 
ATOM     10  C   UNL     1      -2.755  11.703  18.641  0.00  0.00    +0.000 A 
ATOM     11  C   UNL     1      -2.053  11.996  19.815  0.00  0.00    +0.000 A 
ATOM     12  C   UNL     1      -0.828  11.374  20.101  0.00  0.00    +0.000 A 
ATOM     13  C   UNL     1      -0.299  10.455  19.171  0.00  0.00    +0.000 A 
ATOM     14  C   UNL     1      -1.034  10.128  18.024  0.00  0.00    +0.000 A 
BRANCH  12  15
ATOM     15  C   UNL     1      -0.158  11.730  21.425  0.00  0.00    +0.000 C 
ATOM     16  C   UNL     1       0.188  13.218  21.516  0.00  0.00    +0.000 C 
ATOM     17  C   UNL     1      -0.948  11.252  22.645  0.00  0.00    +0.000 C 
ENDBRANCH  12  15
ENDBRANCH   7  13
ENDBRANCH   5   7
ENDBRANCH   1   5
BRANCH   3  18
ATOM     18  C   UNL     1       3.375   5.679  19.809  0.00  0.00    +0.000 C 
BRANCH  18  19
ATOM     19  C   UNL     1       3.617   4.385  18.953  0.00  0.00    +0.000 C 
ATOM     20  C   UNL     1       3.459   3.179  19.935  0.00  0.00    +0.000 C 
ATOM     21  C   UNL     1       1.999   2.892  20.310  0.00  0.00    +0.000 C 
ATOM     22  C   UNL     1       1.220   2.495  19.070  0.00  0.00    +0.000 C 
ATOM     23  C   UNL     1       1.208   3.644  18.078  0.00  0.00    +0.000 C 
ATOM     24  C   UNL     1       2.595   4.212  17.777  0.00  0.00    +0.000 C 
BRANCH  19  25
ATOM     25  N   UNL     1       4.979   4.468  18.366  0.00  0.00    +0.000 NA
ATOM     26  C   UNL     1       6.061   5.138  19.046  0.00  0.00    +0.000 C 
ATOM     27  C   UNL     1       5.218   4.132  16.973  0.00  0.00    +0.000 C 
ENDBRANCH  19  25
ENDBRANCH  18  19
ENDBRANCH   3  18
TORSDOF 7
ENDMDL
MODEL 2
REMARK VINA RESULT:      -7.1      1.228      1.457
REMARK  Name = 
REMARK  13 active torsions:
REMARK  status: ('A' for Active; 'I' for Inactive)
REMARK    1  A    between atoms: C_1  and  C_2
REMARK    2  A    between atoms: C_5  and  C_6
REMARK    3  A    between atoms: C_6  and  C_7
REMARK    4  A    between atoms: C_6  and  C_8
REMARK    5  A    between atoms: C_9  and  O_10
REMARK    6  A    between atoms: O_10  and  C_11
REMARK    7  A    between atoms: C_11  and  C_12
REMARK    8  A    between atoms: C_11  and  C_13
REMARK    9  A    between atoms: N_15  and  C_16
REMARK   10  A    between atoms: C_16  and  C_17
REMARK   11  A    between atoms: C_17  and  N_18
REMARK   12  A    between atoms: N_18  and  C_19
REMARK   13  A    between atoms: N_18  and  C_20
REMARK                            x       y       z     vdW  Elec       q    Type
REMARK                         _______ _______ _______ _____ _____    ______ ____
ROOT
ATOM      1  C   UNL     1       2.184   7.345  19.461  0.00  0.00    +0.000 C 
ATOM      2  O   UNL     1       1.763   7.137  20.593  0.00  0.00    +0.000 OA
ATOM      3  N   UNL     1       3.134   6.559  18.847  0.00  0.00    +0.000 N 
ATOM      4  H   UNL     1       3.601   6.967  18.042  0.00  0.00    +0.000 HD
ENDROOT
BRANCH   1   5
ATOM      5  C   UNL     1       1.606   8.437  18.554  0.00  0.00    +0.000 C 
ATOM      6  C   UNL     1       2.712   8.914  17.619  0.00  0.00    +0.000 C 
BRANCH   5   7
ATOM      7  O   UNL     1       1.194   9.553  19.354  0.00  0.00    +0.000 OA
BRANCH   7  13
ATOM      8  C   UNL     1      -3.411  10.178  17.620  0.00  0.00    +0.000 C 
ATOM      9  C   UNL     1      -2.089  10.728  18.073  0.00  0.00    +0.000 A 
ATOM     10  C   UNL     1      -1.841  12.097  18.029  0.00  0.00    +0.000 A 
ATOM     11  C   UNL     1      -0.609  12.601  18.461  0.00  0.00    +0.000 A 
ATOM     12  C   UNL     1       0.405  11.742  18.916  0.00  0.00    +0.000 A 
ATOM     13  C   UNL     1       0.171  10.352  18.912  0.00  0.00    +0.000 A 
ATOM     14  C   UNL     1      -1.084   9.860  18.528  0.00  0.00    +0.000 A 
BRANCH  12  15
ATOM     15  C   UNL     1       1.698  12.389  19.405  0.00  0.00    +0.000 C 
ATOM     16  C   UNL     1       2.554  12.913  18.250  0.00  0.00    +0.000 C 
ATOM     17  C   UNL     1       1.467  13.458  20.474  0.00  0.00    +0.000 C 
ENDBRANCH  12  15
ENDBRANCH   7  13
ENDBRANCH   5   7
ENDBRANCH   1   5
BRANCH   3  18
ATOM     18  C   UNL     1       3.821   5.473  19.518  0.00  0.00    +0.000 C 
BRANCH  18  19
ATOM     19  C   UNL     1       3.898   4.141  18.690  0.00  0.00    +0.000 C 
ATOM     20  C   UNL     1       3.923   2.980  19.737  0.00  0.00    +0.000 C 
ATOM     21  C   UNL     1       2.558   2.724  20.388  0.00  0.00    +0.000 C 
ATOM     22  C   UNL     1       1.561   2.282  19.333  0.00  0.00    +0.000 C 
ATOM     23  C   UNL     1       1.366   3.388  18.311  0.00  0.00    +0.000 C 
ATOM     24  C   UNL     1       2.675   3.928  17.733  0.00  0.00    +0.000 C 
BRANCH  19  25
ATOM     25  N   UNL     1       5.127   4.185  17.857  0.00  0.00    +0.000 NA
ATOM     26  C   UNL     1       6.353   4.773  18.340  0.00  0.00    +0.000 C 
ATOM     27  C   UNL     1       5.080   3.898  16.434  0.00  0.00    +0.000 C 
ENDBRANCH  19  25
ENDBRANCH  18  19
ENDBRANCH   3  18
TORSDOF 7
ENDMDL
MODEL 3
REMARK VINA RESULT:      -7.1      0.929      1.226
REMARK  Name = 
REMARK  13 active torsions:
REMARK  status: ('A' for Active; 'I' for Inactive)
REMARK    1  A    between atoms: C_1  and  C_2
REMARK    2  A    between atoms: C_5  and  C_6
REMARK    3  A    between atoms: C_6  and  C_7
REMARK    4  A    between atoms: C_6  and  C_8
REMARK    5  A    between atoms: C_9  and  O_10
REMARK    6  A    between atoms: O_10  and  C_11
REMARK    7  A    between atoms: C_11  and  C_12
REMARK    8  A    between atoms: C_11  and  C_13
REMARK    9  A    between atoms: N_15  and  C_16
REMARK   10  A    between atoms: C_16  and  C_17
REMARK   11  A    between atoms: C_17  and  N_18
REMARK   12  A    between atoms: N_18  and  C_19
REMARK   13  A    between atoms: N_18  and  C_20
REMARK                            x       y       z     vdW  Elec       q    Type
REMARK                         _______ _______ _______ _____ _____    ______ ____
ROOT
ATOM      1  C   UNL     1       1.680   8.293  19.571  0.00  0.00    +0.000 C 
ATOM      2  O   UNL     1       1.572   8.445  20.783  0.00  0.00    +0.000 OA
ATOM      3  N   UNL     1       2.258   7.184  18.994  0.00  0.00    +0.000 N 
ATOM      4  H   UNL     1       2.539   7.281  18.022  0.00  0.00    +0.000 HD
ENDROOT
BRANCH   1   5
ATOM      5  C   UNL     1       1.068   9.268  18.560  0.00  0.00    +0.000 C 
ATOM      6  C   UNL     1       2.188  10.138  18.001  0.00  0.00    +0.000 C 
BRANCH   5   7
ATOM      7  O   UNL     1       0.135  10.127  19.231  0.00  0.00    +0.000 OA
BRANCH   7  13
ATOM      8  C   UNL     1      -3.051   9.781  15.445  0.00  0.00    +0.000 C 
ATOM      9  C   UNL     1      -2.621  10.380  16.753  0.00  0.00    +0.000 A 
ATOM     10  C   UNL     1      -3.369  11.393  17.345  0.00  0.00    +0.000 A 
ATOM     11  C   UNL     1      -2.965  11.940  18.569  0.00  0.00    +0.000 A 
ATOM     12  C   UNL     1      -1.791  11.503  19.204  0.00  0.00    +0.000 A 
ATOM     13  C   UNL     1      -1.007  10.513  18.578  0.00  0.00    +0.000 A 
ATOM     14  C   UNL     1      -1.447   9.935  17.380  0.00  0.00    +0.000 A 
BRANCH  12  15
ATOM     15  C   UNL     1      -1.456  12.131  20.554  0.00  0.00    +0.000 C 
ATOM     16  C   UNL     1      -0.529  13.341  20.415  0.00  0.00    +0.000 C 
ATOM     17  C   UNL     1      -2.695  12.455  21.390  0.00  0.00    +0.000 C 
ENDBRANCH  12  15
ENDBRANCH   7  13
ENDBRANCH   5   7
ENDBRANCH   1   5
BRANCH   3  18
ATOM     18  C   UNL     1       2.906   6.136  19.758  0.00  0.00    +0.000 C 
BRANCH  18  19
ATOM     19  C   UNL     1       3.442   4.938  18.896  0.00  0.00    +0.000 C 
ATOM     20  C   UNL     1       3.523   3.711  19.860  0.00  0.00    +0.000 C 
ATOM     21  C   UNL     1       2.150   3.111  20.190  0.00  0.00    +0.000 C 
ATOM     22  C   UNL     1       1.506   2.577  18.924  0.00  0.00    +0.000 C 
ATOM     23  C   UNL     1       1.272   3.712  17.945  0.00  0.00    +0.000 C 
ATOM     24  C   UNL     1       2.512   4.569  17.689  0.00  0.00    +0.000 C 
BRANCH  19  25
ATOM     25  N   UNL     1       4.769   5.321  18.347  0.00  0.00    +0.000 NA
ATOM     26  C   UNL     1       4.972   5.552  16.937  0.00  0.00    +0.000 C 
ATOM     27  C   UNL     1       5.975   5.208  19.150  0.00  0.00    +0.000 C 
ENDBRANCH  19  25
ENDBRANCH  18  19
ENDBRANCH   3  18
TORSDOF 7
ENDMDL
MODEL 4
REMARK VINA RESULT:      -7.0      1.631      2.991
REMARK  Name = 
REMARK  13 active torsions:
REMARK  status: ('A' for Active; 'I' for Inactive)
REMARK    1  A    between atoms: C_1  and  C_2
REMARK    2  A    between atoms: C_5  and  C_6
REMARK    3  A    between atoms: C_6  and  C_7
REMARK    4  A    between atoms: C_6  and  C_8
REMARK    5  A    between atoms: C_9  and  O_10
REMARK    6  A    between atoms: O_10  and  C_11
REMARK    7  A    between atoms: C_11  and  C_12
REMARK    8  A    between atoms: C_11  and  C_13
REMARK    9  A    between atoms: N_15  and  C_16
REMARK   10  A    between atoms: C_16  and  C_17
REMARK   11  A    between atoms: C_17  and  N_18
REMARK   12  A    between atoms: N_18  and  C_19
REMARK   13  A    between atoms: N_18  and  C_20
REMARK                            x       y       z     vdW  Elec       q    Type
REMARK                         _______ _______ _______ _____ _____    ______ ____
ROOT
ATOM      1  C   UNL     1       2.074   8.132  18.429  0.00  0.00    +0.000 C 
ATOM      2  O   UNL     1       2.474   8.544  17.346  0.00  0.00    +0.000 OA
ATOM      3  N   UNL     1       2.084   6.802  18.786  0.00  0.00    +0.000 N 
ATOM      4  H   UNL     1       1.492   6.545  19.571  0.00  0.00    +0.000 HD
ENDROOT
BRANCH   1   5
ATOM      5  C   UNL     1       1.632   9.071  19.555  0.00  0.00    +0.000 C 
ATOM      6  C   UNL     1       1.401   8.234  20.810  0.00  0.00    +0.000 C 
BRANCH   5   7
ATOM      7  O   UNL     1       0.385   9.687  19.202  0.00  0.00    +0.000 OA
BRANCH   7  13
ATOM      8  C   UNL     1       2.588  14.121  18.902  0.00  0.00    +0.000 C 
ATOM      9  C   UNL     1       1.383  13.237  18.753  0.00  0.00    +0.000 A 
ATOM     10  C   UNL     1       0.160  13.771  18.360  0.00  0.00    +0.000 A 
ATOM     11  C   UNL     1      -0.955  12.937  18.215  0.00  0.00    +0.000 A 
ATOM     12  C   UNL     1      -0.872  11.563  18.490  0.00  0.00    +0.000 A 
ATOM     13  C   UNL     1       0.355  11.032  18.936  0.00  0.00    +0.000 A 
ATOM     14  C   UNL     1       1.479  11.864  19.028  0.00  0.00    +0.000 A 
BRANCH  12  15
ATOM     15  C   UNL     1      -2.131  10.730  18.263  0.00  0.00    +0.000 C 
ATOM     16  C   UNL     1      -3.408  11.552  18.448  0.00  0.00    +0.000 C 
ATOM     17  C   UNL     1      -2.123   9.980  16.930  0.00  0.00    +0.000 C 
ENDBRANCH  12  15
ENDBRANCH   7  13
ENDBRANCH   5   7
ENDBRANCH   1   5
BRANCH   3  18
ATOM     18  C   UNL     1       2.458   5.738  17.876  0.00  0.00    +0.000 C 
BRANCH  18  19
ATOM     19  C   UNL     1       3.177   4.520  18.559  0.00  0.00    +0.000 C 
ATOM     20  C   UNL     1       2.865   4.632  20.086  0.00  0.00    +0.000 C 
ATOM     21  C   UNL     1       1.428   4.229  20.440  0.00  0.00    +0.000 C 
ATOM     22  C   UNL     1       1.206   2.767  20.098  0.00  0.00    +0.000 C 
ATOM     23  C   UNL     1       1.373   2.555  18.604  0.00  0.00    +0.000 C 
ATOM     24  C   UNL     1       2.676   3.127  18.044  0.00  0.00    +0.000 C 
BRANCH  19  25
ATOM     25  N   UNL     1       4.630   4.619  18.265  0.00  0.00    +0.000 NA
ATOM     26  C   UNL     1       5.210   4.025  17.084  0.00  0.00    +0.000 C 
ATOM     27  C   UNL     1       5.573   5.065  19.277  0.00  0.00    +0.000 C 
ENDBRANCH  19  25
ENDBRANCH  18  19
ENDBRANCH   3  18
TORSDOF 7
ENDMDL
MODEL 5
REMARK VINA RESULT:      -7.0      2.296      8.176
REMARK  Name = 
REMARK  13 active torsions:
REMARK  status: ('A' for Active; 'I' for Inactive)
REMARK    1  A    between atoms: C_1  and  C_2
REMARK    2  A    between atoms: C_5  and  C_6
REMARK    3  A    between atoms: C_6  and  C_7
REMARK    4  A    between atoms: C_6  and  C_8
REMARK    5  A    between atoms: C_9  and  O_10
REMARK    6  A    between atoms: O_10  and  C_11
REMARK    7  A    between atoms: C_11  and  C_12
REMARK    8  A    between atoms: C_11  and  C_13
REMARK    9  A    between atoms: N_15  and  C_16
REMARK   10  A    between atoms: C_16  and  C_17
REMARK   11  A    between atoms: C_17  and  N_18
REMARK   12  A    between atoms: N_18  and  C_19
REMARK   13  A    between atoms: N_18  and  C_20
REMARK                            x       y       z     vdW  Elec       q    Type
REMARK                         _______ _______ _______ _____ _____    ______ ____
ROOT
ATOM      1  C   UNL     1       1.610   8.991  18.459  0.00  0.00    +0.000 C 
ATOM      2  O   UNL     1       2.188   9.253  17.411  0.00  0.00    +0.000 OA
ATOM      3  N   UNL     1       0.715   9.844  19.066  0.00  0.00    +0.000 N 
ATOM      4  H   UNL     1       0.508   9.655  20.043  0.00  0.00    +0.000 HD
ENDROOT
BRANCH   1   5
ATOM      5  C   UNL     1       1.728   7.627  19.147  0.00  0.00    +0.000 C 
ATOM      6  C   UNL     1       1.782   7.857  20.654  0.00  0.00    +0.000 C 
BRANCH   5   7
ATOM      7  O   UNL     1       2.955   6.998  18.753  0.00  0.00    +0.000 OA
BRANCH   7  13
ATOM      8  C   UNL     1       0.933   2.470  18.705  0.00  0.00    +0.000 C 
ATOM      9  C   UNL     1       1.979   3.449  18.256  0.00  0.00    +0.000 A 
ATOM     10  C   UNL     1       3.005   3.047  17.406  0.00  0.00    +0.000 A 
ATOM     11  C   UNL     1       3.970   3.968  16.987  0.00  0.00    +0.000 A 
ATOM     12  C   UNL     1       3.944   5.299  17.434  0.00  0.00    +0.000 A 
ATOM     13  C   UNL     1       2.934   5.693  18.336  0.00  0.00    +0.000 A 
ATOM     14  C   UNL     1       1.941   4.777  18.708  0.00  0.00    +0.000 A 
BRANCH  12  15
ATOM     15  C   UNL     1       5.016   6.238  16.889  0.00  0.00    +0.000 C 
ATOM     16  C   UNL     1       6.279   6.237  17.753  0.00  0.00    +0.000 C 
ATOM     17  C   UNL     1       5.334   5.994  15.413  0.00  0.00    +0.000 C 
ENDBRANCH  12  15
ENDBRANCH   7  13
ENDBRANCH   5   7
ENDBRANCH   1   5
BRANCH   3  18
ATOM     18  C   UNL     1       0.451  11.188  18.592  0.00  0.00    +0.000 C 
BRANCH  18  19
ATOM     19  C   UNL     1       0.562  12.301  19.695  0.00  0.00    +0.000 C 
ATOM     20  C   UNL     1      -0.674  13.236  19.495  0.00  0.00    +0.000 C 
ATOM     21  C   UNL     1      -1.988  12.612  19.983  0.00  0.00    +0.000 C 
ATOM     22  C   UNL     1      -1.915  12.368  21.479  0.00  0.00    +0.000 C 
ATOM     23  C   UNL     1      -0.810  11.375  21.787  0.00  0.00    +0.000 C 
ATOM     24  C   UNL     1       0.535  11.737  21.158  0.00  0.00    +0.000 C 
BRANCH  19  25
ATOM     25  N   UNL     1       1.852  13.012  19.504  0.00  0.00    +0.000 NA
ATOM     26  C   UNL     1       2.589  12.933  18.265  0.00  0.00    +0.000 C 
ATOM     27  C   UNL     1       2.569  13.585  20.631  0.00  0.00    +0.000 C 
ENDBRANCH  19  25
ENDBRANCH  18  19
ENDBRANCH   3  18
TORSDOF 7
ENDMDL
MODEL 6
REMARK VINA RESULT:      -6.9      1.670      3.837
REMARK  Name = 
REMARK  13 active torsions:
REMARK  status: ('A' for Active; 'I' for Inactive)
REMARK    1  A    between atoms: C_1  and  C_2
REMARK    2  A    between atoms: C_5  and  C_6
REMARK    3  A    between atoms: C_6  and  C_7
REMARK    4  A    between atoms: C_6  and  C_8
REMARK    5  A    between atoms: C_9  and  O_10
REMARK    6  A    between atoms: O_10  and  C_11
REMARK    7  A    between atoms: C_11  and  C_12
REMARK    8  A    between atoms: C_11  and  C_13
REMARK    9  A    between atoms: N_15  and  C_16
REMARK   10  A    between atoms: C_16  and  C_17
REMARK   11  A    between atoms: C_17  and  N_18
REMARK   12  A    between atoms: N_18  and  C_19
REMARK   13  A    between atoms: N_18  and  C_20
REMARK                            x       y       z     vdW  Elec       q    Type
REMARK                         _______ _______ _______ _____ _____    ______ ____
ROOT
ATOM      1  C   UNL     1       2.258   8.295  18.330  0.00  0.00    +0.000 C 
ATOM      2  O   UNL     1       2.099   8.758  17.206  0.00  0.00    +0.000 OA
ATOM      3  N   UNL     1       3.070   7.216  18.599  0.00  0.00    +0.000 N 
ATOM      4  H   UNL     1       2.920   6.755  19.492  0.00  0.00    +0.000 HD
ENDROOT
BRANCH   1   5
ATOM      5  C   UNL     1       1.664   8.949  19.582  0.00  0.00    +0.000 C 
ATOM      6  C   UNL     1       1.400   7.855  20.611  0.00  0.00    +0.000 C 
BRANCH   5   7
ATOM      7  O   UNL     1       0.407   9.557  19.253  0.00  0.00    +0.000 OA
BRANCH   7  13
ATOM      8  C   UNL     1       2.504  14.052  19.214  0.00  0.00    +0.000 C 
ATOM      9  C   UNL     1       1.334  13.143  18.967  0.00  0.00    +0.000 A 
ATOM     10  C   UNL     1       0.122  13.657  18.518  0.00  0.00    +0.000 A 
ATOM     11  C   UNL     1      -0.960  12.801  18.283  0.00  0.00    +0.000 A 
ATOM     12  C   UNL     1      -0.856  11.421  18.522  0.00  0.00    +0.000 A 
ATOM     13  C   UNL     1       0.357  10.908  19.025  0.00  0.00    +0.000 A 
ATOM     14  C   UNL     1       1.451  11.765  19.207  0.00  0.00    +0.000 A 
BRANCH  12  15
ATOM     15  C   UNL     1      -2.076  10.565  18.197  0.00  0.00    +0.000 C 
ATOM     16  C   UNL     1      -3.385  11.344  18.344  0.00  0.00    +0.000 C 
ATOM     17  C   UNL     1      -1.976   9.868  16.838  0.00  0.00    +0.000 C 
ENDBRANCH  12  15
ENDBRANCH   7  13
ENDBRANCH   5   7
ENDBRANCH   1   5
BRANCH   3  18
ATOM     18  C   UNL     1       3.729   6.440  17.567  0.00  0.00    +0.000 C 
BRANCH  18  19
ATOM     19  C   UNL     1       4.257   5.040  18.043  0.00  0.00    +0.000 C 
ATOM     20  C   UNL     1       4.915   4.375  16.791  0.00  0.00    +0.000 C 
ATOM     21  C   UNL     1       6.277   4.982  16.430  0.00  0.00    +0.000 C 
ATOM     22  C   UNL     1       7.259   4.748  17.564  0.00  0.00    +0.000 C 
ATOM     23  C   UNL     1       6.776   5.450  18.819  0.00  0.00    +0.000 C 
ATOM     24  C   UNL     1       5.327   5.129  19.185  0.00  0.00    +0.000 C 
BRANCH  19  25
ATOM     25  N   UNL     1       3.102   4.262  18.560  0.00  0.00    +0.000 NA
ATOM     26  C   UNL     1       3.145   3.595  19.840  0.00  0.00    +0.000 C 
ATOM     27  C   UNL     1       1.991   3.901  17.696  0.00  0.00    +0.000 C 
ENDBRANCH  19  25
ENDBRANCH  18  19
ENDBRANCH   3  18
TORSDOF 7
ENDMDL
MODEL 7
REMARK VINA RESULT:      -6.9      0.487      1.094
REMARK  Name = 
REMARK  13 active torsions:
REMARK  status: ('A' for Active; 'I' for Inactive)
REMARK    1  A    between atoms: C_1  and  C_2
REMARK    2  A    between atoms: C_5  and  C_6
REMARK    3  A    between atoms: C_6  and  C_7
REMARK    4  A    between atoms: C_6  and  C_8
REMARK    5  A    between atoms: C_9  and  O_10
REMARK    6  A    between atoms: O_10  and  C_11
REMARK    7  A    between atoms: C_11  and  C_12
REMARK    8  A    between atoms: C_11  and  C_13
REMARK    9  A    between atoms: N_15  and  C_16
REMARK   10  A    between atoms: C_16  and  C_17
REMARK   11  A    between atoms: C_17  and  N_18
REMARK   12  A    between atoms: N_18  and  C_19
REMARK   13  A    between atoms: N_18  and  C_20
REMARK                            x       y       z     vdW  Elec       q    Type
REMARK                         _______ _______ _______ _____ _____    ______ ____
ROOT
ATOM      1  C   UNL     1       1.871   7.936  19.628  0.00  0.00    +0.000 C 
ATOM      2  O   UNL     1       1.741   8.067  20.840  0.00  0.00    +0.000 OA
ATOM      3  N   UNL     1       2.449   6.832  19.042  0.00  0.00    +0.000 N 
ATOM      4  H   UNL     1       2.749   6.943  18.077  0.00  0.00    +0.000 HD
ENDROOT
BRANCH   1   5
ATOM      5  C   UNL     1       1.289   8.936  18.624  0.00  0.00    +0.000 C 
ATOM      6  C   UNL     1       2.446   9.570  17.859  0.00  0.00    +0.000 C 
BRANCH   5   7
ATOM      7  O   UNL     1       0.604   9.979  19.331  0.00  0.00    +0.000 OA
BRANCH   7  13
ATOM      8  C   UNL     1      -3.039   9.955  15.965  0.00  0.00    +0.000 C 
ATOM      9  C   UNL     1      -2.429  10.461  17.241  0.00  0.00    +0.000 A 
ATOM     10  C   UNL     1      -3.060  11.456  17.980  0.00  0.00    +0.000 A 
ATOM     11  C   UNL     1      -2.488  11.915  19.172  0.00  0.00    +0.000 A 
ATOM     12  C   UNL     1      -1.260  11.408  19.627  0.00  0.00    +0.000 A 
ATOM     13  C   UNL     1      -0.596  10.436  18.852  0.00  0.00    +0.000 A 
ATOM     14  C   UNL     1      -1.202   9.945  17.688  0.00  0.00    +0.000 A 
BRANCH  12  15
ATOM     15  C   UNL     1      -0.737  11.942  20.958  0.00  0.00    +0.000 C 
ATOM     16  C   UNL     1      -0.640  10.846  22.022  0.00  0.00    +0.000 C 
ATOM     17  C   UNL     1       0.572  12.721  20.820  0.00  0.00    +0.000 C 
ENDBRANCH  12  15
ENDBRANCH   7  13
ENDBRANCH   5   7
ENDBRANCH   1   5
BRANCH   3  18
ATOM     18  C   UNL     1       3.070   5.764  19.799  0.00  0.00    +0.000 C 
BRANCH  18  19
ATOM     19  C   UNL     1       3.499   4.521  18.939  0.00  0.00    +0.000 C 
ATOM     20  C   UNL     1       3.555   3.310  19.925  0.00  0.00    +0.000 C 
ATOM     21  C   UNL     1       2.167   2.795  20.329  0.00  0.00    +0.000 C 
ATOM     22  C   UNL     1       1.437   2.274  19.105  0.00  0.00    +0.000 C 
ATOM     23  C   UNL     1       1.222   3.402  18.113  0.00  0.00    +0.000 C 
ATOM     24  C   UNL     1       2.495   4.183  17.784  0.00  0.00    +0.000 C 
BRANCH  19  25
ATOM     25  N   UNL     1       4.818   4.817  18.325  0.00  0.00    +0.000 NA
ATOM     26  C   UNL     1       5.108   4.491  16.948  0.00  0.00    +0.000 C 
ATOM     27  C   UNL     1       5.962   5.186  19.141  0.00  0.00    +0.000 C 
ENDBRANCH  19  25
ENDBRANCH  18  19
ENDBRANCH   3  18
TORSDOF 7
ENDMDL
MODEL 8
REMARK VINA RESULT:      -6.9      0.990      2.690
REMARK  Name = 
REMARK  13 active torsions:
REMARK  status: ('A' for Active; 'I' for Inactive)
REMARK    1  A    between atoms: C_1  and  C_2
REMARK    2  A    between atoms: C_5  and  C_6
REMARK    3  A    between atoms: C_6  and  C_7
REMARK    4  A    between atoms: C_6  and  C_8
REMARK    5  A    between atoms: C_9  and  O_10
REMARK    6  A    between atoms: O_10  and  C_11
REMARK    7  A    between atoms: C_11  and  C_12
REMARK    8  A    between atoms: C_11  and  C_13
REMARK    9  A    between atoms: N_15  and  C_16
REMARK   10  A    between atoms: C_16  and  C_17
REMARK   11  A    between atoms: C_17  and  N_18
REMARK   12  A    between atoms: N_18  and  C_19
REMARK   13  A    between atoms: N_18  and  C_20
REMARK                            x       y       z     vdW  Elec       q    Type
REMARK                         _______ _______ _______ _____ _____    ______ ____
ROOT
ATOM      1  C   UNL     1       2.030   7.632  19.557  0.00  0.00    +0.000 C 
ATOM      2  O   UNL     1       1.748   7.426  20.731  0.00  0.00    +0.000 OA
ATOM      3  N   UNL     1       2.907   6.850  18.838  0.00  0.00    +0.000 N 
ATOM      4  H   UNL     1       3.272   7.258  17.982  0.00  0.00    +0.000 HD
ENDROOT
BRANCH   1   5
ATOM      5  C   UNL     1       1.340   8.715  18.721  0.00  0.00    +0.000 C 
ATOM      6  C   UNL     1       2.383   9.347  17.805  0.00  0.00    +0.000 C 
BRANCH   5   7
ATOM      7  O   UNL     1       0.838   9.741  19.590  0.00  0.00    +0.000 OA
BRANCH   7  13
ATOM      8  C   UNL     1      -2.898  10.663  16.460  0.00  0.00    +0.000 C 
ATOM      9  C   UNL     1      -2.195  10.876  17.770  0.00  0.00    +0.000 A 
ATOM     10  C   UNL     1      -2.692  11.785  18.699  0.00  0.00    +0.000 A 
ATOM     11  C   UNL     1      -2.034  11.971  19.920  0.00  0.00    +0.000 A 
ATOM     12  C   UNL     1      -0.853  11.273  20.219  0.00  0.00    +0.000 A 
ATOM     13  C   UNL     1      -0.322  10.391  19.257  0.00  0.00    +0.000 A 
ATOM     14  C   UNL     1      -1.015  10.171  18.059  0.00  0.00    +0.000 A 
BRANCH  12  15
ATOM     15  C   UNL     1      -0.232  11.513  21.593  0.00  0.00    +0.000 C 
ATOM     16  C   UNL     1      -0.451  12.946  22.084  0.00  0.00    +0.000 C 
ATOM     17  C   UNL     1      -0.663  10.480  22.635  0.00  0.00    +0.000 C 
ENDBRANCH  12  15
ENDBRANCH   7  13
ENDBRANCH   5   7
ENDBRANCH   1   5
BRANCH   3  18
ATOM     18  C   UNL     1       3.678   5.773  19.426  0.00  0.00    +0.000 C 
BRANCH  18  19
ATOM     19  C   UNL     1       4.476   4.903  18.391  0.00  0.00    +0.000 C 
ATOM     20  C   UNL     1       4.524   5.736  17.069  0.00  0.00    +0.000 C 
ATOM     21  C   UNL     1       5.508   6.912  17.132  0.00  0.00    +0.000 C 
ATOM     22  C   UNL     1       6.920   6.390  17.321  0.00  0.00    +0.000 C 
ATOM     23  C   UNL     1       7.025   5.651  18.643  0.00  0.00    +0.000 C 
ATOM     24  C   UNL     1       5.945   4.587  18.839  0.00  0.00    +0.000 C 
BRANCH  19  25
ATOM     25  N   UNL     1       3.762   3.611  18.224  0.00  0.00    +0.000 NA
ATOM     26  C   UNL     1       2.688   3.452  17.273  0.00  0.00    +0.000 C 
ATOM     27  C   UNL     1       3.914   2.539  19.193  0.00  0.00    +0.000 C 
ENDBRANCH  19  25
ENDBRANCH  18  19
ENDBRANCH   3  18
TORSDOF 7
ENDMDL
MODEL 9
REMARK VINA RESULT:      -6.8      1.203      2.662
REMARK  Name = 
REMARK  13 active torsions:
REMARK  status: ('A' for Active; 'I' for Inactive)
REMARK    1  A    between atoms: C_1  and  C_2
REMARK    2  A    between atoms: C_5  and  C_6
REMARK    3  A    between atoms: C_6  and  C_7
REMARK    4  A    between atoms: C_6  and  C_8
REMARK    5  A    between atoms: C_9  and  O_10
REMARK    6  A    between atoms: O_10  and  C_11
REMARK    7  A    between atoms: C_11  and  C_12
REMARK    8  A    between atoms: C_11  and  C_13
REMARK    9  A    between atoms: N_15  and  C_16
REMARK   10  A    between atoms: C_16  and  C_17
REMARK   11  A    between atoms: C_17  and  N_18
REMARK   12  A    between atoms: N_18  and  C_19
REMARK   13  A    between atoms: N_18  and  C_20
REMARK                            x       y       z     vdW  Elec       q    Type
REMARK                         _______ _______ _______ _____ _____    ______ ____
ROOT
ATOM      1  C   UNL     1       1.883   8.080  19.383  0.00  0.00    +0.000 C 
ATOM      2  O   UNL     1       1.735   8.099  20.600  0.00  0.00    +0.000 OA
ATOM      3  N   UNL     1       2.538   7.070  18.715  0.00  0.00    +0.000 N 
ATOM      4  H   UNL     1       2.839   7.281  17.767  0.00  0.00    +0.000 HD
ENDROOT
BRANCH   1   5
ATOM      5  C   UNL     1       1.245   9.121  18.459  0.00  0.00    +0.000 C 
ATOM      6  C   UNL     1       2.361   9.961  17.845  0.00  0.00    +0.000 C 
BRANCH   5   7
ATOM      7  O   UNL     1       0.409   9.995  19.229  0.00  0.00    +0.000 OA
BRANCH   7  13
ATOM      8  C   UNL     1      -3.088   9.888  15.714  0.00  0.00    +0.000 C 
ATOM      9  C   UNL     1      -2.537  10.418  17.006  0.00  0.00    +0.000 A 
ATOM     10  C   UNL     1      -3.209  11.416  17.705  0.00  0.00    +0.000 A 
ATOM     11  C   UNL     1      -2.692  11.897  18.913  0.00  0.00    +0.000 A 
ATOM     12  C   UNL     1      -1.480  11.408  19.427  0.00  0.00    +0.000 A 
ATOM     13  C   UNL     1      -0.774  10.433  18.693  0.00  0.00    +0.000 A 
ATOM     14  C   UNL     1      -1.326   9.920  17.512  0.00  0.00    +0.000 A 
BRANCH  12  15
ATOM     15  C   UNL     1      -1.019  11.965  20.771  0.00  0.00    +0.000 C 
ATOM     16  C   UNL     1      -0.100  13.178  20.609  0.00  0.00    +0.000 C 
ATOM     17  C   UNL     1      -2.176  12.250  21.731  0.00  0.00    +0.000 C 
ENDBRANCH  12  15
ENDBRANCH   7  13
ENDBRANCH   5   7
ENDBRANCH   1   5
BRANCH   3  18
ATOM     18  C   UNL     1       3.223   5.984  19.388  0.00  0.00    +0.000 C 
BRANCH  18  19
ATOM     19  C   UNL     1       4.001   5.011  18.430  0.00  0.00    +0.000 C 
ATOM     20  C   UNL     1       4.298   5.827  17.131  0.00  0.00    +0.000 C 
ATOM     21  C   UNL     1       5.420   6.859  17.309  0.00  0.00    +0.000 C 
ATOM     22  C   UNL     1       6.721   6.151  17.637  0.00  0.00    +0.000 C 
ATOM     23  C   UNL     1       6.587   5.407  18.954  0.00  0.00    +0.000 C 
ATOM     24  C   UNL     1       5.358   4.500  19.025  0.00  0.00    +0.000 C 
BRANCH  19  25
ATOM     25  N   UNL     1       3.140   3.828  18.176  0.00  0.00    +0.000 NA
ATOM     26  C   UNL     1       3.690   2.499  18.048  0.00  0.00    +0.000 C 
ATOM     27  C   UNL     1       1.754   3.981  17.767  0.00  0.00    +0.000 C 
ENDBRANCH  19  25
ENDBRANCH  18  19
ENDBRANCH   3  18
TORSDOF 7
ENDMDL
