MODEL 1
REMARK VINA RESULT:      -6.9      0.000      0.000
REMARK  Name = 
REMARK  21 active torsions:
REMARK  status: ('A' for Active; 'I' for Inactive)
REMARK    1  A    between atoms: N_1  and  C_2
REMARK    2  A    between atoms: C_2  and  C_3
REMARK    3  A    between atoms: C_3  and  C_4
REMARK    4  A    between atoms: C_4  and  N_5
REMARK    5  A    between atoms: N_5  and  C_6
REMARK    6  A    between atoms: C_6  and  C_7
REMARK    7  A    between atoms: C_7  and  C_8
REMARK    8  A    between atoms: C_8  and  C_9
REMARK    9  A    between atoms: C_9  and  N_10
REMARK   10  A    between atoms: C_11  and  C_13
REMARK   11  A    between atoms: C_13  and  O_14
REMARK   12  A    between atoms: C_13  and  C_22
REMARK   13  A    between atoms: O_14  and  C_15
REMARK   14  A    between atoms: C_15  and  C_16
REMARK   15  A    between atoms: N_24  and  C_25
REMARK   16  A    between atoms: C_25  and  C_26
REMARK   17  A    between atoms: C_26  and  C_27
REMARK   18  A    between atoms: C_27  and  C_28
REMARK   19  A    between atoms: C_28  and  C_29
REMARK   20  A    between atoms: C_29  and  C_30
REMARK   21  A    between atoms: C_30  and  N_31
REMARK                            x       y       z     vdW  Elec       q    Type
REMARK                         _______ _______ _______ _____ _____    ______ ____
ROOT
ATOM      1  C   UNL     1       7.118   5.044  17.673  0.00  0.00    +0.000 C 
ENDROOT
BRANCH   1   3
ATOM      2  N   UNL     1       5.033   3.730  17.460  0.00  0.00    +0.000 N 
ATOM      3  C   UNL     1       5.953   4.286  18.338  0.00  0.00    +0.000 C 
ATOM      4  O   UNL     1       5.820   4.197  19.555  0.00  0.00    +0.000 OA
ATOM      5  H   UNL     1       5.141   3.865  16.461  0.00  0.00    +0.000 HD
BRANCH   2   6
ATOM      6  C   UNL     1       3.870   2.998  17.928  0.00  0.00    +0.000 C 
BRANCH   6   7
ATOM      7  C   UNL     1       2.563   3.577  17.391  0.00  0.00    +0.000 C 
BRANCH   7   8
ATOM      8  C   UNL     1       1.375   3.241  18.297  0.00  0.00    +0.000 C 
BRANCH   8   9
ATOM      9  C   UNL     1       1.839   2.646  19.626  0.00  0.00    +0.000 C 
BRANCH   9  10
ATOM     10  N   UNL     1       1.290   3.435  20.730  0.00  0.00    +0.000 NA
ATOM     11  H   UNL     1       0.370   3.793  20.470  0.00  0.00    +0.000 HD
BRANCH  10  12
ATOM     12  C   UNL     1       2.171   4.557  21.052  0.00  0.00    +0.000 C 
BRANCH  12  13
ATOM     13  C   UNL     1       1.470   5.887  20.767  0.00  0.00    +0.000 C 
BRANCH  13  14
ATOM     14  C   UNL     1       2.293   6.713  19.780  0.00  0.00    +0.000 C 
BRANCH  14  15
ATOM     15  N   UNL     1       3.671   6.240  19.722  0.00  0.00    +0.000 NA
ATOM     16  H   UNL     1       4.212   6.850  19.110  0.00  0.00    +0.000 HD
ATOM     17  H   UNL     1       3.697   5.314  19.296  0.00  0.00    +0.000 HD
ENDBRANCH  14  15
ENDBRANCH  13  14
ENDBRANCH  12  13
ENDBRANCH  10  12
ENDBRANCH   9  10
ENDBRANCH   8   9
ENDBRANCH   7   8
ENDBRANCH   6   7
ENDBRANCH   2   6
ENDBRANCH   1   3
BRANCH   1  18
ATOM     18  C   UNL     1       6.792   6.534  17.548  0.00  0.00    +0.000 C 
ATOM     19  O   UNL     1       5.630   6.925  17.419  0.00  0.00    +0.000 OA
ATOM     20  N   UNL     1       7.867   7.386  17.650  0.00  0.00    +0.000 N 
ATOM     21  H   UNL     1       8.788   6.986  17.824  0.00  0.00    +0.000 HD
BRANCH  20  22
ATOM     22  C   UNL     1       7.693   8.819  17.742  0.00  0.00    +0.000 C 
BRANCH  22  23
ATOM     23  C   UNL     1       8.709   9.475  18.683  0.00  0.00    +0.000 C 
BRANCH  23  24
ATOM     24  C   UNL     1       9.356  10.752  18.142  0.00  0.00    +0.000 C 
BRANCH  24  25
ATOM     25  C   UNL     1      10.613  11.143  18.917  0.00  0.00    +0.000 C 
BRANCH  25  26
ATOM     26  C   UNL     1      11.378  12.292  18.268  0.00  0.00    +0.000 C 
BRANCH  26  27
ATOM     27  C   UNL     1      10.836  13.626  18.781  0.00  0.00    +0.000 C 
BRANCH  27  28
ATOM     28  N   UNL     1       9.912  14.183  17.801  0.00  0.00    +0.000 NA
ATOM     29  C   UNL     1       8.879  14.791  18.249  0.00  0.00    +0.000 C 
ATOM     30  N   UNL     1       8.512  15.042  19.526  0.00  0.00    +0.000 N 
ATOM     31  N   UNL     1       7.958  15.272  17.383  0.00  0.00    +0.000 N 
ATOM     32  H   UNL     1       8.968  14.477  20.231  0.00  0.00    +0.000 HD
ATOM     33  H   UNL     1       7.521  15.146  19.693  0.00  0.00    +0.000 HD
ATOM     34  H   UNL     1       8.350  15.356  16.450  0.00  0.00    +0.000 HD
ATOM     35  H   UNL     1       7.467  16.105  17.675  0.00  0.00    +0.000 HD
ENDBRANCH  27  28
ENDBRANCH  26  27
ENDBRANCH  25  26
ENDBRANCH  24  25
ENDBRANCH  23  24
ENDBRANCH  22  23
ENDBRANCH  20  22
ENDBRANCH   1  18
BRANCH   1  36
ATOM     36  O   UNL     1       7.469   4.502  16.397  0.00  0.00    +0.000 OA
BRANCH  36  37
ATOM     37  C   UNL     1       7.228   5.416  15.322  0.00  0.00    +0.000 C 
BRANCH  37  38
ATOM     38  C   UNL     1       6.829   4.714  14.043  0.00  0.00    +0.000 A 
ATOM     39  C   UNL     1       7.613   4.757  12.886  0.00  0.00    +0.000 A 
ATOM     40  C   UNL     1       7.203   4.097  11.722  0.00  0.00    +0.000 A 
ATOM     41  C   UNL     1       6.006   3.386  11.711  0.00  0.00    +0.000 A 
ATOM     42  C   UNL     1       5.212   3.335  12.854  0.00  0.00    +0.000 A 
ATOM     43  C   UNL     1       5.626   3.997  14.016  0.00  0.00    +0.000 A 
ENDBRANCH  37  38
ENDBRANCH  36  37
ENDBRANCH   1  36
TORSDOF 21
ENDMDL
MODEL 2
REMARK VINA RESULT:      -6.9      2.470      4.525
REMARK  Name = 
REMARK  21 active torsions:
REMARK  status: ('A' for Active; 'I' for Inactive)
REMARK    1  A    between atoms: N_1  and  C_2
REMARK    2  A    between atoms: C_2  and  C_3
REMARK    3  A    between atoms: C_3  and  C_4
REMARK    4  A    between atoms: C_4  and  N_5
REMARK    5  A    between atoms: N_5  and  C_6
REMARK    6  A    between atoms: C_6  and  C_7
REMARK    7  A    between atoms: C_7  and  C_8
REMARK    8  A    between atoms: C_8  and  C_9
REMARK    9  A    between atoms: C_9  and  N_10
REMARK   10  A    between atoms: C_11  and  C_13
REMARK   11  A    between atoms: C_13  and  O_14
REMARK   12  A    between atoms: C_13  and  C_22
REMARK   13  A    between atoms: O_14  and  C_15
REMARK   14  A    between atoms: C_15  and  C_16
REMARK   15  A    between atoms: N_24  and  C_25
REMARK   16  A    between atoms: C_25  and  C_26
REMARK   17  A    between atoms: C_26  and  C_27
REMARK   18  A    between atoms: C_27  and  C_28
REMARK   19  A    between atoms: C_28  and  C_29
REMARK   20  A    between atoms: C_29  and  C_30
REMARK   21  A    between atoms: C_30  and  N_31
REMARK                            x       y       z     vdW  Elec       q    Type
REMARK                         _______ _______ _______ _____ _____    ______ ____
ROOT
ATOM      1  C   UNL     1       5.356   5.912  17.378  0.00  0.00    +0.000 C 
ENDROOT
BRANCH   1   3
ATOM      2  N   UNL     1       4.387   3.924  18.487  0.00  0.00    +0.000 N 
ATOM      3  C   UNL     1       5.556   4.568  18.108  0.00  0.00    +0.000 C 
ATOM      4  O   UNL     1       6.662   4.106  18.367  0.00  0.00    +0.000 OA
ATOM      5  H   UNL     1       3.488   4.357  18.305  0.00  0.00    +0.000 HD
BRANCH   2   6
ATOM      6  C   UNL     1       4.403   2.658  19.197  0.00  0.00    +0.000 C 
BRANCH   6   7
ATOM      7  C   UNL     1       3.614   1.571  18.470  0.00  0.00    +0.000 C 
BRANCH   7   8
ATOM      8  C   UNL     1       2.490   2.158  17.612  0.00  0.00    +0.000 C 
BRANCH   8   9
ATOM      9  C   UNL     1       1.237   2.426  18.446  0.00  0.00    +0.000 C 
BRANCH   9  10
ATOM     10  N   UNL     1       1.166   3.852  18.771  0.00  0.00    +0.000 NA
ATOM     11  H   UNL     1       2.067   4.291  18.581  0.00  0.00    +0.000 HD
BRANCH  10  12
ATOM     12  C   UNL     1       0.823   4.043  20.180  0.00  0.00    +0.000 C 
BRANCH  12  13
ATOM     13  C   UNL     1       2.050   4.499  20.972  0.00  0.00    +0.000 C 
BRANCH  13  14
ATOM     14  C   UNL     1       2.382   3.479  22.059  0.00  0.00    +0.000 C 
BRANCH  14  15
ATOM     15  N   UNL     1       1.499   2.321  21.979  0.00  0.00    +0.000 NA
ATOM     16  H   UNL     1       0.795   2.482  21.259  0.00  0.00    +0.000 HD
ATOM     17  H   UNL     1       0.990   2.217  22.856  0.00  0.00    +0.000 HD
ENDBRANCH  14  15
ENDBRANCH  13  14
ENDBRANCH  12  13
ENDBRANCH  10  12
ENDBRANCH   9  10
ENDBRANCH   8   9
ENDBRANCH   7   8
ENDBRANCH   6   7
ENDBRANCH   2   6
ENDBRANCH   1   3
BRANCH   1  18
ATOM     18  C   UNL     1       6.706   6.546  17.038  0.00  0.00    +0.000 C 
ATOM     19  O   UNL     1       7.357   6.179  16.057  0.00  0.00    +0.000 OA
ATOM     20  N   UNL     1       7.100   7.578  17.860  0.00  0.00    +0.000 N 
ATOM     21  H   UNL     1       6.473   7.866  18.609  0.00  0.00    +0.000 HD
BRANCH  20  22
ATOM     22  C   UNL     1       8.253   8.395  17.551  0.00  0.00    +0.000 C 
BRANCH  22  23
ATOM     23  C   UNL     1       8.083   9.847  18.010  0.00  0.00    +0.000 C 
BRANCH  23  24
ATOM     24  C   UNL     1       9.209  10.376  18.903  0.00  0.00    +0.000 C 
BRANCH  24  25
ATOM     25  C   UNL     1       9.698  11.755  18.468  0.00  0.00    +0.000 C 
BRANCH  25  26
ATOM     26  C   UNL     1      10.958  11.695  17.610  0.00  0.00    +0.000 C 
BRANCH  26  27
ATOM     27  C   UNL     1      11.311  13.099  17.114  0.00  0.00    +0.000 C 
BRANCH  27  28
ATOM     28  N   UNL     1      10.529  14.083  17.852  0.00  0.00    +0.000 NA
ATOM     29  C   UNL     1      10.391  15.239  17.320  0.00  0.00    +0.000 C 
ATOM     30  N   UNL     1      10.836  15.699  16.129  0.00  0.00    +0.000 N 
ATOM     31  N   UNL     1       9.728  16.209  17.990  0.00  0.00    +0.000 N 
ATOM     32  H   UNL     1      11.577  15.159  15.700  0.00  0.00    +0.000 HD
ATOM     33  H   UNL     1      10.995  16.695  16.066  0.00  0.00    +0.000 HD
ATOM     34  H   UNL     1       9.151  15.810  18.723  0.00  0.00    +0.000 HD
ATOM     35  H   UNL     1       9.228  16.879  17.422  0.00  0.00    +0.000 HD
ENDBRANCH  27  28
ENDBRANCH  26  27
ENDBRANCH  25  26
ENDBRANCH  24  25
ENDBRANCH  23  24
ENDBRANCH  22  23
ENDBRANCH  20  22
ENDBRANCH   1  18
BRANCH   1  36
ATOM     36  O   UNL     1       4.548   6.827  18.123  0.00  0.00    +0.000 OA
BRANCH  36  37
ATOM     37  C   UNL     1       3.283   7.078  17.503  0.00  0.00    +0.000 C 
BRANCH  37  38
ATOM     38  C   UNL     1       2.403   7.990  18.331  0.00  0.00    +0.000 A 
ATOM     39  C   UNL     1       2.055   7.700  19.655  0.00  0.00    +0.000 A 
ATOM     40  C   UNL     1       1.235   8.569  20.382  0.00  0.00    +0.000 A 
ATOM     41  C   UNL     1       0.761   9.737  19.790  0.00  0.00    +0.000 A 
ATOM     42  C   UNL     1       1.096  10.040  18.473  0.00  0.00    +0.000 A 
ATOM     43  C   UNL     1       1.918   9.167  17.748  0.00  0.00    +0.000 A 
ENDBRANCH  37  38
ENDBRANCH  36  37
ENDBRANCH   1  36
TORSDOF 21
ENDMDL
MODEL 3
REMARK VINA RESULT:      -6.8      3.032      5.579
REMARK  Name = 
REMARK  21 active torsions:
REMARK  status: ('A' for Active; 'I' for Inactive)
REMARK    1  A    between atoms: N_1  and  C_2
REMARK    2  A    between atoms: C_2  and  C_3
REMARK    3  A    between atoms: C_3  and  C_4
REMARK    4  A    between atoms: C_4  and  N_5
REMARK    5  A    between atoms: N_5  and  C_6
REMARK    6  A    between atoms: C_6  and  C_7
REMARK    7  A    between atoms: C_7  and  C_8
REMARK    8  A    between atoms: C_8  and  C_9
REMARK    9  A    between atoms: C_9  and  N_10
REMARK   10  A    between atoms: C_11  and  C_13
REMARK   11  A    between atoms: C_13  and  O_14
REMARK   12  A    between atoms: C_13  and  C_22
REMARK   13  A    between atoms: O_14  and  C_15
REMARK   14  A    between atoms: C_15  and  C_16
REMARK   15  A    between atoms: N_24  and  C_25
REMARK   16  A    between atoms: C_25  and  C_26
REMARK   17  A    between atoms: C_26  and  C_27
REMARK   18  A    between atoms: C_27  and  C_28
REMARK   19  A    between atoms: C_28  and  C_29
REMARK   20  A    between atoms: C_29  and  C_30
REMARK   21  A    between atoms: C_30  and  N_31
REMARK                            x       y       z     vdW  Elec       q    Type
REMARK                         _______ _______ _______ _____ _____    ______ ____
ROOT
ATOM      1  C   UNL     1       3.953   5.817  17.974  0.00  0.00    +0.000 C 
ENDROOT
BRANCH   1   3
ATOM      2  N   UNL     1       2.530   7.789  17.519  0.00  0.00    +0.000 N 
ATOM      3  C   UNL     1       2.935   6.864  18.470  0.00  0.00    +0.000 C 
ATOM      4  O   UNL     1       2.528   6.904  19.626  0.00  0.00    +0.000 OA
ATOM      5  H   UNL     1       2.925   7.763  16.586  0.00  0.00    +0.000 HD
BRANCH   2   6
ATOM      6  C   UNL     1       1.589   8.850  17.832  0.00  0.00    +0.000 C 
BRANCH   6   7
ATOM      7  C   UNL     1       2.278  10.195  18.052  0.00  0.00    +0.000 C 
BRANCH   7   8
ATOM      8  C   UNL     1       1.286  11.283  18.472  0.00  0.00    +0.000 C 
BRANCH   8   9
ATOM      9  C   UNL     1       1.421  11.615  19.958  0.00  0.00    +0.000 C 
BRANCH   9  10
ATOM     10  N   UNL     1       0.108  11.519  20.598  0.00  0.00    +0.000 NA
ATOM     11  H   UNL     1       0.204  11.679  21.601  0.00  0.00    +0.000 HD
BRANCH  10  12
ATOM     12  C   UNL     1      -0.481  10.199  20.373  0.00  0.00    +0.000 C 
BRANCH  12  13
ATOM     13  C   UNL     1      -0.276   9.306  21.598  0.00  0.00    +0.000 C 
BRANCH  13  14
ATOM     14  C   UNL     1      -0.492  10.112  22.877  0.00  0.00    +0.000 C 
BRANCH  14  15
ATOM     15  N   UNL     1       0.226   9.519  23.999  0.00  0.00    +0.000 NA
ATOM     16  H   UNL     1       0.725  10.250  24.505  0.00  0.00    +0.000 HD
ATOM     17  H   UNL     1       0.936   8.877  23.649  0.00  0.00    +0.000 HD
ENDBRANCH  14  15
ENDBRANCH  13  14
ENDBRANCH  12  13
ENDBRANCH  10  12
ENDBRANCH   9  10
ENDBRANCH   8   9
ENDBRANCH   7   8
ENDBRANCH   6   7
ENDBRANCH   2   6
ENDBRANCH   1   3
BRANCH   1  18
ATOM     18  C   UNL     1       5.054   6.485  17.147  0.00  0.00    +0.000 C 
ATOM     19  O   UNL     1       4.843   6.874  15.996  0.00  0.00    +0.000 OA
ATOM     20  N   UNL     1       6.254   6.666  17.796  0.00  0.00    +0.000 N 
ATOM     21  H   UNL     1       6.327   6.377  18.770  0.00  0.00    +0.000 HD
BRANCH  20  22
ATOM     22  C   UNL     1       7.321   7.449  17.211  0.00  0.00    +0.000 C 
BRANCH  22  23
ATOM     23  C   UNL     1       8.207   8.116  18.269  0.00  0.00    +0.000 C 
BRANCH  23  24
ATOM     24  C   UNL     1       8.380   9.628  18.102  0.00  0.00    +0.000 C 
BRANCH  24  25
ATOM     25  C   UNL     1       9.488  10.189  18.991  0.00  0.00    +0.000 C 
BRANCH  25  26
ATOM     26  C   UNL     1       9.315  11.675  19.289  0.00  0.00    +0.000 C 
BRANCH  26  27
ATOM     27  C   UNL     1      10.679  12.367  19.263  0.00  0.00    +0.000 C 
BRANCH  27  28
ATOM     28  N   UNL     1      11.148  12.463  17.886  0.00  0.00    +0.000 NA
ATOM     29  C   UNL     1      10.997  13.587  17.293  0.00  0.00    +0.000 C 
ATOM     30  N   UNL     1      10.491  14.750  17.763  0.00  0.00    +0.000 N 
ATOM     31  N   UNL     1      11.358  13.713  15.995  0.00  0.00    +0.000 N 
ATOM     32  H   UNL     1       9.933  14.676  18.605  0.00  0.00    +0.000 HD
ATOM     33  H   UNL     1      10.078  15.367  17.077  0.00  0.00    +0.000 HD
ATOM     34  H   UNL     1      11.992  12.968  15.724  0.00  0.00    +0.000 HD
ATOM     35  H   UNL     1      11.684  14.626  15.712  0.00  0.00    +0.000 HD
ENDBRANCH  27  28
ENDBRANCH  26  27
ENDBRANCH  25  26
ENDBRANCH  24  25
ENDBRANCH  23  24
ENDBRANCH  22  23
ENDBRANCH  20  22
ENDBRANCH   1  18
BRANCH   1  36
ATOM     36  O   UNL     1       3.337   4.764  17.227  0.00  0.00    +0.000 OA
BRANCH  36  37
ATOM     37  C   UNL     1       3.591   3.470  17.784  0.00  0.00    +0.000 C 
BRANCH  37  38
ATOM     38  C   UNL     1       2.832   3.236  19.073  0.00  0.00    +0.000 A 
ATOM     39  C   UNL     1       3.462   2.823  20.251  0.00  0.00    +0.000 A 
ATOM     40  C   UNL     1       2.721   2.613  21.418  0.00  0.00    +0.000 A 
ATOM     41  C   UNL     1       1.344   2.819  21.415  0.00  0.00    +0.000 A 
ATOM     42  C   UNL     1       0.700   3.229  20.250  0.00  0.00    +0.000 A 
ATOM     43  C   UNL     1       1.446   3.438  19.083  0.00  0.00    +0.000 A 
ENDBRANCH  37  38
ENDBRANCH  36  37
ENDBRANCH   1  36
TORSDOF 21
ENDMDL
MODEL 4
REMARK VINA RESULT:      -6.6      2.540      4.304
REMARK  Name = 
REMARK  21 active torsions:
REMARK  status: ('A' for Active; 'I' for Inactive)
REMARK    1  A    between atoms: N_1  and  C_2
REMARK    2  A    between atoms: C_2  and  C_3
REMARK    3  A    between atoms: C_3  and  C_4
REMARK    4  A    between atoms: C_4  and  N_5
REMARK    5  A    between atoms: N_5  and  C_6
REMARK    6  A    between atoms: C_6  and  C_7
REMARK    7  A    between atoms: C_7  and  C_8
REMARK    8  A    between atoms: C_8  and  C_9
REMARK    9  A    between atoms: C_9  and  N_10
REMARK   10  A    between atoms: C_11  and  C_13
REMARK   11  A    between atoms: C_13  and  O_14
REMARK   12  A    between atoms: C_13  and  C_22
REMARK   13  A    between atoms: O_14  and  C_15
REMARK   14  A    between atoms: C_15  and  C_16
REMARK   15  A    between atoms: N_24  and  C_25
REMARK   16  A    between atoms: C_25  and  C_26
REMARK   17  A    between atoms: C_26  and  C_27
REMARK   18  A    between atoms: C_27  and  C_28
REMARK   19  A    between atoms: C_28  and  C_29
REMARK   20  A    between atoms: C_29  and  C_30
REMARK   21  A    between atoms: C_30  and  N_31
REMARK                            x       y       z     vdW  Elec       q    Type
REMARK                         _______ _______ _______ _____ _____    ______ ____
ROOT
ATOM      1  C   UNL     1       5.673   5.589  17.481  0.00  0.00    +0.000 C 
ENDROOT
BRANCH   1   3
ATOM      2  N   UNL     1       4.656   3.337  17.606  0.00  0.00    +0.000 N 
ATOM      3  C   UNL     1       5.289   4.349  18.313  0.00  0.00    +0.000 C 
ATOM      4  O   UNL     1       5.497   4.263  19.519  0.00  0.00    +0.000 OA
ATOM      5  H   UNL     1       4.450   3.460  16.621  0.00  0.00    +0.000 HD
BRANCH   2   6
ATOM      6  C   UNL     1       4.216   2.111  18.247  0.00  0.00    +0.000 C 
BRANCH   6   7
ATOM      7  C   UNL     1       2.708   1.898  18.126  0.00  0.00    +0.000 C 
BRANCH   7   8
ATOM      8  C   UNL     1       2.017   3.081  17.444  0.00  0.00    +0.000 C 
BRANCH   8   9
ATOM      9  C   UNL     1       0.750   3.494  18.194  0.00  0.00    +0.000 C 
BRANCH   9  10
ATOM     10  N   UNL     1       0.890   3.147  19.610  0.00  0.00    +0.000 NA
ATOM     11  H   UNL     1       0.063   2.636  19.919  0.00  0.00    +0.000 HD
BRANCH  10  12
ATOM     12  C   UNL     1       1.046   4.352  20.423  0.00  0.00    +0.000 C 
BRANCH  12  13
ATOM     13  C   UNL     1       2.326   4.272  21.258  0.00  0.00    +0.000 C 
BRANCH  13  14
ATOM     14  C   UNL     1       2.630   2.818  21.615  0.00  0.00    +0.000 C 
BRANCH  14  15
ATOM     15  N   UNL     1       1.510   2.207  22.322  0.00  0.00    +0.000 NA
ATOM     16  H   UNL     1       0.709   2.837  22.295  0.00  0.00    +0.000 HD
ATOM     17  H   UNL     1       1.750   2.092  23.306  0.00  0.00    +0.000 HD
ENDBRANCH  14  15
ENDBRANCH  13  14
ENDBRANCH  12  13
ENDBRANCH  10  12
ENDBRANCH   9  10
ENDBRANCH   8   9
ENDBRANCH   7   8
ENDBRANCH   6   7
ENDBRANCH   2   6
ENDBRANCH   1   3
BRANCH   1  18
ATOM     18  C   UNL     1       6.951   6.230  18.025  0.00  0.00    +0.000 C 
ATOM     19  O   UNL     1       7.803   5.559  18.611  0.00  0.00    +0.000 OA
ATOM     20  N   UNL     1       7.098   7.573  17.764  0.00  0.00    +0.000 N 
ATOM     21  H   UNL     1       6.379   8.041  17.215  0.00  0.00    +0.000 HD
BRANCH  20  22
ATOM     22  C   UNL     1       8.333   8.270  18.047  0.00  0.00    +0.000 C 
BRANCH  22  23
ATOM     23  C   UNL     1       8.140   9.787  18.153  0.00  0.00    +0.000 C 
BRANCH  23  24
ATOM     24  C   UNL     1       9.430  10.607  18.060  0.00  0.00    +0.000 C 
BRANCH  24  25
ATOM     25  C   UNL     1       9.954  11.025  19.432  0.00  0.00    +0.000 C 
BRANCH  25  26
ATOM     26  C   UNL     1      11.370  11.590  19.379  0.00  0.00    +0.000 C 
BRANCH  26  27
ATOM     27  C   UNL     1      11.318  13.117  19.426  0.00  0.00    +0.000 C 
BRANCH  27  28
ATOM     28  N   UNL     1      11.761  13.657  18.147  0.00  0.00    +0.000 NA
ATOM     29  C   UNL     1      10.857  14.065  17.338  0.00  0.00    +0.000 C 
ATOM     30  N   UNL     1       9.514  14.111  17.498  0.00  0.00    +0.000 N 
ATOM     31  N   UNL     1      11.209  14.517  16.113  0.00  0.00    +0.000 N 
ATOM     32  H   UNL     1       9.141  13.533  18.240  0.00  0.00    +0.000 HD
ATOM     33  H   UNL     1       8.963  14.062  16.652  0.00  0.00    +0.000 HD
ATOM     34  H   UNL     1      12.194  14.762  16.089  0.00  0.00    +0.000 HD
ATOM     35  H   UNL     1      10.619  15.236  15.719  0.00  0.00    +0.000 HD
ENDBRANCH  27  28
ENDBRANCH  26  27
ENDBRANCH  25  26
ENDBRANCH  24  25
ENDBRANCH  23  24
ENDBRANCH  22  23
ENDBRANCH  20  22
ENDBRANCH   1  18
BRANCH   1  36
ATOM     36  O   UNL     1       4.619   6.554  17.415  0.00  0.00    +0.000 OA
BRANCH  36  37
ATOM     37  C   UNL     1       3.556   6.275  18.332  0.00  0.00    +0.000 C 
BRANCH  37  38
ATOM     38  C   UNL     1       2.688   7.486  18.598  0.00  0.00    +0.000 A 
ATOM     39  C   UNL     1       2.457   8.471  17.633  0.00  0.00    +0.000 A 
ATOM     40  C   UNL     1       1.652   9.578  17.924  0.00  0.00    +0.000 A 
ATOM     41  C   UNL     1       1.070   9.703  19.182  0.00  0.00    +0.000 A 
ATOM     42  C   UNL     1       1.291   8.732  20.156  0.00  0.00    +0.000 A 
ATOM     43  C   UNL     1       2.098   7.626  19.860  0.00  0.00    +0.000 A 
ENDBRANCH  37  38
ENDBRANCH  36  37
ENDBRANCH   1  36
TORSDOF 21
ENDMDL
MODEL 5
REMARK VINA RESULT:      -6.6      2.862      3.966
REMARK  Name = 
REMARK  21 active torsions:
REMARK  status: ('A' for Active; 'I' for Inactive)
REMARK    1  A    between atoms: N_1  and  C_2
REMARK    2  A    between atoms: C_2  and  C_3
REMARK    3  A    between atoms: C_3  and  C_4
REMARK    4  A    between atoms: C_4  and  N_5
REMARK    5  A    between atoms: N_5  and  C_6
REMARK    6  A    between atoms: C_6  and  C_7
REMARK    7  A    between atoms: C_7  and  C_8
REMARK    8  A    between atoms: C_8  and  C_9
REMARK    9  A    between atoms: C_9  and  N_10
REMARK   10  A    between atoms: C_11  and  C_13
REMARK   11  A    between atoms: C_13  and  O_14
REMARK   12  A    between atoms: C_13  and  C_22
REMARK   13  A    between atoms: O_14  and  C_15
REMARK   14  A    between atoms: C_15  and  C_16
REMARK   15  A    between atoms: N_24  and  C_25
REMARK   16  A    between atoms: C_25  and  C_26
REMARK   17  A    between atoms: C_26  and  C_27
REMARK   18  A    between atoms: C_27  and  C_28
REMARK   19  A    between atoms: C_28  and  C_29
REMARK   20  A    between atoms: C_29  and  C_30
REMARK   21  A    between atoms: C_30  and  N_31
REMARK                            x       y       z     vdW  Elec       q    Type
REMARK                         _______ _______ _______ _____ _____    ______ ____
ROOT
ATOM      1  C   UNL     1       4.873   5.444  17.734  0.00  0.00    +0.000 C 
ENDROOT
BRANCH   1   3
ATOM      2  N   UNL     1       3.093   6.439  19.136  0.00  0.00    +0.000 N 
ATOM      3  C   UNL     1       3.783   6.517  17.935  0.00  0.00    +0.000 C 
ATOM      4  O   UNL     1       3.516   7.365  17.089  0.00  0.00    +0.000 OA
ATOM      5  H   UNL     1       3.301   5.694  19.792  0.00  0.00    +0.000 HD
BRANCH   2   6
ATOM      6  C   UNL     1       2.026   7.365  19.470  0.00  0.00    +0.000 C 
BRANCH   6   7
ATOM      7  C   UNL     1       1.548   7.207  20.912  0.00  0.00    +0.000 C 
BRANCH   7   8
ATOM      8  C   UNL     1       1.261   8.559  21.570  0.00  0.00    +0.000 C 
BRANCH   8   9
ATOM      9  C   UNL     1       0.120   9.291  20.862  0.00  0.00    +0.000 C 
BRANCH   9  10
ATOM     10  N   UNL     1       0.470  10.704  20.710  0.00  0.00    +0.000 NA
ATOM     11  H   UNL     1       0.595  11.127  21.630  0.00  0.00    +0.000 HD
BRANCH  10  12
ATOM     12  C   UNL     1      -0.581  11.421  19.987  0.00  0.00    +0.000 C 
BRANCH  12  13
ATOM     13  C   UNL     1      -1.130  10.558  18.848  0.00  0.00    +0.000 C 
BRANCH  13  14
ATOM     14  C   UNL     1      -1.886  11.430  17.848  0.00  0.00    +0.000 C 
BRANCH  14  15
ATOM     15  N   UNL     1      -1.125  12.628  17.516  0.00  0.00    +0.000 NA
ATOM     16  H   UNL     1      -1.762  13.419  17.427  0.00  0.00    +0.000 HD
ATOM     17  H   UNL     1      -0.685  12.512  16.603  0.00  0.00    +0.000 HD
ENDBRANCH  14  15
ENDBRANCH  13  14
ENDBRANCH  12  13
ENDBRANCH  10  12
ENDBRANCH   9  10
ENDBRANCH   8   9
ENDBRANCH   7   8
ENDBRANCH   6   7
ENDBRANCH   2   6
ENDBRANCH   1   3
BRANCH   1  18
ATOM     18  C   UNL     1       6.232   5.961  18.209  0.00  0.00    +0.000 C 
ATOM     19  O   UNL     1       6.904   5.332  19.030  0.00  0.00    +0.000 OA
ATOM     20  N   UNL     1       6.662   7.126  17.617  0.00  0.00    +0.000 N 
ATOM     21  H   UNL     1       6.078   7.549  16.898  0.00  0.00    +0.000 HD
BRANCH  20  22
ATOM     22  C   UNL     1       8.002   7.631  17.823  0.00  0.00    +0.000 C 
BRANCH  22  23
ATOM     23  C   UNL     1       8.042   9.159  17.940  0.00  0.00    +0.000 C 
BRANCH  23  24
ATOM     24  C   UNL     1       9.091   9.703  18.913  0.00  0.00    +0.000 C 
BRANCH  24  25
ATOM     25  C   UNL     1       9.999  10.747  18.268  0.00  0.00    +0.000 C 
BRANCH  25  26
ATOM     26  C   UNL     1      10.684  11.651  19.289  0.00  0.00    +0.000 C 
BRANCH  26  27
ATOM     27  C   UNL     1      11.800  12.444  18.607  0.00  0.00    +0.000 C 
BRANCH  27  28
ATOM     28  N   UNL     1      11.244  13.661  18.026  0.00  0.00    +0.000 NA
ATOM     29  C   UNL     1      11.553  13.924  16.813  0.00  0.00    +0.000 C 
ATOM     30  N   UNL     1      12.307  13.216  15.941  0.00  0.00    +0.000 N 
ATOM     31  N   UNL     1      11.115  15.071  16.245  0.00  0.00    +0.000 N 
ATOM     32  H   UNL     1      12.909  12.515  16.353  0.00  0.00    +0.000 HD
ATOM     33  H   UNL     1      12.770  13.749  15.217  0.00  0.00    +0.000 HD
ATOM     34  H   UNL     1      10.331  15.454  16.764  0.00  0.00    +0.000 HD
ATOM     35  H   UNL     1      10.944  15.037  15.250  0.00  0.00    +0.000 HD
ENDBRANCH  27  28
ENDBRANCH  26  27
ENDBRANCH  25  26
ENDBRANCH  24  25
ENDBRANCH  23  24
ENDBRANCH  22  23
ENDBRANCH  20  22
ENDBRANCH   1  18
BRANCH   1  36
ATOM     36  O   UNL     1       4.956   4.993  16.379  0.00  0.00    +0.000 OA
BRANCH  36  37
ATOM     37  C   UNL     1       6.168   4.282  16.107  0.00  0.00    +0.000 C 
BRANCH  37  38
ATOM     38  C   UNL     1       6.546   4.321  14.642  0.00  0.00    +0.000 A 
ATOM     39  C   UNL     1       7.503   5.206  14.135  0.00  0.00    +0.000 A 
ATOM     40  C   UNL     1       7.817   5.211  12.772  0.00  0.00    +0.000 A 
ATOM     41  C   UNL     1       7.177   4.327  11.908  0.00  0.00    +0.000 A 
ATOM     42  C   UNL     1       6.220   3.440  12.395  0.00  0.00    +0.000 A 
ATOM     43  C   UNL     1       5.908   3.439  13.760  0.00  0.00    +0.000 A 
ENDBRANCH  37  38
ENDBRANCH  36  37
ENDBRANCH   1  36
TORSDOF 21
ENDMDL
MODEL 6
REMARK VINA RESULT:      -6.5      2.203      3.225
REMARK  Name = 
REMARK  21 active torsions:
REMARK  status: ('A' for Active; 'I' for Inactive)
REMARK    1  A    between atoms: N_1  and  C_2
REMARK    2  A    between atoms: C_2  and  C_3
REMARK    3  A    between atoms: C_3  and  C_4
REMARK    4  A    between atoms: C_4  and  N_5
REMARK    5  A    between atoms: N_5  and  C_6
REMARK    6  A    between atoms: C_6  and  C_7
REMARK    7  A    between atoms: C_7  and  C_8
REMARK    8  A    between atoms: C_8  and  C_9
REMARK    9  A    between atoms: C_9  and  N_10
REMARK   10  A    between atoms: C_11  and  C_13
REMARK   11  A    between atoms: C_13  and  O_14
REMARK   12  A    between atoms: C_13  and  C_22
REMARK   13  A    between atoms: O_14  and  C_15
REMARK   14  A    between atoms: C_15  and  C_16
REMARK   15  A    between atoms: N_24  and  C_25
REMARK   16  A    between atoms: C_25  and  C_26
REMARK   17  A    between atoms: C_26  and  C_27
REMARK   18  A    between atoms: C_27  and  C_28
REMARK   19  A    between atoms: C_28  and  C_29
REMARK   20  A    between atoms: C_29  and  C_30
REMARK   21  A    between atoms: C_30  and  N_31
REMARK                            x       y       z     vdW  Elec       q    Type
REMARK                         _______ _______ _______ _____ _____    ______ ____
ROOT
ATOM      1  C   UNL     1       6.529   5.367  17.860  0.00  0.00    +0.000 C 
ENDROOT
BRANCH   1   3
ATOM      2  N   UNL     1       4.205   6.213  17.802  0.00  0.00    +0.000 N 
ATOM      3  C   UNL     1       5.074   5.287  18.362  0.00  0.00    +0.000 C 
ATOM      4  O   UNL     1       4.704   4.487  19.216  0.00  0.00    +0.000 OA
ATOM      5  H   UNL     1       4.552   6.896  17.138  0.00  0.00    +0.000 HD
BRANCH   2   6
ATOM      6  C   UNL     1       2.805   6.279  18.181  0.00  0.00    +0.000 C 
BRANCH   6   7
ATOM      7  C   UNL     1       2.437   7.616  18.822  0.00  0.00    +0.000 C 
BRANCH   7   8
ATOM      8  C   UNL     1       2.151   8.693  17.772  0.00  0.00    +0.000 C 
BRANCH   8   9
ATOM      9  C   UNL     1       1.623   9.974  18.419  0.00  0.00    +0.000 C 
BRANCH   9  10
ATOM     10  N   UNL     1       0.199   9.815  18.718  0.00  0.00    +0.000 NA
ATOM     11  H   UNL     1      -0.354  10.332  18.035  0.00  0.00    +0.000 HD
BRANCH  10  12
ATOM     12  C   UNL     1      -0.105  10.311  20.060  0.00  0.00    +0.000 C 
BRANCH  12  13
ATOM     13  C   UNL     1      -0.131   9.155  21.064  0.00  0.00    +0.000 C 
BRANCH  13  14
ATOM     14  C   UNL     1       0.476   9.601  22.393  0.00  0.00    +0.000 C 
BRANCH  14  15
ATOM     15  N   UNL     1       1.885   9.234  22.476  0.00  0.00    +0.000 NA
ATOM     16  H   UNL     1       2.399   9.970  22.959  0.00  0.00    +0.000 HD
ATOM     17  H   UNL     1       2.280   9.180  21.537  0.00  0.00    +0.000 HD
ENDBRANCH  14  15
ENDBRANCH  13  14
ENDBRANCH  12  13
ENDBRANCH  10  12
ENDBRANCH   9  10
ENDBRANCH   8   9
ENDBRANCH   7   8
ENDBRANCH   6   7
ENDBRANCH   2   6
ENDBRANCH   1   3
BRANCH   1  18
ATOM     18  C   UNL     1       6.857   6.782  17.380  0.00  0.00    +0.000 C 
ATOM     19  O   UNL     1       6.237   7.302  16.450  0.00  0.00    +0.000 OA
ATOM     20  N   UNL     1       7.837   7.437  18.091  0.00  0.00    +0.000 N 
ATOM     21  H   UNL     1       8.255   6.962  18.889  0.00  0.00    +0.000 HD
BRANCH  20  22
ATOM     22  C   UNL     1       8.121   8.839  17.877  0.00  0.00    +0.000 C 
BRANCH  22  23
ATOM     23  C   UNL     1       8.997   9.436  18.984  0.00  0.00    +0.000 C 
BRANCH  23  24
ATOM     24  C   UNL     1       9.504  10.854  18.708  0.00  0.00    +0.000 C 
BRANCH  24  25
ATOM     25  C   UNL     1       8.511  11.680  17.894  0.00  0.00    +0.000 C 
BRANCH  25  26
ATOM     26  C   UNL     1       9.022  13.082  17.579  0.00  0.00    +0.000 C 
BRANCH  26  27
ATOM     27  C   UNL     1      10.547  13.060  17.464  0.00  0.00    +0.000 C 
BRANCH  27  28
ATOM     28  N   UNL     1      11.100  14.232  18.133  0.00  0.00    +0.000 NA
ATOM     29  C   UNL     1      11.330  15.264  17.413  0.00  0.00    +0.000 C 
ATOM     30  N   UNL     1      11.101  15.464  16.095  0.00  0.00    +0.000 N 
ATOM     31  N   UNL     1      11.900  16.356  17.971  0.00  0.00    +0.000 N 
ATOM     32  H   UNL     1      10.960  14.628  15.543  0.00  0.00    +0.000 HD
ATOM     33  H   UNL     1      11.701  16.136  15.635  0.00  0.00    +0.000 HD
ATOM     34  H   UNL     1      11.806  16.335  18.981  0.00  0.00    +0.000 HD
ATOM     35  H   UNL     1      11.637  17.246  17.573  0.00  0.00    +0.000 HD
ENDBRANCH  27  28
ENDBRANCH  26  27
ENDBRANCH  25  26
ENDBRANCH  24  25
ENDBRANCH  23  24
ENDBRANCH  22  23
ENDBRANCH  20  22
ENDBRANCH   1  18
BRANCH   1  36
ATOM     36  O   UNL     1       6.808   4.414  16.830  0.00  0.00    +0.000 OA
BRANCH  36  37
ATOM     37  C   UNL     1       5.734   4.281  15.895  0.00  0.00    +0.000 C 
BRANCH  37  38
ATOM     38  C   UNL     1       6.217   4.240  14.461  0.00  0.00    +0.000 A 
ATOM     39  C   UNL     1       5.631   3.417  13.494  0.00  0.00    +0.000 A 
ATOM     40  C   UNL     1       6.113   3.407  12.181  0.00  0.00    +0.000 A 
ATOM     41  C   UNL     1       7.183   4.224  11.826  0.00  0.00    +0.000 A 
ATOM     42  C   UNL     1       7.779   5.048  12.777  0.00  0.00    +0.000 A 
ATOM     43  C   UNL     1       7.294   5.055  14.090  0.00  0.00    +0.000 A 
ENDBRANCH  37  38
ENDBRANCH  36  37
ENDBRANCH   1  36
TORSDOF 21
ENDMDL
MODEL 7
REMARK VINA RESULT:      -6.5      1.479      2.176
REMARK  Name = 
REMARK  21 active torsions:
REMARK  status: ('A' for Active; 'I' for Inactive)
REMARK    1  A    between atoms: N_1  and  C_2
REMARK    2  A    between atoms: C_2  and  C_3
REMARK    3  A    between atoms: C_3  and  C_4
REMARK    4  A    between atoms: C_4  and  N_5
REMARK    5  A    between atoms: N_5  and  C_6
REMARK    6  A    between atoms: C_6  and  C_7
REMARK    7  A    between atoms: C_7  and  C_8
REMARK    8  A    between atoms: C_8  and  C_9
REMARK    9  A    between atoms: C_9  and  N_10
REMARK   10  A    between atoms: C_11  and  C_13
REMARK   11  A    between atoms: C_13  and  O_14
REMARK   12  A    between atoms: C_13  and  C_22
REMARK   13  A    between atoms: O_14  and  C_15
REMARK   14  A    between atoms: C_15  and  C_16
REMARK   15  A    between atoms: N_24  and  C_25
REMARK   16  A    between atoms: C_25  and  C_26
REMARK   17  A    between atoms: C_26  and  C_27
REMARK   18  A    between atoms: C_27  and  C_28
REMARK   19  A    between atoms: C_28  and  C_29
REMARK   20  A    between atoms: C_29  and  C_30
REMARK   21  A    between atoms: C_30  and  N_31
REMARK                            x       y       z     vdW  Elec       q    Type
REMARK                         _______ _______ _______ _____ _____    ______ ____
ROOT
ATOM      1  C   UNL     1       6.289   5.492  17.607  0.00  0.00    +0.000 C 
ENDROOT
BRANCH   1   3
ATOM      2  N   UNL     1       3.845   5.838  17.440  0.00  0.00    +0.000 N 
ATOM      3  C   UNL     1       4.920   5.657  18.298  0.00  0.00    +0.000 C 
ATOM      4  O   UNL     1       4.782   5.659  19.517  0.00  0.00    +0.000 OA
ATOM      5  H   UNL     1       3.997   5.885  16.439  0.00  0.00    +0.000 HD
BRANCH   2   6
ATOM      6  C   UNL     1       2.492   6.025  17.933  0.00  0.00    +0.000 C 
BRANCH   6   7
ATOM      7  C   UNL     1       1.764   4.701  18.154  0.00  0.00    +0.000 C 
BRANCH   7   8
ATOM      8  C   UNL     1       1.449   4.462  19.633  0.00  0.00    +0.000 C 
BRANCH   8   9
ATOM      9  C   UNL     1       0.780   3.104  19.847  0.00  0.00    +0.000 C 
BRANCH   9  10
ATOM     10  N   UNL     1       1.799   2.108  20.186  0.00  0.00    +0.000 NA
ATOM     11  H   UNL     1       1.379   1.368  20.750  0.00  0.00    +0.000 HD
BRANCH  10  12
ATOM     12  C   UNL     1       2.893   2.725  20.935  0.00  0.00    +0.000 C 
BRANCH  12  13
ATOM     13  C   UNL     1       4.241   2.175  20.462  0.00  0.00    +0.000 C 
BRANCH  13  14
ATOM     14  C   UNL     1       4.300   2.171  18.936  0.00  0.00    +0.000 C 
BRANCH  14  15
ATOM     15  N   UNL     1       3.937   0.864  18.400  0.00  0.00    +0.000 NA
ATOM     16  H   UNL     1       3.337   0.987  17.585  0.00  0.00    +0.000 HD
ATOM     17  H   UNL     1       3.383   0.354  19.088  0.00  0.00    +0.000 HD
ENDBRANCH  14  15
ENDBRANCH  13  14
ENDBRANCH  12  13
ENDBRANCH  10  12
ENDBRANCH   9  10
ENDBRANCH   8   9
ENDBRANCH   7   8
ENDBRANCH   6   7
ENDBRANCH   2   6
ENDBRANCH   1   3
BRANCH   1  18
ATOM     18  C   UNL     1       7.393   6.154  18.433  0.00  0.00    +0.000 C 
ATOM     19  O   UNL     1       8.044   5.512  19.261  0.00  0.00    +0.000 OA
ATOM     20  N   UNL     1       7.638   7.477  18.144  0.00  0.00    +0.000 N 
ATOM     21  H   UNL     1       7.102   7.917  17.398  0.00  0.00    +0.000 HD
BRANCH  20  22
ATOM     22  C   UNL     1       8.772   8.178  18.704  0.00  0.00    +0.000 C 
BRANCH  22  23
ATOM     23  C   UNL     1       8.698   9.692  18.474  0.00  0.00    +0.000 C 
BRANCH  23  24
ATOM     24  C   UNL     1       9.274  10.544  19.608  0.00  0.00    +0.000 C 
BRANCH  24  25
ATOM     25  C   UNL     1      10.481  11.367  19.162  0.00  0.00    +0.000 C 
BRANCH  25  26
ATOM     26  C   UNL     1      10.574  11.513  17.646  0.00  0.00    +0.000 C 
BRANCH  26  27
ATOM     27  C   UNL     1      10.916  12.960  17.288  0.00  0.00    +0.000 C 
BRANCH  27  28
ATOM     28  N   UNL     1      10.753  13.802  18.467  0.00  0.00    +0.000 NA
ATOM     29  C   UNL     1      10.269  14.972  18.288  0.00  0.00    +0.000 C 
ATOM     30  N   UNL     1       9.835  15.562  17.151  0.00  0.00    +0.000 N 
ATOM     31  N   UNL     1      10.154  15.817  19.339  0.00  0.00    +0.000 N 
ATOM     32  H   UNL     1      10.149  15.135  16.289  0.00  0.00    +0.000 HD
ATOM     33  H   UNL     1       9.885  16.572  17.125  0.00  0.00    +0.000 HD
ATOM     34  H   UNL     1      10.192  15.308  20.216  0.00  0.00    +0.000 HD
ATOM     35  H   UNL     1       9.386  16.471  19.301  0.00  0.00    +0.000 HD
ENDBRANCH  27  28
ENDBRANCH  26  27
ENDBRANCH  25  26
ENDBRANCH  24  25
ENDBRANCH  23  24
ENDBRANCH  22  23
ENDBRANCH  20  22
ENDBRANCH   1  18
BRANCH   1  36
ATOM     36  O   UNL     1       6.294   6.000  16.269  0.00  0.00    +0.000 OA
BRANCH  36  37
ATOM     37  C   UNL     1       7.359   5.464  15.479  0.00  0.00    +0.000 C 
BRANCH  37  38
ATOM     38  C   UNL     1       6.861   4.768  14.230  0.00  0.00    +0.000 A 
ATOM     39  C   UNL     1       7.589   4.754  13.037  0.00  0.00    +0.000 A 
ATOM     40  C   UNL     1       7.088   4.103  11.905  0.00  0.00    +0.000 A 
ATOM     41  C   UNL     1       5.855   3.458  11.962  0.00  0.00    +0.000 A 
ATOM     42  C   UNL     1       5.116   3.464  13.142  0.00  0.00    +0.000 A 
ATOM     43  C   UNL     1       5.621   4.118  14.273  0.00  0.00    +0.000 A 
ENDBRANCH  37  38
ENDBRANCH  36  37
ENDBRANCH   1  36
TORSDOF 21
ENDMDL
MODEL 8
REMARK VINA RESULT:      -6.5      3.501      6.181
REMARK  Name = 
REMARK  21 active torsions:
REMARK  status: ('A' for Active; 'I' for Inactive)
REMARK    1  A    between atoms: N_1  and  C_2
REMARK    2  A    between atoms: C_2  and  C_3
REMARK    3  A    between atoms: C_3  and  C_4
REMARK    4  A    between atoms: C_4  and  N_5
REMARK    5  A    between atoms: N_5  and  C_6
REMARK    6  A    between atoms: C_6  and  C_7
REMARK    7  A    between atoms: C_7  and  C_8
REMARK    8  A    between atoms: C_8  and  C_9
REMARK    9  A    between atoms: C_9  and  N_10
REMARK   10  A    between atoms: C_11  and  C_13
REMARK   11  A    between atoms: C_13  and  O_14
REMARK   12  A    between atoms: C_13  and  C_22
REMARK   13  A    between atoms: O_14  and  C_15
REMARK   14  A    between atoms: C_15  and  C_16
REMARK   15  A    between atoms: N_24  and  C_25
REMARK   16  A    between atoms: C_25  and  C_26
REMARK   17  A    between atoms: C_26  and  C_27
REMARK   18  A    between atoms: C_27  and  C_28
REMARK   19  A    between atoms: C_28  and  C_29
REMARK   20  A    between atoms: C_29  and  C_30
REMARK   21  A    between atoms: C_30  and  N_31
REMARK                            x       y       z     vdW  Elec       q    Type
REMARK                         _______ _______ _______ _____ _____    ______ ____
ROOT
ATOM      1  C   UNL     1       3.645   5.945  18.197  0.00  0.00    +0.000 C 
ENDROOT
BRANCH   1   3
ATOM      2  N   UNL     1       2.381   8.065  18.369  0.00  0.00    +0.000 N 
ATOM      3  C   UNL     1       3.313   7.343  17.638  0.00  0.00    +0.000 C 
ATOM      4  O   UNL     1       3.809   7.785  16.607  0.00  0.00    +0.000 OA
ATOM      5  H   UNL     1       1.949   7.652  19.188  0.00  0.00    +0.000 HD
BRANCH   2   6
ATOM      6  C   UNL     1       1.949   9.391  17.966  0.00  0.00    +0.000 C 
BRANCH   6   7
ATOM      7  C   UNL     1       0.435   9.566  18.065  0.00  0.00    +0.000 C 
BRANCH   7   8
ATOM      8  C   UNL     1       0.003  10.034  19.457  0.00  0.00    +0.000 C 
BRANCH   8   9
ATOM      9  C   UNL     1      -0.829  11.314  19.381  0.00  0.00    +0.000 C 
BRANCH   9  10
ATOM     10  N   UNL     1      -0.523  12.019  18.134  0.00  0.00    +0.000 NA
ATOM     11  H   UNL     1       0.297  11.599  17.697  0.00  0.00    +0.000 HD
BRANCH  10  12
ATOM     12  C   UNL     1      -0.263  13.435  18.393  0.00  0.00    +0.000 C 
BRANCH  12  13
ATOM     13  C   UNL     1       1.012  13.600  19.225  0.00  0.00    +0.000 C 
BRANCH  13  14
ATOM     14  C   UNL     1       2.197  13.910  18.312  0.00  0.00    +0.000 C 
BRANCH  14  15
ATOM     15  N   UNL     1       2.441  12.815  17.380  0.00  0.00    +0.000 NA
ATOM     16  H   UNL     1       2.427  13.174  16.426  0.00  0.00    +0.000 HD
ATOM     17  H   UNL     1       1.681  12.138  17.441  0.00  0.00    +0.000 HD
ENDBRANCH  14  15
ENDBRANCH  13  14
ENDBRANCH  12  13
ENDBRANCH  10  12
ENDBRANCH   9  10
ENDBRANCH   8   9
ENDBRANCH   7   8
ENDBRANCH   6   7
ENDBRANCH   2   6
ENDBRANCH   1   3
BRANCH   1  18
ATOM     18  C   UNL     1       5.136   5.833  18.520  0.00  0.00    +0.000 C 
ATOM     19  O   UNL     1       5.525   5.377  19.597  0.00  0.00    +0.000 OA
ATOM     20  N   UNL     1       5.990   6.216  17.512  0.00  0.00    +0.000 N 
ATOM     21  H   UNL     1       5.589   6.518  16.625  0.00  0.00    +0.000 HD
BRANCH  20  22
ATOM     22  C   UNL     1       7.416   5.988  17.599  0.00  0.00    +0.000 C 
BRANCH  22  23
ATOM     23  C   UNL     1       8.123   7.024  18.480  0.00  0.00    +0.000 C 
BRANCH  23  24
ATOM     24  C   UNL     1       8.132   8.448  17.918  0.00  0.00    +0.000 C 
BRANCH  24  25
ATOM     25  C   UNL     1       8.784   9.447  18.872  0.00  0.00    +0.000 C 
BRANCH  25  26
ATOM     26  C   UNL     1       9.143  10.766  18.196  0.00  0.00    +0.000 C 
BRANCH  26  27
ATOM     27  C   UNL     1      10.253  11.463  18.984  0.00  0.00    +0.000 C 
BRANCH  27  28
ATOM     28  N   UNL     1      10.033  11.262  20.411  0.00  0.00    +0.000 NA
ATOM     29  C   UNL     1       9.473  12.214  21.057  0.00  0.00    +0.000 C 
ATOM     30  N   UNL     1       9.004  13.401  20.610  0.00  0.00    +0.000 N 
ATOM     31  N   UNL     1       9.302  12.105  22.395  0.00  0.00    +0.000 N 
ATOM     32  H   UNL     1       9.347  13.695  19.705  0.00  0.00    +0.000 HD
ATOM     33  H   UNL     1       8.988  14.156  21.282  0.00  0.00    +0.000 HD
ATOM     34  H   UNL     1       9.371  11.136  22.688  0.00  0.00    +0.000 HD
ATOM     35  H   UNL     1       8.492  12.571  22.778  0.00  0.00    +0.000 HD
ENDBRANCH  27  28
ENDBRANCH  26  27
ENDBRANCH  25  26
ENDBRANCH  24  25
ENDBRANCH  23  24
ENDBRANCH  22  23
ENDBRANCH  20  22
ENDBRANCH   1  18
BRANCH   1  36
ATOM     36  O   UNL     1       3.243   4.892  17.317  0.00  0.00    +0.000 OA
BRANCH  36  37
ATOM     37  C   UNL     1       3.503   3.592  17.856  0.00  0.00    +0.000 C 
BRANCH  37  38
ATOM     38  C   UNL     1       2.701   3.314  19.109  0.00  0.00    +0.000 A 
ATOM     39  C   UNL     1       1.311   3.460  19.159  0.00  0.00    +0.000 A 
ATOM     40  C   UNL     1       0.609   3.198  20.340  0.00  0.00    +0.000 A 
ATOM     41  C   UNL     1       1.295   2.784  21.479  0.00  0.00    +0.000 A 
ATOM     42  C   UNL     1       2.679   2.635  21.448  0.00  0.00    +0.000 A 
ATOM     43  C   UNL     1       3.377   2.899  20.263  0.00  0.00    +0.000 A 
ENDBRANCH  37  38
ENDBRANCH  36  37
ENDBRANCH   1  36
TORSDOF 21
ENDMDL
MODEL 9
REMARK VINA RESULT:      -6.5      5.118      9.106
REMARK  Name = 
REMARK  21 active torsions:
REMARK  status: ('A' for Active; 'I' for Inactive)
REMARK    1  A    between atoms: N_1  and  C_2
REMARK    2  A    between atoms: C_2  and  C_3
REMARK    3  A    between atoms: C_3  and  C_4
REMARK    4  A    between atoms: C_4  and  N_5
REMARK    5  A    between atoms: N_5  and  C_6
REMARK    6  A    between atoms: C_6  and  C_7
REMARK    7  A    between atoms: C_7  and  C_8
REMARK    8  A    between atoms: C_8  and  C_9
REMARK    9  A    between atoms: C_9  and  N_10
REMARK   10  A    between atoms: C_11  and  C_13
REMARK   11  A    between atoms: C_13  and  O_14
REMARK   12  A    between atoms: C_13  and  C_22
REMARK   13  A    between atoms: O_14  and  C_15
REMARK   14  A    between atoms: C_15  and  C_16
REMARK   15  A    between atoms: N_24  and  C_25
REMARK   16  A    between atoms: C_25  and  C_26
REMARK   17  A    between atoms: C_26  and  C_27
REMARK   18  A    between atoms: C_27  and  C_28
REMARK   19  A    between atoms: C_28  and  C_29
REMARK   20  A    between atoms: C_29  and  C_30
REMARK   21  A    between atoms: C_30  and  N_31
REMARK                            x       y       z     vdW  Elec       q    Type
REMARK                         _______ _______ _______ _____ _____    ______ ____
ROOT
ATOM      1  C   UNL     1       1.835   7.340  19.209  0.00  0.00    +0.000 C 
ENDROOT
BRANCH   1   3
ATOM      2  N   UNL     1       3.743   7.018  17.668  0.00  0.00    +0.000 N 
ATOM      3  C   UNL     1       2.664   7.824  18.003  0.00  0.00    +0.000 C 
ATOM      4  O   UNL     1       2.416   8.859  17.393  0.00  0.00    +0.000 OA
ATOM      5  H   UNL     1       3.953   6.197  18.224  0.00  0.00    +0.000 HD
BRANCH   2   6
ATOM      6  C   UNL     1       4.632   7.344  16.568  0.00  0.00    +0.000 C 
BRANCH   6   7
ATOM      7  C   UNL     1       5.219   6.099  15.904  0.00  0.00    +0.000 C 
BRANCH   7   8
ATOM      8  C   UNL     1       4.790   4.815  16.618  0.00  0.00    +0.000 C 
BRANCH   8   9
ATOM      9  C   UNL     1       5.852   4.353  17.617  0.00  0.00    +0.000 C 
BRANCH   9  10
ATOM     10  N   UNL     1       5.636   5.023  18.901  0.00  0.00    +0.000 NA
ATOM     11  H   UNL     1       5.020   5.826  18.768  0.00  0.00    +0.000 HD
BRANCH  10  12
ATOM     12  C   UNL     1       6.906   5.476  19.466  0.00  0.00    +0.000 C 
BRANCH  12  13
ATOM     13  C   UNL     1       7.857   5.927  18.354  0.00  0.00    +0.000 C 
BRANCH  13  14
ATOM     14  C   UNL     1       8.167   7.415  18.500  0.00  0.00    +0.000 C 
BRANCH  14  15
ATOM     15  N   UNL     1       7.829   8.143  17.282  0.00  0.00    +0.000 NA
ATOM     16  H   UNL     1       7.234   8.936  17.517  0.00  0.00    +0.000 HD
ATOM     17  H   UNL     1       7.277   7.544  16.668  0.00  0.00    +0.000 HD
ENDBRANCH  14  15
ENDBRANCH  13  14
ENDBRANCH  12  13
ENDBRANCH  10  12
ENDBRANCH   9  10
ENDBRANCH   8   9
ENDBRANCH   7   8
ENDBRANCH   6   7
ENDBRANCH   2   6
ENDBRANCH   1   3
BRANCH   1  18
ATOM     18  C   UNL     1       1.369   8.527  20.055  0.00  0.00    +0.000 C 
ATOM     19  O   UNL     1       1.721   8.653  21.230  0.00  0.00    +0.000 OA
ATOM     20  N   UNL     1       0.592   9.454  19.398  0.00  0.00    +0.000 N 
ATOM     21  H   UNL     1       0.401   9.312  18.408  0.00  0.00    +0.000 HD
BRANCH  20  22
ATOM     22  C   UNL     1       0.238  10.716  20.010  0.00  0.00    +0.000 C 
BRANCH  22  23
ATOM     23  C   UNL     1      -1.024  11.332  19.396  0.00  0.00    +0.000 C 
BRANCH  23  24
ATOM     24  C   UNL     1      -1.306  10.914  17.950  0.00  0.00    +0.000 C 
BRANCH  24  25
ATOM     25  C   UNL     1      -2.444   9.900  17.849  0.00  0.00    +0.000 C 
BRANCH  25  26
ATOM     26  C   UNL     1      -3.500  10.294  16.820  0.00  0.00    +0.000 C 
BRANCH  26  27
ATOM     27  C   UNL     1      -4.313  11.479  17.345  0.00  0.00    +0.000 C 
BRANCH  27  28
ATOM     28  N   UNL     1      -5.313  10.998  18.291  0.00  0.00    +0.000 NA
ATOM     29  C   UNL     1      -6.506  11.440  18.156  0.00  0.00    +0.000 C 
ATOM     30  N   UNL     1      -7.016  12.280  17.226  0.00  0.00    +0.000 N 
ATOM     31  N   UNL     1      -7.460  11.076  19.044  0.00  0.00    +0.000 N 
ATOM     32  H   UNL     1      -6.337  12.829  16.713  0.00  0.00    +0.000 HD
ATOM     33  H   UNL     1      -7.820  12.823  17.508  0.00  0.00    +0.000 HD
ATOM     34  H   UNL     1      -7.179  10.242  19.551  0.00  0.00    +0.000 HD
ATOM     35  H   UNL     1      -8.401  11.014  18.684  0.00  0.00    +0.000 HD
ENDBRANCH  27  28
ENDBRANCH  26  27
ENDBRANCH  25  26
ENDBRANCH  24  25
ENDBRANCH  23  24
ENDBRANCH  22  23
ENDBRANCH  20  22
ENDBRANCH   1  18
BRANCH   1  36
ATOM     36  O   UNL     1       2.542   6.397  20.019  0.00  0.00    +0.000 OA
BRANCH  36  37
ATOM     37  C   UNL     1       1.761   5.237  20.326  0.00  0.00    +0.000 C 
BRANCH  37  38
ATOM     38  C   UNL     1       2.240   4.006  19.587  0.00  0.00    +0.000 A 
ATOM     39  C   UNL     1       1.815   3.694  18.291  0.00  0.00    +0.000 A 
ATOM     40  C   UNL     1       2.278   2.543  17.647  0.00  0.00    +0.000 A 
ATOM     41  C   UNL     1       3.175   1.696  18.295  0.00  0.00    +0.000 A 
ATOM     42  C   UNL     1       3.607   1.990  19.586  0.00  0.00    +0.000 A 
ATOM     43  C   UNL     1       3.140   3.145  20.227  0.00  0.00    +0.000 A 
ENDBRANCH  37  38
ENDBRANCH  36  37
ENDBRANCH   1  36
TORSDOF 21
ENDMDL
