MODEL 1
REMARK VINA RESULT:      -7.2      0.000      0.000
REMARK  Name = 
REMARK  19 active torsions:
REMARK  status: ('A' for Active; 'I' for Inactive)
REMARK    1  A    between atoms: C_1  and  C_2
REMARK    2  A    between atoms: C_2  and  C_3
REMARK    3  A    between atoms: C_2  and  C_4
REMARK    4  A    between atoms: C_2  and  O_5
REMARK    5  A    between atoms: O_5  and  C_6
REMARK    6  A    between atoms: N_8  and  C_9
REMARK    7  A    between atoms: C_9  and  C_10
REMARK    8  A    between atoms: C_9  and  C_17
REMARK    9  A    between atoms: C_10  and  C_11
REMARK   10  A    between atoms: C_17  and  O_18
REMARK   11  A    between atoms: C_17  and  C_19
REMARK   12  A    between atoms: C_19  and  C_20
REMARK   13  A    between atoms: C_19  and  N_27
REMARK   14  A    between atoms: C_20  and  C_21
REMARK   15  A    between atoms: C_28  and  O_30
REMARK   16  A    between atoms: O_30  and  C_31
REMARK   17  A    between atoms: C_31  and  C_32
REMARK   18  A    between atoms: C_31  and  C_33
REMARK   19  A    between atoms: C_31  and  C_34
REMARK                            x       y       z     vdW  Elec       q    Type
REMARK                         _______ _______ _______ _____ _____    ______ ____
ROOT
ATOM      1  C   UNL     1       1.450   8.808  18.073  0.00  0.00    +0.000 C 
ENDROOT
BRANCH   1   2
ATOM      2  O   UNL     1       2.302   9.626  17.237  0.00  0.00    +0.000 OA
ATOM      3  H   UNL     1       3.102   9.116  16.997  0.00  0.00    +0.000 HD
ENDBRANCH   1   2
BRANCH   1   4
ATOM      4  C   UNL     1       2.258   7.508  18.404  0.00  0.00    +0.000 C 
BRANCH   4   7
ATOM      5  C   UNL     1       4.304   6.561  17.361  0.00  0.00    +0.000 C 
ATOM      6  O   UNL     1       3.811   5.467  17.134  0.00  0.00    +0.000 OA
ATOM      7  N   UNL     1       3.677   7.549  18.058  0.00  0.00    +0.000 N 
ATOM      8  H   UNL     1       4.279   8.317  18.316  0.00  0.00    +0.000 HD
BRANCH   5   9
ATOM      9  O   UNL     1       5.501   7.014  16.918  0.00  0.00    +0.000 OA
BRANCH   9  11
ATOM     10  C   UNL     1       7.283   5.394  16.310  0.00  0.00    +0.000 C 
ATOM     11  C   UNL     1       6.728   6.367  17.362  0.00  0.00    +0.000 C 
ATOM     12  C   UNL     1       6.502   5.693  18.718  0.00  0.00    +0.000 C 
ATOM     13  C   UNL     1       7.771   7.486  17.542  0.00  0.00    +0.000 C 
ENDBRANCH   9  11
ENDBRANCH   5   9
ENDBRANCH   4   7
BRANCH   4  14
ATOM     14  C   UNL     1       2.032   7.019  19.863  0.00  0.00    +0.000 C 
BRANCH  14  15
ATOM     15  C   UNL     1       1.869   5.525  20.039  0.00  0.00    +0.000 A 
ATOM     16  C   UNL     1       2.205   4.907  21.254  0.00  0.00    +0.000 A 
ATOM     17  C   UNL     1       2.064   3.527  21.413  0.00  0.00    +0.000 A 
ATOM     18  C   UNL     1       1.573   2.751  20.367  0.00  0.00    +0.000 A 
ATOM     19  C   UNL     1       1.213   3.356  19.163  0.00  0.00    +0.000 A 
ATOM     20  C   UNL     1       1.360   4.735  19.000  0.00  0.00    +0.000 A 
ENDBRANCH  14  15
ENDBRANCH   4  14
ENDBRANCH   1   4
BRANCH   1  21
ATOM     21  C   UNL     1       0.942   9.640  19.299  0.00  0.00    +0.000 C 
BRANCH  21  22
ATOM     22  N   UNL     1       1.294  11.065  19.167  0.00  0.00    +0.000 N 
ATOM     23  C   UNL     1       1.420  11.930  20.203  0.00  0.00    +0.000 C 
ATOM     24  O   UNL     1       1.316  11.597  21.377  0.00  0.00    +0.000 OA
ATOM     25  H   UNL     1       1.511  11.448  18.256  0.00  0.00    +0.000 HD
BRANCH  23  26
ATOM     26  O   UNL     1       1.661  13.169  19.719  0.00  0.00    +0.000 OA
BRANCH  26  27
ATOM     27  C   UNL     1       0.585  14.136  19.614  0.00  0.00    +0.000 C 
ATOM     28  C   UNL     1      -0.179  13.954  18.299  0.00  0.00    +0.000 C 
ATOM     29  C   UNL     1      -0.368  13.824  20.780  0.00  0.00    +0.000 C 
ATOM     30  C   UNL     1       1.103  15.568  19.796  0.00  0.00    +0.000 C 
ENDBRANCH  26  27
ENDBRANCH  23  26
ENDBRANCH  21  22
BRANCH  21  31
ATOM     31  C   UNL     1      -0.562   9.569  19.650  0.00  0.00    +0.000 C 
BRANCH  31  32
ATOM     32  C   UNL     1      -1.511  10.209  18.650  0.00  0.00    +0.000 A 
ATOM     33  C   UNL     1      -2.404  11.238  18.984  0.00  0.00    +0.000 A 
ATOM     34  C   UNL     1      -3.300  11.755  18.046  0.00  0.00    +0.000 A 
ATOM     35  C   UNL     1      -3.306  11.261  16.750  0.00  0.00    +0.000 A 
ATOM     36  C   UNL     1      -2.405  10.263  16.388  0.00  0.00    +0.000 A 
ATOM     37  C   UNL     1      -1.513   9.742  17.328  0.00  0.00    +0.000 A 
ENDBRANCH  31  32
ENDBRANCH  21  31
ENDBRANCH   1  21
TORSDOF 13
ENDMDL
MODEL 2
REMARK VINA RESULT:      -7.2      4.090      6.346
REMARK  Name = 
REMARK  19 active torsions:
REMARK  status: ('A' for Active; 'I' for Inactive)
REMARK    1  A    between atoms: C_1  and  C_2
REMARK    2  A    between atoms: C_2  and  C_3
REMARK    3  A    between atoms: C_2  and  C_4
REMARK    4  A    between atoms: C_2  and  O_5
REMARK    5  A    between atoms: O_5  and  C_6
REMARK    6  A    between atoms: N_8  and  C_9
REMARK    7  A    between atoms: C_9  and  C_10
REMARK    8  A    between atoms: C_9  and  C_17
REMARK    9  A    between atoms: C_10  and  C_11
REMARK   10  A    between atoms: C_17  and  O_18
REMARK   11  A    between atoms: C_17  and  C_19
REMARK   12  A    between atoms: C_19  and  C_20
REMARK   13  A    between atoms: C_19  and  N_27
REMARK   14  A    between atoms: C_20  and  C_21
REMARK   15  A    between atoms: C_28  and  O_30
REMARK   16  A    between atoms: O_30  and  C_31
REMARK   17  A    between atoms: C_31  and  C_32
REMARK   18  A    between atoms: C_31  and  C_33
REMARK   19  A    between atoms: C_31  and  C_34
REMARK                            x       y       z     vdW  Elec       q    Type
REMARK                         _______ _______ _______ _____ _____    ______ ____
ROOT
ATOM      1  C   UNL     1       6.421   5.237  17.509  0.00  0.00    +0.000 C 
ENDROOT
BRANCH   1   2
ATOM      2  O   UNL     1       6.879   4.682  18.765  0.00  0.00    +0.000 OA
ATOM      3  H   UNL     1       6.368   5.080  19.498  0.00  0.00    +0.000 HD
ENDBRANCH   1   2
BRANCH   1   4
ATOM      4  C   UNL     1       5.439   4.189  16.887  0.00  0.00    +0.000 C 
BRANCH   4   7
ATOM      5  C   UNL     1       6.381   4.362  14.595  0.00  0.00    +0.000 C 
ATOM      6  O   UNL     1       6.360   5.581  14.562  0.00  0.00    +0.000 OA
ATOM      7  N   UNL     1       5.861   3.617  15.609  0.00  0.00    +0.000 N 
ATOM      8  H   UNL     1       5.792   2.632  15.405  0.00  0.00    +0.000 HD
BRANCH   5   9
ATOM      9  O   UNL     1       6.968   3.541  13.691  0.00  0.00    +0.000 OA
BRANCH   9  11
ATOM     10  C   UNL     1       6.777   2.227  11.592  0.00  0.00    +0.000 C 
ATOM     11  C   UNL     1       6.535   3.569  12.301  0.00  0.00    +0.000 C 
ATOM     12  C   UNL     1       7.197   4.741  11.571  0.00  0.00    +0.000 C 
ATOM     13  C   UNL     1       5.013   3.805  12.321  0.00  0.00    +0.000 C 
ENDBRANCH   9  11
ENDBRANCH   5   9
ENDBRANCH   4   7
BRANCH   4  14
ATOM     14  C   UNL     1       5.017   3.088  17.902  0.00  0.00    +0.000 C 
BRANCH  14  15
ATOM     15  C   UNL     1       3.608   3.194  18.441  0.00  0.00    +0.000 A 
ATOM     16  C   UNL     1       2.574   3.715  17.647  0.00  0.00    +0.000 A 
ATOM     17  C   UNL     1       1.276   3.822  18.149  0.00  0.00    +0.000 A 
ATOM     18  C   UNL     1       0.992   3.396  19.444  0.00  0.00    +0.000 A 
ATOM     19  C   UNL     1       2.004   2.853  20.235  0.00  0.00    +0.000 A 
ATOM     20  C   UNL     1       3.305   2.753  19.736  0.00  0.00    +0.000 A 
ENDBRANCH  14  15
ENDBRANCH   4  14
ENDBRANCH   1   4
BRANCH   1  21
ATOM     21  C   UNL     1       5.846   6.676  17.736  0.00  0.00    +0.000 C 
BRANCH  21  22
ATOM     22  N   UNL     1       6.810   7.714  17.325  0.00  0.00    +0.000 N 
ATOM     23  C   UNL     1       8.008   7.934  17.919  0.00  0.00    +0.000 C 
ATOM     24  O   UNL     1       8.448   7.245  18.830  0.00  0.00    +0.000 OA
ATOM     25  H   UNL     1       6.617   8.288  16.515  0.00  0.00    +0.000 HD
BRANCH  23  26
ATOM     26  O   UNL     1       8.592   9.013  17.349  0.00  0.00    +0.000 OA
BRANCH  26  27
ATOM     27  C   UNL     1       8.847  10.208  18.132  0.00  0.00    +0.000 C 
ATOM     28  C   UNL     1       8.932   9.867  19.623  0.00  0.00    +0.000 C 
ATOM     29  C   UNL     1      10.220  10.723  17.669  0.00  0.00    +0.000 C 
ATOM     30  C   UNL     1       7.808  11.297  17.840  0.00  0.00    +0.000 C 
ENDBRANCH  26  27
ENDBRANCH  23  26
ENDBRANCH  21  22
BRANCH  21  31
ATOM     31  C   UNL     1       4.489   7.026  17.082  0.00  0.00    +0.000 C 
BRANCH  31  32
ATOM     32  C   UNL     1       3.379   7.441  18.034  0.00  0.00    +0.000 A 
ATOM     33  C   UNL     1       2.579   8.576  17.836  0.00  0.00    +0.000 A 
ATOM     34  C   UNL     1       1.609   8.953  18.768  0.00  0.00    +0.000 A 
ATOM     35  C   UNL     1       1.414   8.190  19.910  0.00  0.00    +0.000 A 
ATOM     36  C   UNL     1       2.175   7.041  20.110  0.00  0.00    +0.000 A 
ATOM     37  C   UNL     1       3.147   6.667  19.180  0.00  0.00    +0.000 A 
ENDBRANCH  31  32
ENDBRANCH  21  31
ENDBRANCH   1  21
TORSDOF 13
ENDMDL
MODEL 3
REMARK VINA RESULT:      -7.1      4.024      6.302
REMARK  Name = 
REMARK  19 active torsions:
REMARK  status: ('A' for Active; 'I' for Inactive)
REMARK    1  A    between atoms: C_1  and  C_2
REMARK    2  A    between atoms: C_2  and  C_3
REMARK    3  A    between atoms: C_2  and  C_4
REMARK    4  A    between atoms: C_2  and  O_5
REMARK    5  A    between atoms: O_5  and  C_6
REMARK    6  A    between atoms: N_8  and  C_9
REMARK    7  A    between atoms: C_9  and  C_10
REMARK    8  A    between atoms: C_9  and  C_17
REMARK    9  A    between atoms: C_10  and  C_11
REMARK   10  A    between atoms: C_17  and  O_18
REMARK   11  A    between atoms: C_17  and  C_19
REMARK   12  A    between atoms: C_19  and  C_20
REMARK   13  A    between atoms: C_19  and  N_27
REMARK   14  A    between atoms: C_20  and  C_21
REMARK   15  A    between atoms: C_28  and  O_30
REMARK   16  A    between atoms: O_30  and  C_31
REMARK   17  A    between atoms: C_31  and  C_32
REMARK   18  A    between atoms: C_31  and  C_33
REMARK   19  A    between atoms: C_31  and  C_34
REMARK                            x       y       z     vdW  Elec       q    Type
REMARK                         _______ _______ _______ _____ _____    ______ ____
ROOT
ATOM      1  C   UNL     1       6.338   5.369  17.255  0.00  0.00    +0.000 C 
ENDROOT
BRANCH   1   2
ATOM      2  O   UNL     1       6.909   4.801  18.457  0.00  0.00    +0.000 OA
ATOM      3  H   UNL     1       6.319   4.094  18.791  0.00  0.00    +0.000 HD
ENDBRANCH   1   2
BRANCH   1   4
ATOM      4  C   UNL     1       5.288   4.335  16.725  0.00  0.00    +0.000 C 
BRANCH   4   7
ATOM      5  C   UNL     1       6.563   4.223  14.596  0.00  0.00    +0.000 C 
ATOM      6  O   UNL     1       7.126   5.294  14.752  0.00  0.00    +0.000 OA
ATOM      7  N   UNL     1       5.594   3.743  15.424  0.00  0.00    +0.000 N 
ATOM      8  H   UNL     1       5.103   2.940  15.062  0.00  0.00    +0.000 HD
BRANCH   5   9
ATOM      9  O   UNL     1       6.833   3.302  13.640  0.00  0.00    +0.000 OA
BRANCH   9  11
ATOM     10  C   UNL     1       7.219   4.830  11.721  0.00  0.00    +0.000 C 
ATOM     11  C   UNL     1       6.496   3.582  12.251  0.00  0.00    +0.000 C 
ATOM     12  C   UNL     1       4.977   3.675  12.089  0.00  0.00    +0.000 C 
ATOM     13  C   UNL     1       7.001   2.380  11.429  0.00  0.00    +0.000 C 
ENDBRANCH   9  11
ENDBRANCH   5   9
ENDBRANCH   4   7
BRANCH   4  14
ATOM     14  C   UNL     1       4.928   3.252  17.782  0.00  0.00    +0.000 C 
BRANCH  14  15
ATOM     15  C   UNL     1       3.577   3.404  18.447  0.00  0.00    +0.000 A 
ATOM     16  C   UNL     1       2.419   3.600  17.678  0.00  0.00    +0.000 A 
ATOM     17  C   UNL     1       1.174   3.749  18.292  0.00  0.00    +0.000 A 
ATOM     18  C   UNL     1       1.069   3.690  19.679  0.00  0.00    +0.000 A 
ATOM     19  C   UNL     1       2.208   3.470  20.453  0.00  0.00    +0.000 A 
ATOM     20  C   UNL     1       3.455   3.328  19.840  0.00  0.00    +0.000 A 
ENDBRANCH  14  15
ENDBRANCH   4  14
ENDBRANCH   1   4
BRANCH   1  21
ATOM     21  C   UNL     1       5.805   6.812  17.544  0.00  0.00    +0.000 C 
BRANCH  21  22
ATOM     22  N   UNL     1       6.799   7.838  17.182  0.00  0.00    +0.000 N 
ATOM     23  C   UNL     1       7.964   8.053  17.841  0.00  0.00    +0.000 C 
ATOM     24  O   UNL     1       8.345   7.366  18.780  0.00  0.00    +0.000 OA
ATOM     25  H   UNL     1       6.658   8.408  16.357  0.00  0.00    +0.000 HD
BRANCH  23  26
ATOM     26  O   UNL     1       8.589   9.122  17.297  0.00  0.00    +0.000 OA
BRANCH  26  27
ATOM     27  C   UNL     1       8.930  10.267  18.120  0.00  0.00    +0.000 C 
ATOM     28  C   UNL     1      10.247  10.894  17.653  0.00  0.00    +0.000 C 
ATOM     29  C   UNL     1       7.799  11.286  17.903  0.00  0.00    +0.000 C 
ATOM     30  C   UNL     1       8.955   9.896  19.608  0.00  0.00    +0.000 C 
ENDBRANCH  26  27
ENDBRANCH  23  26
ENDBRANCH  21  22
BRANCH  21  31
ATOM     31  C   UNL     1       4.461   7.230  16.903  0.00  0.00    +0.000 C 
BRANCH  31  32
ATOM     32  C   UNL     1       3.358   7.631  17.869  0.00  0.00    +0.000 A 
ATOM     33  C   UNL     1       2.519   8.737  17.667  0.00  0.00    +0.000 A 
ATOM     34  C   UNL     1       1.558   9.103  18.612  0.00  0.00    +0.000 A 
ATOM     35  C   UNL     1       1.410   8.356  19.772  0.00  0.00    +0.000 A 
ATOM     36  C   UNL     1       2.210   7.235  19.978  0.00  0.00    +0.000 A 
ATOM     37  C   UNL     1       3.174   6.873  19.035  0.00  0.00    +0.000 A 
ENDBRANCH  31  32
ENDBRANCH  21  31
ENDBRANCH   1  21
TORSDOF 13
ENDMDL
MODEL 4
REMARK VINA RESULT:      -7.1      1.933      8.088
REMARK  Name = 
REMARK  19 active torsions:
REMARK  status: ('A' for Active; 'I' for Inactive)
REMARK    1  A    between atoms: C_1  and  C_2
REMARK    2  A    between atoms: C_2  and  C_3
REMARK    3  A    between atoms: C_2  and  C_4
REMARK    4  A    between atoms: C_2  and  O_5
REMARK    5  A    between atoms: O_5  and  C_6
REMARK    6  A    between atoms: N_8  and  C_9
REMARK    7  A    between atoms: C_9  and  C_10
REMARK    8  A    between atoms: C_9  and  C_17
REMARK    9  A    between atoms: C_10  and  C_11
REMARK   10  A    between atoms: C_17  and  O_18
REMARK   11  A    between atoms: C_17  and  C_19
REMARK   12  A    between atoms: C_19  and  C_20
REMARK   13  A    between atoms: C_19  and  N_27
REMARK   14  A    between atoms: C_20  and  C_21
REMARK   15  A    between atoms: C_28  and  O_30
REMARK   16  A    between atoms: O_30  and  C_31
REMARK   17  A    between atoms: C_31  and  C_32
REMARK   18  A    between atoms: C_31  and  C_33
REMARK   19  A    between atoms: C_31  and  C_34
REMARK                            x       y       z     vdW  Elec       q    Type
REMARK                         _______ _______ _______ _____ _____    ______ ____
ROOT
ATOM      1  C   UNL     1       1.024   8.273  21.170  0.00  0.00    +0.000 C 
ENDROOT
BRANCH   1   2
ATOM      2  O   UNL     1       1.988   8.536  22.216  0.00  0.00    +0.000 OA
ATOM      3  H   UNL     1       2.434   9.389  22.036  0.00  0.00    +0.000 HD
ENDBRANCH   1   2
BRANCH   1   4
ATOM      4  C   UNL     1       0.916   9.583  20.319  0.00  0.00    +0.000 C 
BRANCH   4   7
ATOM      5  C   UNL     1      -0.062   9.887  18.056  0.00  0.00    +0.000 C 
ATOM      6  O   UNL     1       0.970  10.297  17.548  0.00  0.00    +0.000 OA
ATOM      7  N   UNL     1      -0.208   9.632  19.386  0.00  0.00    +0.000 N 
ATOM      8  H   UNL     1      -1.162   9.478  19.674  0.00  0.00    +0.000 HD
BRANCH   5   9
ATOM      9  O   UNL     1      -1.203   9.553  17.407  0.00  0.00    +0.000 OA
BRANCH   9  11
ATOM     10  C   UNL     1      -1.793  11.954  17.644  0.00  0.00    +0.000 C 
ATOM     11  C   UNL     1      -2.255  10.545  17.236  0.00  0.00    +0.000 C 
ATOM     12  C   UNL     1      -3.515  10.106  17.985  0.00  0.00    +0.000 C 
ATOM     13  C   UNL     1      -2.573  10.589  15.729  0.00  0.00    +0.000 C 
ENDBRANCH   9  11
ENDBRANCH   5   9
ENDBRANCH   4   7
BRANCH   4  14
ATOM     14  C   UNL     1       1.002  10.870  21.188  0.00  0.00    +0.000 C 
BRANCH  14  15
ATOM     15  C   UNL     1      -0.318  11.427  21.676  0.00  0.00    +0.000 A 
ATOM     16  C   UNL     1      -0.912  10.936  22.848  0.00  0.00    +0.000 A 
ATOM     17  C   UNL     1      -2.135  11.443  23.292  0.00  0.00    +0.000 A 
ATOM     18  C   UNL     1      -2.771  12.455  22.578  0.00  0.00    +0.000 A 
ATOM     19  C   UNL     1      -2.178  12.969  21.426  0.00  0.00    +0.000 A 
ATOM     20  C   UNL     1      -0.959  12.457  20.977  0.00  0.00    +0.000 A 
ENDBRANCH  14  15
ENDBRANCH   4  14
ENDBRANCH   1   4
BRANCH   1  21
ATOM     21  C   UNL     1       1.417   6.972  20.393  0.00  0.00    +0.000 C 
BRANCH  21  22
ATOM     22  N   UNL     1       2.701   7.131  19.687  0.00  0.00    +0.000 N 
ATOM     23  C   UNL     1       2.849   7.120  18.339  0.00  0.00    +0.000 C 
ATOM     24  O   UNL     1       1.911   7.038  17.557  0.00  0.00    +0.000 OA
ATOM     25  H   UNL     1       3.546   7.314  20.213  0.00  0.00    +0.000 HD
BRANCH  23  26
ATOM     26  O   UNL     1       4.165   7.203  18.039  0.00  0.00    +0.000 OA
BRANCH  26  27
ATOM     27  C   UNL     1       4.913   6.009  17.689  0.00  0.00    +0.000 C 
ATOM     28  C   UNL     1       6.008   6.338  16.669  0.00  0.00    +0.000 C 
ATOM     29  C   UNL     1       5.583   5.542  18.992  0.00  0.00    +0.000 C 
ATOM     30  C   UNL     1       3.981   4.891  17.207  0.00  0.00    +0.000 C 
ENDBRANCH  26  27
ENDBRANCH  23  26
ENDBRANCH  21  22
BRANCH  21  31
ATOM     31  C   UNL     1       1.492   5.648  21.188  0.00  0.00    +0.000 C 
BRANCH  31  32
ATOM     32  C   UNL     1       1.762   4.394  20.371  0.00  0.00    +0.000 A 
ATOM     33  C   UNL     1       0.914   3.943  19.349  0.00  0.00    +0.000 A 
ATOM     34  C   UNL     1       1.171   2.752  18.665  0.00  0.00    +0.000 A 
ATOM     35  C   UNL     1       2.292   2.000  18.984  0.00  0.00    +0.000 A 
ATOM     36  C   UNL     1       3.164   2.446  19.972  0.00  0.00    +0.000 A 
ATOM     37  C   UNL     1       2.905   3.634  20.659  0.00  0.00    +0.000 A 
ENDBRANCH  31  32
ENDBRANCH  21  31
ENDBRANCH   1  21
TORSDOF 13
ENDMDL
MODEL 5
REMARK VINA RESULT:      -7.0      1.809      2.686
REMARK  Name = 
REMARK  19 active torsions:
REMARK  status: ('A' for Active; 'I' for Inactive)
REMARK    1  A    between atoms: C_1  and  C_2
REMARK    2  A    between atoms: C_2  and  C_3
REMARK    3  A    between atoms: C_2  and  C_4
REMARK    4  A    between atoms: C_2  and  O_5
REMARK    5  A    between atoms: O_5  and  C_6
REMARK    6  A    between atoms: N_8  and  C_9
REMARK    7  A    between atoms: C_9  and  C_10
REMARK    8  A    between atoms: C_9  and  C_17
REMARK    9  A    between atoms: C_10  and  C_11
REMARK   10  A    between atoms: C_17  and  O_18
REMARK   11  A    between atoms: C_17  and  C_19
REMARK   12  A    between atoms: C_19  and  C_20
REMARK   13  A    between atoms: C_19  and  N_27
REMARK   14  A    between atoms: C_20  and  C_21
REMARK   15  A    between atoms: C_28  and  O_30
REMARK   16  A    between atoms: O_30  and  C_31
REMARK   17  A    between atoms: C_31  and  C_32
REMARK   18  A    between atoms: C_31  and  C_33
REMARK   19  A    between atoms: C_31  and  C_34
REMARK                            x       y       z     vdW  Elec       q    Type
REMARK                         _______ _______ _______ _____ _____    ______ ____
ROOT
ATOM      1  C   UNL     1       1.791   8.678  20.682  0.00  0.00    +0.000 C 
ENDROOT
BRANCH   1   2
ATOM      2  O   UNL     1       1.827   8.512  22.118  0.00  0.00    +0.000 OA
ATOM      3  H   UNL     1       2.760   8.478  22.415  0.00  0.00    +0.000 HD
ENDBRANCH   1   2
BRANCH   1   4
ATOM      4  C   UNL     1       1.839   7.241  20.062  0.00  0.00    +0.000 C 
BRANCH   4   7
ATOM      5  C   UNL     1       3.460   6.607  18.290  0.00  0.00    +0.000 C 
ATOM      6  O   UNL     1       2.632   6.578  17.394  0.00  0.00    +0.000 OA
ATOM      7  N   UNL     1       3.155   6.801  19.603  0.00  0.00    +0.000 N 
ATOM      8  H   UNL     1       3.919   6.617  20.235  0.00  0.00    +0.000 HD
BRANCH   5   9
ATOM      9  O   UNL     1       4.804   6.523  18.149  0.00  0.00    +0.000 OA
BRANCH   9  11
ATOM     10  C   UNL     1       5.071   4.242  19.095  0.00  0.00    +0.000 C 
ATOM     11  C   UNL     1       5.432   5.221  17.967  0.00  0.00    +0.000 C 
ATOM     12  C   UNL     1       6.945   5.389  17.802  0.00  0.00    +0.000 C 
ATOM     13  C   UNL     1       4.861   4.639  16.660  0.00  0.00    +0.000 C 
ENDBRANCH   9  11
ENDBRANCH   5   9
ENDBRANCH   4   7
BRANCH   4  14
ATOM     14  C   UNL     1       1.158   6.176  20.968  0.00  0.00    +0.000 C 
BRANCH  14  15
ATOM     15  C   UNL     1       1.446   4.731  20.620  0.00  0.00    +0.000 A 
ATOM     16  C   UNL     1       1.005   4.187  19.404  0.00  0.00    +0.000 A 
ATOM     17  C   UNL     1       1.262   2.852  19.088  0.00  0.00    +0.000 A 
ATOM     18  C   UNL     1       1.976   2.050  19.974  0.00  0.00    +0.000 A 
ATOM     19  C   UNL     1       2.442   2.585  21.174  0.00  0.00    +0.000 A 
ATOM     20  C   UNL     1       2.178   3.919  21.495  0.00  0.00    +0.000 A 
ENDBRANCH  14  15
ENDBRANCH   4  14
ENDBRANCH   1   4
BRANCH   1  21
ATOM     21  C   UNL     1       0.567   9.567  20.275  0.00  0.00    +0.000 C 
BRANCH  21  22
ATOM     22  N   UNL     1       0.428  10.734  21.164  0.00  0.00    +0.000 N 
ATOM     23  C   UNL     1      -0.288  10.749  22.315  0.00  0.00    +0.000 C 
ATOM     24  O   UNL     1      -0.850   9.763  22.773  0.00  0.00    +0.000 OA
ATOM     25  H   UNL     1       0.931  11.588  20.957  0.00  0.00    +0.000 HD
BRANCH  23  26
ATOM     26  O   UNL     1      -0.272  12.000  22.829  0.00  0.00    +0.000 OA
BRANCH  26  27
ATOM     27  C   UNL     1      -1.491  12.787  22.877  0.00  0.00    +0.000 C 
ATOM     28  C   UNL     1      -1.291  14.037  23.738  0.00  0.00    +0.000 C 
ATOM     29  C   UNL     1      -1.757  13.228  21.428  0.00  0.00    +0.000 C 
ATOM     30  C   UNL     1      -2.682  11.940  23.342  0.00  0.00    +0.000 C 
ENDBRANCH  26  27
ENDBRANCH  23  26
ENDBRANCH  21  22
BRANCH  21  31
ATOM     31  C   UNL     1       0.502  10.088  18.820  0.00  0.00    +0.000 C 
BRANCH  31  32
ATOM     32  C   UNL     1      -0.889  10.381  18.280  0.00  0.00    +0.000 A 
ATOM     33  C   UNL     1      -1.706  11.410  18.770  0.00  0.00    +0.000 A 
ATOM     34  C   UNL     1      -3.000  11.605  18.284  0.00  0.00    +0.000 A 
ATOM     35  C   UNL     1      -3.495  10.779  17.284  0.00  0.00    +0.000 A 
ATOM     36  C   UNL     1      -2.689   9.772  16.760  0.00  0.00    +0.000 A 
ATOM     37  C   UNL     1      -1.396   9.575  17.250  0.00  0.00    +0.000 A 
ENDBRANCH  31  32
ENDBRANCH  21  31
ENDBRANCH   1  21
TORSDOF 13
ENDMDL
MODEL 6
REMARK VINA RESULT:      -7.0      1.497      2.242
REMARK  Name = 
REMARK  19 active torsions:
REMARK  status: ('A' for Active; 'I' for Inactive)
REMARK    1  A    between atoms: C_1  and  C_2
REMARK    2  A    between atoms: C_2  and  C_3
REMARK    3  A    between atoms: C_2  and  C_4
REMARK    4  A    between atoms: C_2  and  O_5
REMARK    5  A    between atoms: O_5  and  C_6
REMARK    6  A    between atoms: N_8  and  C_9
REMARK    7  A    between atoms: C_9  and  C_10
REMARK    8  A    between atoms: C_9  and  C_17
REMARK    9  A    between atoms: C_10  and  C_11
REMARK   10  A    between atoms: C_17  and  O_18
REMARK   11  A    between atoms: C_17  and  C_19
REMARK   12  A    between atoms: C_19  and  C_20
REMARK   13  A    between atoms: C_19  and  N_27
REMARK   14  A    between atoms: C_20  and  C_21
REMARK   15  A    between atoms: C_28  and  O_30
REMARK   16  A    between atoms: O_30  and  C_31
REMARK   17  A    between atoms: C_31  and  C_32
REMARK   18  A    between atoms: C_31  and  C_33
REMARK   19  A    between atoms: C_31  and  C_34
REMARK                            x       y       z     vdW  Elec       q    Type
REMARK                         _______ _______ _______ _____ _____    ______ ____
ROOT
ATOM      1  C   UNL     1       1.547   8.722  20.502  0.00  0.00    +0.000 C 
ENDROOT
BRANCH   1   2
ATOM      2  O   UNL     1       1.625   8.540  21.935  0.00  0.00    +0.000 OA
ATOM      3  H   UNL     1       1.698   9.416  22.368  0.00  0.00    +0.000 HD
ENDBRANCH   1   2
BRANCH   1   4
ATOM      4  C   UNL     1       1.820   7.323  19.856  0.00  0.00    +0.000 C 
BRANCH   4   7
ATOM      5  C   UNL     1       3.360   7.663  17.937  0.00  0.00    +0.000 C 
ATOM      6  O   UNL     1       2.496   8.067  17.177  0.00  0.00    +0.000 OA
ATOM      7  N   UNL     1       3.112   7.183  19.187  0.00  0.00    +0.000 N 
ATOM      8  H   UNL     1       3.899   6.721  19.616  0.00  0.00    +0.000 HD
BRANCH   5   9
ATOM      9  O   UNL     1       4.697   7.675  17.719  0.00  0.00    +0.000 OA
BRANCH   9  11
ATOM     10  C   UNL     1       4.782   5.193  17.692  0.00  0.00    +0.000 C 
ATOM     11  C   UNL     1       5.345   6.510  17.134  0.00  0.00    +0.000 C 
ATOM     12  C   UNL     1       6.863   6.615  17.307  0.00  0.00    +0.000 C 
ATOM     13  C   UNL     1       5.024   6.541  15.628  0.00  0.00    +0.000 C 
ENDBRANCH   9  11
ENDBRANCH   5   9
ENDBRANCH   4   7
BRANCH   4  14
ATOM     14  C   UNL     1       1.546   6.147  20.837  0.00  0.00    +0.000 C 
BRANCH  14  15
ATOM     15  C   UNL     1       1.536   4.764  20.223  0.00  0.00    +0.000 A 
ATOM     16  C   UNL     1       1.628   3.621  21.032  0.00  0.00    +0.000 A 
ATOM     17  C   UNL     1       1.629   2.346  20.465  0.00  0.00    +0.000 A 
ATOM     18  C   UNL     1       1.522   2.197  19.085  0.00  0.00    +0.000 A 
ATOM     19  C   UNL     1       1.405   3.323  18.272  0.00  0.00    +0.000 A 
ATOM     20  C   UNL     1       1.412   4.600  18.838  0.00  0.00    +0.000 A 
ENDBRANCH  14  15
ENDBRANCH   4  14
ENDBRANCH   1   4
BRANCH   1  21
ATOM     21  C   UNL     1       0.192   9.410  20.122  0.00  0.00    +0.000 C 
BRANCH  21  22
ATOM     22  N   UNL     1      -0.289  10.290  21.202  0.00  0.00    +0.000 N 
ATOM     23  C   UNL     1       0.328  11.428  21.604  0.00  0.00    +0.000 C 
ATOM     24  O   UNL     1       1.327  11.882  21.063  0.00  0.00    +0.000 OA
ATOM     25  H   UNL     1      -1.166  10.087  21.664  0.00  0.00    +0.000 HD
BRANCH  23  26
ATOM     26  O   UNL     1      -0.333  11.936  22.670  0.00  0.00    +0.000 OA
BRANCH  26  27
ATOM     27  C   UNL     1      -1.355  12.948  22.483  0.00  0.00    +0.000 C 
ATOM     28  C   UNL     1      -2.750  12.315  22.492  0.00  0.00    +0.000 C 
ATOM     29  C   UNL     1      -1.237  13.887  23.696  0.00  0.00    +0.000 C 
ATOM     30  C   UNL     1      -1.096  13.774  21.218  0.00  0.00    +0.000 C 
ENDBRANCH  26  27
ENDBRANCH  23  26
ENDBRANCH  21  22
BRANCH  21  31
ATOM     31  C   UNL     1       0.137  10.224  18.808  0.00  0.00    +0.000 C 
BRANCH  31  32
ATOM     32  C   UNL     1      -1.249  10.469  18.234  0.00  0.00    +0.000 A 
ATOM     33  C   UNL     1      -2.163  11.379  18.787  0.00  0.00    +0.000 A 
ATOM     34  C   UNL     1      -3.448  11.528  18.262  0.00  0.00    +0.000 A 
ATOM     35  C   UNL     1      -3.837  10.777  17.162  0.00  0.00    +0.000 A 
ATOM     36  C   UNL     1      -2.935   9.892  16.578  0.00  0.00    +0.000 A 
ATOM     37  C   UNL     1      -1.652   9.740  17.106  0.00  0.00    +0.000 A 
ENDBRANCH  31  32
ENDBRANCH  21  31
ENDBRANCH   1  21
TORSDOF 13
ENDMDL
MODEL 7
REMARK VINA RESULT:      -6.9      0.422      1.250
REMARK  Name = 
REMARK  19 active torsions:
REMARK  status: ('A' for Active; 'I' for Inactive)
REMARK    1  A    between atoms: C_1  and  C_2
REMARK    2  A    between atoms: C_2  and  C_3
REMARK    3  A    between atoms: C_2  and  C_4
REMARK    4  A    between atoms: C_2  and  O_5
REMARK    5  A    between atoms: O_5  and  C_6
REMARK    6  A    between atoms: N_8  and  C_9
REMARK    7  A    between atoms: C_9  and  C_10
REMARK    8  A    between atoms: C_9  and  C_17
REMARK    9  A    between atoms: C_10  and  C_11
REMARK   10  A    between atoms: C_17  and  O_18
REMARK   11  A    between atoms: C_17  and  C_19
REMARK   12  A    between atoms: C_19  and  C_20
REMARK   13  A    between atoms: C_19  and  N_27
REMARK   14  A    between atoms: C_20  and  C_21
REMARK   15  A    between atoms: C_28  and  O_30
REMARK   16  A    between atoms: O_30  and  C_31
REMARK   17  A    between atoms: C_31  and  C_32
REMARK   18  A    between atoms: C_31  and  C_33
REMARK   19  A    between atoms: C_31  and  C_34
REMARK                            x       y       z     vdW  Elec       q    Type
REMARK                         _______ _______ _______ _____ _____    ______ ____
ROOT
ATOM      1  C   UNL     1       1.488   8.759  18.056  0.00  0.00    +0.000 C 
ENDROOT
BRANCH   1   2
ATOM      2  O   UNL     1       2.335   9.534  17.174  0.00  0.00    +0.000 OA
ATOM      3  H   UNL     1       2.115  10.483  17.270  0.00  0.00    +0.000 HD
ENDBRANCH   1   2
BRANCH   1   4
ATOM      4  C   UNL     1       2.283   7.458  18.412  0.00  0.00    +0.000 C 
BRANCH   4   7
ATOM      5  C   UNL     1       4.304   6.484  17.346  0.00  0.00    +0.000 C 
ATOM      6  O   UNL     1       3.788   5.405  17.106  0.00  0.00    +0.000 OA
ATOM      7  N   UNL     1       3.701   7.475  18.061  0.00  0.00    +0.000 N 
ATOM      8  H   UNL     1       4.320   8.225  18.327  0.00  0.00    +0.000 HD
BRANCH   5   9
ATOM      9  O   UNL     1       5.508   6.919  16.905  0.00  0.00    +0.000 OA
BRANCH   9  11
ATOM     10  C   UNL     1       7.823   7.351  17.695  0.00  0.00    +0.000 C 
ATOM     11  C   UNL     1       6.728   6.309  17.415  0.00  0.00    +0.000 C 
ATOM     12  C   UNL     1       7.201   5.208  16.462  0.00  0.00    +0.000 C 
ATOM     13  C   UNL     1       6.362   5.661  18.764  0.00  0.00    +0.000 C 
ENDBRANCH   9  11
ENDBRANCH   5   9
ENDBRANCH   4   7
BRANCH   4  14
ATOM     14  C   UNL     1       2.057   7.004  19.883  0.00  0.00    +0.000 C 
BRANCH  14  15
ATOM     15  C   UNL     1       1.890   5.515  20.095  0.00  0.00    +0.000 A 
ATOM     16  C   UNL     1       2.232   4.923  21.321  0.00  0.00    +0.000 A 
ATOM     17  C   UNL     1       2.087   3.548  21.512  0.00  0.00    +0.000 A 
ATOM     18  C   UNL     1       1.585   2.751  20.488  0.00  0.00    +0.000 A 
ATOM     19  C   UNL     1       1.217   3.329  19.274  0.00  0.00    +0.000 A 
ATOM     20  C   UNL     1       1.369   4.704  19.079  0.00  0.00    +0.000 A 
ENDBRANCH  14  15
ENDBRANCH   4  14
ENDBRANCH   1   4
BRANCH   1  21
ATOM     21  C   UNL     1       1.022   9.640  19.264  0.00  0.00    +0.000 C 
BRANCH  21  22
ATOM     22  N   UNL     1       1.400  11.053  19.080  0.00  0.00    +0.000 N 
ATOM     23  C   UNL     1       1.469  11.971  20.074  0.00  0.00    +0.000 C 
ATOM     24  O   UNL     1       1.281  11.703  21.254  0.00  0.00    +0.000 OA
ATOM     25  H   UNL     1       1.684  11.384  18.166  0.00  0.00    +0.000 HD
BRANCH  23  26
ATOM     26  O   UNL     1       1.758  13.180  19.542  0.00  0.00    +0.000 OA
BRANCH  26  27
ATOM     27  C   UNL     1       1.129  14.379  20.062  0.00  0.00    +0.000 C 
ATOM     28  C   UNL     1      -0.359  14.136  20.327  0.00  0.00    +0.000 C 
ATOM     29  C   UNL     1       1.825  14.664  21.404  0.00  0.00    +0.000 C 
ATOM     30  C   UNL     1       1.370  15.580  19.139  0.00  0.00    +0.000 C 
ENDBRANCH  26  27
ENDBRANCH  23  26
ENDBRANCH  21  22
BRANCH  21  31
ATOM     31  C   UNL     1      -0.476   9.613  19.645  0.00  0.00    +0.000 C 
BRANCH  31  32
ATOM     32  C   UNL     1      -1.437  10.178  18.611  0.00  0.00    +0.000 A 
ATOM     33  C   UNL     1      -1.560   9.667  17.311  0.00  0.00    +0.000 A 
ATOM     34  C   UNL     1      -2.413  10.256  16.376  0.00  0.00    +0.000 A 
ATOM     35  C   UNL     1      -3.171  11.363  16.732  0.00  0.00    +0.000 A 
ATOM     36  C   UNL     1      -3.089  11.867  18.027  0.00  0.00    +0.000 A 
ATOM     37  C   UNL     1      -2.232  11.279  18.961  0.00  0.00    +0.000 A 
ENDBRANCH  31  32
ENDBRANCH  21  31
ENDBRANCH   1  21
TORSDOF 13
ENDMDL
MODEL 8
REMARK VINA RESULT:      -6.9      1.830      7.735
REMARK  Name = 
REMARK  19 active torsions:
REMARK  status: ('A' for Active; 'I' for Inactive)
REMARK    1  A    between atoms: C_1  and  C_2
REMARK    2  A    between atoms: C_2  and  C_3
REMARK    3  A    between atoms: C_2  and  C_4
REMARK    4  A    between atoms: C_2  and  O_5
REMARK    5  A    between atoms: O_5  and  C_6
REMARK    6  A    between atoms: N_8  and  C_9
REMARK    7  A    between atoms: C_9  and  C_10
REMARK    8  A    between atoms: C_9  and  C_17
REMARK    9  A    between atoms: C_10  and  C_11
REMARK   10  A    between atoms: C_17  and  O_18
REMARK   11  A    between atoms: C_17  and  C_19
REMARK   12  A    between atoms: C_19  and  C_20
REMARK   13  A    between atoms: C_19  and  N_27
REMARK   14  A    between atoms: C_20  and  C_21
REMARK   15  A    between atoms: C_28  and  O_30
REMARK   16  A    between atoms: O_30  and  C_31
REMARK   17  A    between atoms: C_31  and  C_32
REMARK   18  A    between atoms: C_31  and  C_33
REMARK   19  A    between atoms: C_31  and  C_34
REMARK                            x       y       z     vdW  Elec       q    Type
REMARK                         _______ _______ _______ _____ _____    ______ ____
ROOT
ATOM      1  C   UNL     1       1.776   8.736  17.695  0.00  0.00    +0.000 C 
ENDROOT
BRANCH   1   2
ATOM      2  O   UNL     1       0.440   8.474  17.206  0.00  0.00    +0.000 OA
ATOM      3  H   UNL     1      -0.017   9.326  17.049  0.00  0.00    +0.000 HD
ENDBRANCH   1   2
BRANCH   1   4
ATOM      4  C   UNL     1       1.643   9.834  18.803  0.00  0.00    +0.000 C 
BRANCH   4   7
ATOM      5  C   UNL     1       1.910  12.263  18.359  0.00  0.00    +0.000 C 
ATOM      6  O   UNL     1       0.734  12.454  18.095  0.00  0.00    +0.000 OA
ATOM      7  N   UNL     1       2.449  11.035  18.595  0.00  0.00    +0.000 N 
ATOM      8  H   UNL     1       3.457  11.024  18.616  0.00  0.00    +0.000 HD
BRANCH   5   9
ATOM      9  O   UNL     1       2.863  13.211  18.529  0.00  0.00    +0.000 OA
BRANCH   9  11
ATOM     10  C   UNL     1       2.234  13.603  20.900  0.00  0.00    +0.000 C 
ATOM     11  C   UNL     1       2.704  14.216  19.571  0.00  0.00    +0.000 C 
ATOM     12  C   UNL     1       1.777  15.332  19.083  0.00  0.00    +0.000 C 
ATOM     13  C   UNL     1       4.102  14.817  19.815  0.00  0.00    +0.000 C 
ENDBRANCH   9  11
ENDBRANCH   5   9
ENDBRANCH   4   7
BRANCH   4  14
ATOM     14  C   UNL     1       0.161  10.181  19.125  0.00  0.00    +0.000 C 
BRANCH  14  15
ATOM     15  C   UNL     1      -0.199  10.243  20.593  0.00  0.00    +0.000 A 
ATOM     16  C   UNL     1      -0.822  11.379  21.131  0.00  0.00    +0.000 A 
ATOM     17  C   UNL     1      -1.145  11.439  22.488  0.00  0.00    +0.000 A 
ATOM     18  C   UNL     1      -0.861  10.360  23.320  0.00  0.00    +0.000 A 
ATOM     19  C   UNL     1      -0.264   9.215  22.794  0.00  0.00    +0.000 A 
ATOM     20  C   UNL     1       0.065   9.157  21.438  0.00  0.00    +0.000 A 
ENDBRANCH  14  15
ENDBRANCH   4  14
ENDBRANCH   1   4
BRANCH   1  21
ATOM     21  C   UNL     1       2.461   7.395  18.127  0.00  0.00    +0.000 C 
BRANCH  21  22
ATOM     22  N   UNL     1       3.908   7.411  17.843  0.00  0.00    +0.000 N 
ATOM     23  C   UNL     1       4.590   6.401  17.250  0.00  0.00    +0.000 C 
ATOM     24  O   UNL     1       4.058   5.383  16.827  0.00  0.00    +0.000 OA
ATOM     25  H   UNL     1       4.452   8.240  18.046  0.00  0.00    +0.000 HD
BRANCH  23  26
ATOM     26  O   UNL     1       5.906   6.713  17.224  0.00  0.00    +0.000 OA
BRANCH  26  27
ATOM     27  C   UNL     1       6.844   5.998  18.071  0.00  0.00    +0.000 C 
ATOM     28  C   UNL     1       6.122   5.376  19.269  0.00  0.00    +0.000 C 
ATOM     29  C   UNL     1       7.410   4.864  17.198  0.00  0.00    +0.000 C 
ATOM     30  C   UNL     1       8.011   6.899  18.493  0.00  0.00    +0.000 C 
ENDBRANCH  26  27
ENDBRANCH  23  26
ENDBRANCH  21  22
BRANCH  21  31
ATOM     31  C   UNL     1       2.288   6.932  19.592  0.00  0.00    +0.000 C 
BRANCH  31  32
ATOM     32  C   UNL     1       2.000   5.453  19.794  0.00  0.00    +0.000 A 
ATOM     33  C   UNL     1       1.602   4.596  18.757  0.00  0.00    +0.000 A 
ATOM     34  C   UNL     1       1.290   3.257  19.000  0.00  0.00    +0.000 A 
ATOM     35  C   UNL     1       1.386   2.747  20.287  0.00  0.00    +0.000 A 
ATOM     36  C   UNL     1       1.811   3.572  21.325  0.00  0.00    +0.000 A 
ATOM     37  C   UNL     1       2.118   4.912  21.083  0.00  0.00    +0.000 A 
ENDBRANCH  31  32
ENDBRANCH  21  31
ENDBRANCH   1  21
TORSDOF 13
ENDMDL
MODEL 9
REMARK VINA RESULT:      -6.8      1.615      2.514
REMARK  Name = 
REMARK  19 active torsions:
REMARK  status: ('A' for Active; 'I' for Inactive)
REMARK    1  A    between atoms: C_1  and  C_2
REMARK    2  A    between atoms: C_2  and  C_3
REMARK    3  A    between atoms: C_2  and  C_4
REMARK    4  A    between atoms: C_2  and  O_5
REMARK    5  A    between atoms: O_5  and  C_6
REMARK    6  A    between atoms: N_8  and  C_9
REMARK    7  A    between atoms: C_9  and  C_10
REMARK    8  A    between atoms: C_9  and  C_17
REMARK    9  A    between atoms: C_10  and  C_11
REMARK   10  A    between atoms: C_17  and  O_18
REMARK   11  A    between atoms: C_17  and  C_19
REMARK   12  A    between atoms: C_19  and  C_20
REMARK   13  A    between atoms: C_19  and  N_27
REMARK   14  A    between atoms: C_20  and  C_21
REMARK   15  A    between atoms: C_28  and  O_30
REMARK   16  A    between atoms: O_30  and  C_31
REMARK   17  A    between atoms: C_31  and  C_32
REMARK   18  A    between atoms: C_31  and  C_33
REMARK   19  A    between atoms: C_31  and  C_34
REMARK                            x       y       z     vdW  Elec       q    Type
REMARK                         _______ _______ _______ _____ _____    ______ ____
ROOT
ATOM      1  C   UNL     1       1.486   8.800  20.610  0.00  0.00    +0.000 C 
ENDROOT
BRANCH   1   2
ATOM      2  O   UNL     1       1.634   8.764  22.049  0.00  0.00    +0.000 OA
ATOM      3  H   UNL     1       2.413   8.218  22.279  0.00  0.00    +0.000 HD
ENDBRANCH   1   2
BRANCH   1   4
ATOM      4  C   UNL     1       1.696   7.334  20.100  0.00  0.00    +0.000 C 
BRANCH   4   7
ATOM      5  C   UNL     1       3.160   6.576  18.242  0.00  0.00    +0.000 C 
ATOM      6  O   UNL     1       2.249   6.136  17.561  0.00  0.00    +0.000 OA
ATOM      7  N   UNL     1       3.002   7.059  19.506  0.00  0.00    +0.000 N 
ATOM      8  H   UNL     1       3.868   7.213  19.999  0.00  0.00    +0.000 HD
BRANCH   5   9
ATOM      9  O   UNL     1       4.451   6.728  17.862  0.00  0.00    +0.000 OA
BRANCH   9  11
ATOM     10  C   UNL     1       6.706   5.921  17.206  0.00  0.00    +0.000 C 
ATOM     11  C   UNL     1       5.313   5.560  17.745  0.00  0.00    +0.000 C 
ATOM     12  C   UNL     1       4.623   4.483  16.903  0.00  0.00    +0.000 C 
ATOM     13  C   UNL     1       5.504   5.013  19.173  0.00  0.00    +0.000 C 
ENDBRANCH   9  11
ENDBRANCH   5   9
ENDBRANCH   4   7
BRANCH   4  14
ATOM     14  C   UNL     1       1.309   6.269  21.166  0.00  0.00    +0.000 C 
BRANCH  14  15
ATOM     15  C   UNL     1       1.537   4.827  20.769  0.00  0.00    +0.000 A 
ATOM     16  C   UNL     1       2.567   4.077  21.358  0.00  0.00    +0.000 A 
ATOM     17  C   UNL     1       2.784   2.749  20.985  0.00  0.00    +0.000 A 
ATOM     18  C   UNL     1       1.966   2.151  20.031  0.00  0.00    +0.000 A 
ATOM     19  C   UNL     1       0.923   2.877  19.456  0.00  0.00    +0.000 A 
ATOM     20  C   UNL     1       0.710   4.207  19.823  0.00  0.00    +0.000 A 
ENDBRANCH  14  15
ENDBRANCH   4  14
ENDBRANCH   1   4
BRANCH   1  21
ATOM     21  C   UNL     1       0.128   9.479  20.226  0.00  0.00    +0.000 C 
BRANCH  21  22
ATOM     22  N   UNL     1      -0.382  10.323  21.323  0.00  0.00    +0.000 N 
ATOM     23  C   UNL     1       0.225  11.444  21.783  0.00  0.00    +0.000 C 
ATOM     24  O   UNL     1       1.242  11.913  21.287  0.00  0.00    +0.000 OA
ATOM     25  H   UNL     1      -1.273  10.107  21.752  0.00  0.00    +0.000 HD
BRANCH  23  26
ATOM     26  O   UNL     1      -0.465  11.916  22.846  0.00  0.00    +0.000 OA
BRANCH  26  27
ATOM     27  C   UNL     1      -1.450  12.967  22.671  0.00  0.00    +0.000 C 
ATOM     28  C   UNL     1      -1.311  14.024  23.770  0.00  0.00    +0.000 C 
ATOM     29  C   UNL     1      -1.123  13.622  21.319  0.00  0.00    +0.000 C 
ATOM     30  C   UNL     1      -2.869  12.392  22.589  0.00  0.00    +0.000 C 
ENDBRANCH  26  27
ENDBRANCH  23  26
ENDBRANCH  21  22
BRANCH  21  31
ATOM     31  C   UNL     1       0.082  10.329  18.935  0.00  0.00    +0.000 C 
BRANCH  31  32
ATOM     32  C   UNL     1      -1.278  10.454  18.268  0.00  0.00    +0.000 A 
ATOM     33  C   UNL     1      -1.645   9.729  17.124  0.00  0.00    +0.000 A 
ATOM     34  C   UNL     1      -2.885   9.921  16.510  0.00  0.00    +0.000 A 
ATOM     35  C   UNL     1      -3.786  10.833  17.040  0.00  0.00    +0.000 A 
ATOM     36  C   UNL     1      -3.454  11.539  18.193  0.00  0.00    +0.000 A 
ATOM     37  C   UNL     1      -2.213  11.351  18.805  0.00  0.00    +0.000 A 
ENDBRANCH  31  32
ENDBRANCH  21  31
ENDBRANCH   1  21
TORSDOF 13
ENDMDL
