MODEL 1
REMARK VINA RESULT:      -7.5      0.000      0.000
REMARK  Name = 
REMARK  11 active torsions:
REMARK  status: ('A' for Active; 'I' for Inactive)
REMARK    1  A    between atoms: C_1  and  C_2
REMARK    2  A    between atoms: C_5  and  C_6
REMARK    3  A    between atoms: C_7  and  S_8
REMARK    4  A    between atoms: S_8  and  N_11
REMARK    5  A    between atoms: N_11  and  C_12
REMARK    6  A    between atoms: C_12  and  C_13
REMARK    7  A    between atoms: C_13  and  C_14
REMARK    8  A    between atoms: C_14  and  C_15
REMARK    9  A    between atoms: C_15  and  C_16
REMARK   10  A    between atoms: C_16  and  N_17
REMARK   11  A    between atoms: C_20  and  C_21
REMARK                            x       y       z     vdW  Elec       q    Type
REMARK                         _______ _______ _______ _____ _____    ______ ____
ROOT
ATOM      1  C   UNL     1       1.202   3.846  19.182  0.00  0.00    +0.000 C 
ENDROOT
BRANCH   1   2
ATOM      2  C   UNL     1       1.959   2.931  18.210  0.00  0.00    +0.000 C 
BRANCH   2   3
ATOM      3  C   UNL     1       3.428   2.805  18.597  0.00  0.00    +0.000 C 
BRANCH   3   4
ATOM      4  N   UNL     1       4.301   3.450  17.611  0.00  0.00    +0.000 NA
ATOM      5  H   UNL     1       4.832   2.831  16.998  0.00  0.00    +0.000 HD
BRANCH   4   6
ATOM      6  S   UNL     1       5.261   4.708  18.206  0.00  0.00    +0.000 S 
ATOM      7  O   UNL     1       6.107   4.189  19.254  0.00  0.00    +0.000 OA
ATOM      8  O   UNL     1       4.385   5.842  18.404  0.00  0.00    +0.000 OA
BRANCH   6  15
ATOM      9  C   UNL     1       7.606   7.177  18.106  0.00  0.00    +0.000 C 
ATOM     10  C   UNL     1       7.268   6.247  17.003  0.00  0.00    +0.000 A 
ATOM     11  N   UNL     1       7.889   6.369  15.821  0.00  0.00    +0.000 NA
ATOM     12  O   UNL     1       7.363   5.385  15.009  0.00  0.00    +0.000 OA
ATOM     13  C   UNL     1       6.424   4.677  15.693  0.00  0.00    +0.000 A 
ATOM     14  C   UNL     1       5.754   3.598  14.941  0.00  0.00    +0.000 C 
ATOM     15  C   UNL     1       6.333   5.191  16.966  0.00  0.00    +0.000 A 
ENDBRANCH   6  15
ENDBRANCH   4   6
ENDBRANCH   3   4
ENDBRANCH   2   3
ENDBRANCH   1   2
BRANCH   1  16
ATOM     16  C   UNL     1       2.000   4.177  20.448  0.00  0.00    +0.000 C 
BRANCH  16  17
ATOM     17  C   UNL     1       1.744   5.607  20.924  0.00  0.00    +0.000 C 
BRANCH  17  18
ATOM     18  N   UNL     1       2.385   6.541  20.013  0.00  0.00    +0.000 N 
ATOM     19  C   UNL     1       1.844   7.776  19.891  0.00  0.00    +0.000 A 
ATOM     20  N   UNL     1       1.166   8.402  20.827  0.00  0.00    +0.000 NA
ATOM     21  C   UNL     1       0.778   9.663  20.378  0.00  0.00    +0.000 A 
ATOM     22  C   UNL     1       1.121   9.939  19.069  0.00  0.00    +0.000 A 
ATOM     23  S   UNL     1       2.015   8.640  18.411  0.00  0.00    +0.000 S 
ATOM     24  H   UNL     1       2.729   6.136  19.149  0.00  0.00    +0.000 HD
BRANCH  21  25
ATOM     25  C   UNL     1       0.088  10.623  21.237  0.00  0.00    +0.000 A 
ATOM     26  C   UNL     1      -0.672  10.191  22.320  0.00  0.00    +0.000 A 
ATOM     27  C   UNL     1      -1.268  11.143  23.145  0.00  0.00    +0.000 A 
ATOM     28  C   UNL     1      -1.094  12.493  22.865  0.00  0.00    +0.000 A 
ATOM     29  C   UNL     1      -0.328  12.839  21.764  0.00  0.00    +0.000 A 
ATOM     30  N   UNL     1       0.262  11.940  20.947  0.00  0.00    +0.000 NA
ENDBRANCH  21  25
ENDBRANCH  17  18
ENDBRANCH  16  17
ENDBRANCH   1  16
TORSDOF 9
ENDMDL
MODEL 2
REMARK VINA RESULT:      -7.4      1.205      1.861
REMARK  Name = 
REMARK  11 active torsions:
REMARK  status: ('A' for Active; 'I' for Inactive)
REMARK    1  A    between atoms: C_1  and  C_2
REMARK    2  A    between atoms: C_5  and  C_6
REMARK    3  A    between atoms: C_7  and  S_8
REMARK    4  A    between atoms: S_8  and  N_11
REMARK    5  A    between atoms: N_11  and  C_12
REMARK    6  A    between atoms: C_12  and  C_13
REMARK    7  A    between atoms: C_13  and  C_14
REMARK    8  A    between atoms: C_14  and  C_15
REMARK    9  A    between atoms: C_15  and  C_16
REMARK   10  A    between atoms: C_16  and  N_17
REMARK   11  A    between atoms: C_20  and  C_21
REMARK                            x       y       z     vdW  Elec       q    Type
REMARK                         _______ _______ _______ _____ _____    ______ ____
ROOT
ATOM      1  C   UNL     1       1.551   3.301  20.349  0.00  0.00    +0.000 C 
ENDROOT
BRANCH   1   2
ATOM      2  C   UNL     1       2.055   2.949  18.942  0.00  0.00    +0.000 C 
BRANCH   2   3
ATOM      3  C   UNL     1       3.446   3.519  18.693  0.00  0.00    +0.000 C 
BRANCH   3   4
ATOM      4  N   UNL     1       3.414   4.602  17.705  0.00  0.00    +0.000 NA
ATOM      5  H   UNL     1       3.313   4.326  16.729  0.00  0.00    +0.000 HD
BRANCH   4   6
ATOM      6  S   UNL     1       4.602   5.791  17.895  0.00  0.00    +0.000 S 
ATOM      7  O   UNL     1       4.787   6.038  19.305  0.00  0.00    +0.000 OA
ATOM      8  O   UNL     1       4.290   6.845  16.955  0.00  0.00    +0.000 OA
BRANCH   6  15
ATOM      9  C   UNL     1       5.449   4.239  14.983  0.00  0.00    +0.000 C 
ATOM     10  C   UNL     1       6.350   4.497  16.130  0.00  0.00    +0.000 A 
ATOM     11  N   UNL     1       7.619   4.067  16.084  0.00  0.00    +0.000 NA
ATOM     12  O   UNL     1       8.194   4.442  17.281  0.00  0.00    +0.000 OA
ATOM     13  C   UNL     1       7.275   5.087  18.051  0.00  0.00    +0.000 A 
ATOM     14  C   UNL     1       7.743   5.531  19.379  0.00  0.00    +0.000 C 
ATOM     15  C   UNL     1       6.090   5.146  17.356  0.00  0.00    +0.000 A 
ENDBRANCH   6  15
ENDBRANCH   4   6
ENDBRANCH   3   4
ENDBRANCH   2   3
ENDBRANCH   1   2
BRANCH   1  16
ATOM     16  C   UNL     1       2.320   4.458  20.995  0.00  0.00    +0.000 C 
BRANCH  16  17
ATOM     17  C   UNL     1       1.516   5.759  20.972  0.00  0.00    +0.000 C 
BRANCH  17  18
ATOM     18  N   UNL     1       2.220   6.747  20.173  0.00  0.00    +0.000 N 
ATOM     19  C   UNL     1       1.624   7.948  19.986  0.00  0.00    +0.000 A 
ATOM     20  N   UNL     1       0.780   8.514  20.819  0.00  0.00    +0.000 NA
ATOM     21  C   UNL     1       0.379   9.756  20.331  0.00  0.00    +0.000 A 
ATOM     22  C   UNL     1       0.889  10.077  19.088  0.00  0.00    +0.000 A 
ATOM     23  S   UNL     1       1.950   8.849  18.554  0.00  0.00    +0.000 S 
ATOM     24  H   UNL     1       2.710   6.381  19.364  0.00  0.00    +0.000 HD
BRANCH  21  25
ATOM     25  C   UNL     1      -0.488  10.655  21.090  0.00  0.00    +0.000 A 
ATOM     26  C   UNL     1      -0.627  10.514  22.467  0.00  0.00    +0.000 A 
ATOM     27  C   UNL     1      -1.421  11.428  23.159  0.00  0.00    +0.000 A 
ATOM     28  C   UNL     1      -2.052  12.448  22.460  0.00  0.00    +0.000 A 
ATOM     29  C   UNL     1      -1.867  12.515  21.089  0.00  0.00    +0.000 A 
ATOM     30  N   UNL     1      -1.104  11.645  20.391  0.00  0.00    +0.000 NA
ENDBRANCH  21  25
ENDBRANCH  17  18
ENDBRANCH  16  17
ENDBRANCH   1  16
TORSDOF 9
ENDMDL
MODEL 3
REMARK VINA RESULT:      -7.3      0.974      1.920
REMARK  Name = 
REMARK  11 active torsions:
REMARK  status: ('A' for Active; 'I' for Inactive)
REMARK    1  A    between atoms: C_1  and  C_2
REMARK    2  A    between atoms: C_5  and  C_6
REMARK    3  A    between atoms: C_7  and  S_8
REMARK    4  A    between atoms: S_8  and  N_11
REMARK    5  A    between atoms: N_11  and  C_12
REMARK    6  A    between atoms: C_12  and  C_13
REMARK    7  A    between atoms: C_13  and  C_14
REMARK    8  A    between atoms: C_14  and  C_15
REMARK    9  A    between atoms: C_15  and  C_16
REMARK   10  A    between atoms: C_16  and  N_17
REMARK   11  A    between atoms: C_20  and  C_21
REMARK                            x       y       z     vdW  Elec       q    Type
REMARK                         _______ _______ _______ _____ _____    ______ ____
ROOT
ATOM      1  C   UNL     1       2.268   3.108  20.733  0.00  0.00    +0.000 C 
ENDROOT
BRANCH   1   2
ATOM      2  C   UNL     1       3.054   2.342  19.660  0.00  0.00    +0.000 C 
BRANCH   2   3
ATOM      3  C   UNL     1       4.456   2.914  19.485  0.00  0.00    +0.000 C 
BRANCH   3   4
ATOM      4  N   UNL     1       4.481   3.975  18.473  0.00  0.00    +0.000 NA
ATOM      5  H   UNL     1       4.507   3.675  17.499  0.00  0.00    +0.000 HD
BRANCH   4   6
ATOM      6  S   UNL     1       5.575   5.230  18.767  0.00  0.00    +0.000 S 
ATOM      7  O   UNL     1       6.570   4.767  19.704  0.00  0.00    +0.000 OA
ATOM      8  O   UNL     1       4.789   6.423  18.993  0.00  0.00    +0.000 OA
BRANCH   6  15
ATOM      9  C   UNL     1       5.686   3.521  15.822  0.00  0.00    +0.000 C 
ATOM     10  C   UNL     1       6.436   4.758  16.144  0.00  0.00    +0.000 A 
ATOM     11  N   UNL     1       7.279   5.274  15.238  0.00  0.00    +0.000 NA
ATOM     12  O   UNL     1       7.826   6.398  15.822  0.00  0.00    +0.000 OA
ATOM     13  C   UNL     1       7.323   6.556  17.077  0.00  0.00    +0.000 A 
ATOM     14  C   UNL     1       7.836   7.712  17.838  0.00  0.00    +0.000 C 
ATOM     15  C   UNL     1       6.434   5.536  17.321  0.00  0.00    +0.000 A 
ENDBRANCH   6  15
ENDBRANCH   4   6
ENDBRANCH   3   4
ENDBRANCH   2   3
ENDBRANCH   1   2
BRANCH   1  16
ATOM     16  C   UNL     1       1.425   4.255  20.162  0.00  0.00    +0.000 C 
BRANCH  16  17
ATOM     17  C   UNL     1       1.603   5.544  20.964  0.00  0.00    +0.000 C 
BRANCH  17  18
ATOM     18  N   UNL     1       2.306   6.524  20.154  0.00  0.00    +0.000 N 
ATOM     19  C   UNL     1       1.736   7.742  19.999  0.00  0.00    +0.000 A 
ATOM     20  N   UNL     1       0.934   8.319  20.865  0.00  0.00    +0.000 NA
ATOM     21  C   UNL     1       0.550   9.576  20.404  0.00  0.00    +0.000 A 
ATOM     22  C   UNL     1       1.028   9.899  19.149  0.00  0.00    +0.000 A 
ATOM     23  S   UNL     1       2.040   8.651  18.568  0.00  0.00    +0.000 S 
ATOM     24  H   UNL     1       2.761   6.155  19.326  0.00  0.00    +0.000 HD
BRANCH  21  25
ATOM     25  C   UNL     1      -0.269  10.488  21.200  0.00  0.00    +0.000 A 
ATOM     26  C   UNL     1      -0.795  11.646  20.636  0.00  0.00    +0.000 A 
ATOM     27  C   UNL     1      -1.617  12.460  21.416  0.00  0.00    +0.000 A 
ATOM     28  C   UNL     1      -1.884  12.098  22.730  0.00  0.00    +0.000 A 
ATOM     29  C   UNL     1      -1.315  10.933  23.217  0.00  0.00    +0.000 A 
ATOM     30  N   UNL     1      -0.517  10.124  22.487  0.00  0.00    +0.000 NA
ENDBRANCH  21  25
ENDBRANCH  17  18
ENDBRANCH  16  17
ENDBRANCH   1  16
TORSDOF 9
ENDMDL
MODEL 4
REMARK VINA RESULT:      -7.2      1.151      1.190
REMARK  Name = 
REMARK  11 active torsions:
REMARK  status: ('A' for Active; 'I' for Inactive)
REMARK    1  A    between atoms: C_1  and  C_2
REMARK    2  A    between atoms: C_5  and  C_6
REMARK    3  A    between atoms: C_7  and  S_8
REMARK    4  A    between atoms: S_8  and  N_11
REMARK    5  A    between atoms: N_11  and  C_12
REMARK    6  A    between atoms: C_12  and  C_13
REMARK    7  A    between atoms: C_13  and  C_14
REMARK    8  A    between atoms: C_14  and  C_15
REMARK    9  A    between atoms: C_15  and  C_16
REMARK   10  A    between atoms: C_16  and  N_17
REMARK   11  A    between atoms: C_20  and  C_21
REMARK                            x       y       z     vdW  Elec       q    Type
REMARK                         _______ _______ _______ _____ _____    ______ ____
ROOT
ATOM      1  C   UNL     1       1.931   3.939  19.609  0.00  0.00    +0.000 C 
ENDROOT
BRANCH   1   2
ATOM      2  C   UNL     1       3.125   2.975  19.577  0.00  0.00    +0.000 C 
BRANCH   2   3
ATOM      3  C   UNL     1       4.004   3.221  18.357  0.00  0.00    +0.000 C 
BRANCH   3   4
ATOM      4  N   UNL     1       5.413   3.380  18.733  0.00  0.00    +0.000 NA
ATOM      5  H   UNL     1       5.753   2.786  19.489  0.00  0.00    +0.000 HD
BRANCH   4   6
ATOM      6  S   UNL     1       5.939   4.977  18.913  0.00  0.00    +0.000 S 
ATOM      7  O   UNL     1       6.987   5.009  19.904  0.00  0.00    +0.000 OA
ATOM      8  O   UNL     1       4.751   5.797  19.010  0.00  0.00    +0.000 OA
BRANCH   6  15
ATOM      9  C   UNL     1       7.896   7.666  18.179  0.00  0.00    +0.000 C 
ATOM     10  C   UNL     1       7.475   6.607  17.232  0.00  0.00    +0.000 A 
ATOM     11  N   UNL     1       7.840   6.687  15.945  0.00  0.00    +0.000 NA
ATOM     12  O   UNL     1       7.298   5.581  15.323  0.00  0.00    +0.000 OA
ATOM     13  C   UNL     1       6.600   4.841  16.228  0.00  0.00    +0.000 A 
ATOM     14  C   UNL     1       5.940   3.631  15.701  0.00  0.00    +0.000 C 
ATOM     15  C   UNL     1       6.688   5.457  17.454  0.00  0.00    +0.000 A 
ENDBRANCH   6  15
ENDBRANCH   4   6
ENDBRANCH   3   4
ENDBRANCH   2   3
ENDBRANCH   1   2
BRANCH   1  16
ATOM     16  C   UNL     1       1.652   4.511  21.003  0.00  0.00    +0.000 C 
BRANCH  16  17
ATOM     17  C   UNL     1       1.381   6.016  20.957  0.00  0.00    +0.000 C 
BRANCH  17  18
ATOM     18  N   UNL     1       2.260   6.635  19.980  0.00  0.00    +0.000 N 
ATOM     19  C   UNL     1       1.930   7.866  19.523  0.00  0.00    +0.000 A 
ATOM     20  N   UNL     1       1.245   8.765  20.194  0.00  0.00    +0.000 NA
ATOM     21  C   UNL     1       1.107   9.927  19.440  0.00  0.00    +0.000 A 
ATOM     22  C   UNL     1       1.645   9.856  18.169  0.00  0.00    +0.000 A 
ATOM     23  S   UNL     1       2.408   8.345  17.939  0.00  0.00    +0.000 S 
ATOM     24  H   UNL     1       2.643   6.006  19.282  0.00  0.00    +0.000 HD
BRANCH  21  25
ATOM     25  C   UNL     1       0.469  11.133  19.964  0.00  0.00    +0.000 A 
ATOM     26  C   UNL     1      -0.902  11.167  20.198  0.00  0.00    +0.000 A 
ATOM     27  C   UNL     1      -1.461  12.318  20.752  0.00  0.00    +0.000 A 
ATOM     28  C   UNL     1      -0.640  13.398  21.050  0.00  0.00    +0.000 A 
ATOM     29  C   UNL     1       0.714  13.286  20.780  0.00  0.00    +0.000 A 
ATOM     30  N   UNL     1       1.284  12.184  20.246  0.00  0.00    +0.000 NA
ENDBRANCH  21  25
ENDBRANCH  17  18
ENDBRANCH  16  17
ENDBRANCH   1  16
TORSDOF 9
ENDMDL
MODEL 5
REMARK VINA RESULT:      -7.1      1.368      1.674
REMARK  Name = 
REMARK  11 active torsions:
REMARK  status: ('A' for Active; 'I' for Inactive)
REMARK    1  A    between atoms: C_1  and  C_2
REMARK    2  A    between atoms: C_5  and  C_6
REMARK    3  A    between atoms: C_7  and  S_8
REMARK    4  A    between atoms: S_8  and  N_11
REMARK    5  A    between atoms: N_11  and  C_12
REMARK    6  A    between atoms: C_12  and  C_13
REMARK    7  A    between atoms: C_13  and  C_14
REMARK    8  A    between atoms: C_14  and  C_15
REMARK    9  A    between atoms: C_15  and  C_16
REMARK   10  A    between atoms: C_16  and  N_17
REMARK   11  A    between atoms: C_20  and  C_21
REMARK                            x       y       z     vdW  Elec       q    Type
REMARK                         _______ _______ _______ _____ _____    ______ ____
ROOT
ATOM      1  C   UNL     1       1.413   3.604  20.375  0.00  0.00    +0.000 C 
ENDROOT
BRANCH   1   2
ATOM      2  C   UNL     1       1.342   3.523  18.843  0.00  0.00    +0.000 C 
BRANCH   2   3
ATOM      3  C   UNL     1       2.386   2.561  18.290  0.00  0.00    +0.000 C 
BRANCH   3   4
ATOM      4  N   UNL     1       3.731   3.145  18.332  0.00  0.00    +0.000 NA
ATOM      5  H   UNL     1       4.065   3.455  19.244  0.00  0.00    +0.000 HD
BRANCH   4   6
ATOM      6  S   UNL     1       4.064   4.284  17.129  0.00  0.00    +0.000 S 
ATOM      7  O   UNL     1       3.571   5.570  17.560  0.00  0.00    +0.000 OA
ATOM      8  O   UNL     1       3.677   3.685  15.870  0.00  0.00    +0.000 OA
BRANCH   6  15
ATOM      9  C   UNL     1       6.370   5.157  19.480  0.00  0.00    +0.000 C 
ATOM     10  C   UNL     1       6.645   4.855  18.055  0.00  0.00    +0.000 A 
ATOM     11  N   UNL     1       7.897   4.955  17.588  0.00  0.00    +0.000 NA
ATOM     12  O   UNL     1       7.834   4.626  16.249  0.00  0.00    +0.000 OA
ATOM     13  C   UNL     1       6.548   4.337  15.907  0.00  0.00    +0.000 A 
ATOM     14  C   UNL     1       6.320   3.987  14.491  0.00  0.00    +0.000 C 
ATOM     15  C   UNL     1       5.760   4.468  17.026  0.00  0.00    +0.000 A 
ENDBRANCH   6  15
ENDBRANCH   4   6
ENDBRANCH   3   4
ENDBRANCH   2   3
ENDBRANCH   1   2
BRANCH   1  16
ATOM     16  C   UNL     1       2.346   4.711  20.879  0.00  0.00    +0.000 C 
BRANCH  16  17
ATOM     17  C   UNL     1       1.681   6.086  20.819  0.00  0.00    +0.000 C 
BRANCH  17  18
ATOM     18  N   UNL     1       2.410   6.936  19.893  0.00  0.00    +0.000 N 
ATOM     19  C   UNL     1       1.858   8.125  19.558  0.00  0.00    +0.000 A 
ATOM     20  N   UNL     1       1.047   8.826  20.319  0.00  0.00    +0.000 NA
ATOM     21  C   UNL     1       0.688  10.010  19.679  0.00  0.00    +0.000 A 
ATOM     22  C   UNL     1       1.192  10.149  18.400  0.00  0.00    +0.000 A 
ATOM     23  S   UNL     1       2.199   8.822  18.020  0.00  0.00    +0.000 S 
ATOM     24  H   UNL     1       2.875   6.450  19.134  0.00  0.00    +0.000 HD
BRANCH  21  25
ATOM     25  C   UNL     1      -0.134  11.032  20.323  0.00  0.00    +0.000 A 
ATOM     26  C   UNL     1      -1.169  11.653  19.630  0.00  0.00    +0.000 A 
ATOM     27  C   UNL     1      -1.964  12.582  20.299  0.00  0.00    +0.000 A 
ATOM     28  C   UNL     1      -1.700  12.868  21.633  0.00  0.00    +0.000 A 
ATOM     29  C   UNL     1      -0.647  12.213  22.248  0.00  0.00    +0.000 A 
ATOM     30  N   UNL     1       0.139  11.306  21.626  0.00  0.00    +0.000 NA
ENDBRANCH  21  25
ENDBRANCH  17  18
ENDBRANCH  16  17
ENDBRANCH   1  16
TORSDOF 9
ENDMDL
MODEL 6
REMARK VINA RESULT:      -7.0      3.738      9.911
REMARK  Name = 
REMARK  11 active torsions:
REMARK  status: ('A' for Active; 'I' for Inactive)
REMARK    1  A    between atoms: C_1  and  C_2
REMARK    2  A    between atoms: C_5  and  C_6
REMARK    3  A    between atoms: C_7  and  S_8
REMARK    4  A    between atoms: S_8  and  N_11
REMARK    5  A    between atoms: N_11  and  C_12
REMARK    6  A    between atoms: C_12  and  C_13
REMARK    7  A    between atoms: C_13  and  C_14
REMARK    8  A    between atoms: C_14  and  C_15
REMARK    9  A    between atoms: C_15  and  C_16
REMARK   10  A    between atoms: C_16  and  N_17
REMARK   11  A    between atoms: C_20  and  C_21
REMARK                            x       y       z     vdW  Elec       q    Type
REMARK                         _______ _______ _______ _____ _____    ______ ____
ROOT
ATOM      1  C   UNL     1       2.429   7.496  18.766  0.00  0.00    +0.000 C 
ENDROOT
BRANCH   1   2
ATOM      2  C   UNL     1       2.370   8.476  17.585  0.00  0.00    +0.000 C 
BRANCH   2   3
ATOM      3  C   UNL     1       1.913   9.859  18.034  0.00  0.00    +0.000 C 
BRANCH   3   4
ATOM      4  N   UNL     1       0.451   9.948  18.096  0.00  0.00    +0.000 NA
ATOM      5  H   UNL     1      -0.046   9.923  17.206  0.00  0.00    +0.000 HD
BRANCH   4   6
ATOM      6  S   UNL     1      -0.159  11.152  19.114  0.00  0.00    +0.000 S 
ATOM      7  O   UNL     1       0.432  12.415  18.743  0.00  0.00    +0.000 OA
ATOM      8  O   UNL     1      -0.095  10.630  20.462  0.00  0.00    +0.000 OA
BRANCH   6  15
ATOM      9  C   UNL     1      -2.090   9.937  16.583  0.00  0.00    +0.000 C 
ATOM     10  C   UNL     1      -2.549  10.801  17.696  0.00  0.00    +0.000 A 
ATOM     11  N   UNL     1      -3.828  11.200  17.738  0.00  0.00    +0.000 NA
ATOM     12  O   UNL     1      -3.947  11.987  18.867  0.00  0.00    +0.000 OA
ATOM     13  C   UNL     1      -2.744  12.069  19.498  0.00  0.00    +0.000 A 
ATOM     14  C   UNL     1      -2.710  12.901  20.717  0.00  0.00    +0.000 C 
ATOM     15  C   UNL     1      -1.828  11.328  18.789  0.00  0.00    +0.000 A 
ENDBRANCH   6  15
ENDBRANCH   4   6
ENDBRANCH   3   4
ENDBRANCH   2   3
ENDBRANCH   1   2
BRANCH   1  16
ATOM     16  C   UNL     1       1.876   6.107  18.428  0.00  0.00    +0.000 C 
BRANCH  16  17
ATOM     17  C   UNL     1       2.955   5.028  18.520  0.00  0.00    +0.000 C 
BRANCH  17  18
ATOM     18  N   UNL     1       4.227   5.644  18.857  0.00  0.00    +0.000 N 
ATOM     19  C   UNL     1       5.285   5.386  18.053  0.00  0.00    +0.000 A 
ATOM     20  N   UNL     1       5.213   5.098  16.773  0.00  0.00    +0.000 NA
ATOM     21  C   UNL     1       6.490   4.917  16.247  0.00  0.00    +0.000 A 
ATOM     22  C   UNL     1       7.512   5.012  17.171  0.00  0.00    +0.000 A 
ATOM     23  S   UNL     1       6.879   5.414  18.707  0.00  0.00    +0.000 S 
ATOM     24  H   UNL     1       4.440   5.684  19.848  0.00  0.00    +0.000 HD
BRANCH  21  25
ATOM     25  C   UNL     1       6.726   4.675  14.825  0.00  0.00    +0.000 A 
ATOM     26  C   UNL     1       5.929   3.784  14.114  0.00  0.00    +0.000 A 
ATOM     27  C   UNL     1       6.153   3.625  12.747  0.00  0.00    +0.000 A 
ATOM     28  C   UNL     1       7.165   4.353  12.134  0.00  0.00    +0.000 A 
ATOM     29  C   UNL     1       7.919   5.214  12.915  0.00  0.00    +0.000 A 
ATOM     30  N   UNL     1       7.724   5.390  14.240  0.00  0.00    +0.000 NA
ENDBRANCH  21  25
ENDBRANCH  17  18
ENDBRANCH  16  17
ENDBRANCH   1  16
TORSDOF 9
ENDMDL
MODEL 7
REMARK VINA RESULT:      -6.9      2.415      4.422
REMARK  Name = 
REMARK  11 active torsions:
REMARK  status: ('A' for Active; 'I' for Inactive)
REMARK    1  A    between atoms: C_1  and  C_2
REMARK    2  A    between atoms: C_5  and  C_6
REMARK    3  A    between atoms: C_7  and  S_8
REMARK    4  A    between atoms: S_8  and  N_11
REMARK    5  A    between atoms: N_11  and  C_12
REMARK    6  A    between atoms: C_12  and  C_13
REMARK    7  A    between atoms: C_13  and  C_14
REMARK    8  A    between atoms: C_14  and  C_15
REMARK    9  A    between atoms: C_15  and  C_16
REMARK   10  A    between atoms: C_16  and  N_17
REMARK   11  A    between atoms: C_20  and  C_21
REMARK                            x       y       z     vdW  Elec       q    Type
REMARK                         _______ _______ _______ _____ _____    ______ ____
ROOT
ATOM      1  C   UNL     1       5.354   5.843  15.469  0.00  0.00    +0.000 C 
ENDROOT
BRANCH   1   2
ATOM      2  C   UNL     1       5.603   4.350  15.724  0.00  0.00    +0.000 C 
BRANCH   2   3
ATOM      3  C   UNL     1       5.969   4.089  17.180  0.00  0.00    +0.000 C 
BRANCH   3   4
ATOM      4  N   UNL     1       5.072   3.103  17.792  0.00  0.00    +0.000 NA
ATOM      5  H   UNL     1       4.319   2.746  17.205  0.00  0.00    +0.000 HD
BRANCH   4   6
ATOM      6  S   UNL     1       4.521   3.489  19.343  0.00  0.00    +0.000 S 
ATOM      7  O   UNL     1       4.829   4.873  19.612  0.00  0.00    +0.000 OA
ATOM      8  O   UNL     1       4.944   2.414  20.214  0.00  0.00    +0.000 OA
BRANCH   6  15
ATOM      9  C   UNL     1       2.287   3.070  21.881  0.00  0.00    +0.000 C 
ATOM     10  C   UNL     1       1.960   3.209  20.443  0.00  0.00    +0.000 A 
ATOM     11  N   UNL     1       0.682   3.133  20.045  0.00  0.00    +0.000 NA
ATOM     12  O   UNL     1       0.698   3.287  18.673  0.00  0.00    +0.000 OA
ATOM     13  C   UNL     1       1.980   3.446  18.243  0.00  0.00    +0.000 A 
ATOM     14  C   UNL     1       2.158   3.601  16.786  0.00  0.00    +0.000 C 
ATOM     15  C   UNL     1       2.814   3.405  19.336  0.00  0.00    +0.000 A 
ENDBRANCH   6  15
ENDBRANCH   4   6
ENDBRANCH   3   4
ENDBRANCH   2   3
ENDBRANCH   1   2
BRANCH   1  16
ATOM     16  C   UNL     1       5.415   6.693  16.743  0.00  0.00    +0.000 C 
BRANCH  16  17
ATOM     17  C   UNL     1       4.134   7.501  16.949  0.00  0.00    +0.000 C 
BRANCH  17  18
ATOM     18  N   UNL     1       3.299   6.841  17.938  0.00  0.00    +0.000 N 
ATOM     19  C   UNL     1       2.483   7.613  18.692  0.00  0.00    +0.000 A 
ATOM     20  N   UNL     1       1.969   8.764  18.319  0.00  0.00    +0.000 NA
ATOM     21  C   UNL     1       1.155   9.277  19.325  0.00  0.00    +0.000 A 
ATOM     22  C   UNL     1       1.121   8.522  20.481  0.00  0.00    +0.000 A 
ATOM     23  S   UNL     1       2.055   7.105  20.281  0.00  0.00    +0.000 S 
ATOM     24  H   UNL     1       3.739   6.071  18.431  0.00  0.00    +0.000 HD
BRANCH  21  25
ATOM     25  C   UNL     1       0.377  10.503  19.156  0.00  0.00    +0.000 A 
ATOM     26  C   UNL     1      -1.012  10.459  19.080  0.00  0.00    +0.000 A 
ATOM     27  C   UNL     1      -1.718  11.657  18.975  0.00  0.00    +0.000 A 
ATOM     28  C   UNL     1      -1.020  12.858  18.945  0.00  0.00    +0.000 A 
ATOM     29  C   UNL     1       0.362  12.815  19.019  0.00  0.00    +0.000 A 
ATOM     30  N   UNL     1       1.073  11.671  19.122  0.00  0.00    +0.000 NA
ENDBRANCH  21  25
ENDBRANCH  17  18
ENDBRANCH  16  17
ENDBRANCH   1  16
TORSDOF 9
ENDMDL
MODEL 8
REMARK VINA RESULT:      -6.9      1.097      1.220
REMARK  Name = 
REMARK  11 active torsions:
REMARK  status: ('A' for Active; 'I' for Inactive)
REMARK    1  A    between atoms: C_1  and  C_2
REMARK    2  A    between atoms: C_5  and  C_6
REMARK    3  A    between atoms: C_7  and  S_8
REMARK    4  A    between atoms: S_8  and  N_11
REMARK    5  A    between atoms: N_11  and  C_12
REMARK    6  A    between atoms: C_12  and  C_13
REMARK    7  A    between atoms: C_13  and  C_14
REMARK    8  A    between atoms: C_14  and  C_15
REMARK    9  A    between atoms: C_15  and  C_16
REMARK   10  A    between atoms: C_16  and  N_17
REMARK   11  A    between atoms: C_20  and  C_21
REMARK                            x       y       z     vdW  Elec       q    Type
REMARK                         _______ _______ _______ _____ _____    ______ ____
ROOT
ATOM      1  C   UNL     1       3.031   2.743  20.791  0.00  0.00    +0.000 C 
ENDROOT
BRANCH   1   2
ATOM      2  C   UNL     1       2.881   2.227  19.353  0.00  0.00    +0.000 C 
BRANCH   2   3
ATOM      3  C   UNL     1       4.228   1.825  18.764  0.00  0.00    +0.000 C 
BRANCH   3   4
ATOM      4  N   UNL     1       4.536   2.595  17.554  0.00  0.00    +0.000 NA
ATOM      5  H   UNL     1       5.302   2.249  16.977  0.00  0.00    +0.000 HD
BRANCH   4   6
ATOM      6  S   UNL     1       4.624   4.270  17.765  0.00  0.00    +0.000 S 
ATOM      7  O   UNL     1       5.061   4.545  19.112  0.00  0.00    +0.000 OA
ATOM      8  O   UNL     1       3.406   4.824  17.214  0.00  0.00    +0.000 OA
BRANCH   6  15
ATOM      9  C   UNL     1       7.323   6.228  18.468  0.00  0.00    +0.000 C 
ATOM     10  C   UNL     1       6.952   5.695  17.136  0.00  0.00    +0.000 A 
ATOM     11  N   UNL     1       7.695   6.014  16.066  0.00  0.00    +0.000 NA
ATOM     12  O   UNL     1       7.104   5.386  14.989  0.00  0.00    +0.000 OA
ATOM     13  C   UNL     1       6.005   4.699  15.403  0.00  0.00    +0.000 A 
ATOM     14  C   UNL     1       5.251   3.991  14.350  0.00  0.00    +0.000 C 
ATOM     15  C   UNL     1       5.873   4.867  16.761  0.00  0.00    +0.000 A 
ENDBRANCH   6  15
ENDBRANCH   4   6
ENDBRANCH   3   4
ENDBRANCH   2   3
ENDBRANCH   1   2
BRANCH   1  16
ATOM     16  C   UNL     1       1.710   3.228  21.400  0.00  0.00    +0.000 C 
BRANCH  16  17
ATOM     17  C   UNL     1       1.084   4.355  20.578  0.00  0.00    +0.000 C 
BRANCH  17  18
ATOM     18  N   UNL     1       2.135   5.212  20.055  0.00  0.00    +0.000 N 
ATOM     19  C   UNL     1       1.897   6.544  20.006  0.00  0.00    +0.000 A 
ATOM     20  N   UNL     1       1.095   7.201  20.813  0.00  0.00    +0.000 NA
ATOM     21  C   UNL     1       1.104   8.558  20.501  0.00  0.00    +0.000 A 
ATOM     22  C   UNL     1       1.876   8.892  19.405  0.00  0.00    +0.000 A 
ATOM     23  S   UNL     1       2.670   7.504  18.803  0.00  0.00    +0.000 S 
ATOM     24  H   UNL     1       2.645   4.837  19.262  0.00  0.00    +0.000 HD
BRANCH  21  25
ATOM     25  C   UNL     1       0.376   9.550  21.290  0.00  0.00    +0.000 A 
ATOM     26  C   UNL     1      -0.275   9.186  22.464  0.00  0.00    +0.000 A 
ATOM     27  C   UNL     1      -0.911  10.174  23.215  0.00  0.00    +0.000 A 
ATOM     28  C   UNL     1      -0.881  11.490  22.772  0.00  0.00    +0.000 A 
ATOM     29  C   UNL     1      -0.217  11.768  21.589  0.00  0.00    +0.000 A 
ATOM     30  N   UNL     1       0.409  10.833  20.841  0.00  0.00    +0.000 NA
ENDBRANCH  21  25
ENDBRANCH  17  18
ENDBRANCH  16  17
ENDBRANCH   1  16
TORSDOF 9
ENDMDL
MODEL 9
REMARK VINA RESULT:      -6.9      5.667      9.201
REMARK  Name = 
REMARK  11 active torsions:
REMARK  status: ('A' for Active; 'I' for Inactive)
REMARK    1  A    between atoms: C_1  and  C_2
REMARK    2  A    between atoms: C_5  and  C_6
REMARK    3  A    between atoms: C_7  and  S_8
REMARK    4  A    between atoms: S_8  and  N_11
REMARK    5  A    between atoms: N_11  and  C_12
REMARK    6  A    between atoms: C_12  and  C_13
REMARK    7  A    between atoms: C_13  and  C_14
REMARK    8  A    between atoms: C_14  and  C_15
REMARK    9  A    between atoms: C_15  and  C_16
REMARK   10  A    between atoms: C_16  and  N_17
REMARK   11  A    between atoms: C_20  and  C_21
REMARK                            x       y       z     vdW  Elec       q    Type
REMARK                         _______ _______ _______ _____ _____    ______ ____
ROOT
ATOM      1  C   UNL     1       8.983   9.786  18.899  0.00  0.00    +0.000 C 
ENDROOT
BRANCH   1   2
ATOM      2  C   UNL     1       9.759  10.991  18.349  0.00  0.00    +0.000 C 
BRANCH   2   3
ATOM      3  C   UNL     1      10.696  11.574  19.400  0.00  0.00    +0.000 C 
BRANCH   3   4
ATOM      4  N   UNL     1      10.538  13.027  19.515  0.00  0.00    +0.000 NA
ATOM      5  H   UNL     1      11.325  13.598  19.208  0.00  0.00    +0.000 HD
BRANCH   4   6
ATOM      6  S   UNL     1       9.912  13.573  20.988  0.00  0.00    +0.000 S 
ATOM      7  O   UNL     1      10.663  14.730  21.410  0.00  0.00    +0.000 OA
ATOM      8  O   UNL     1       9.745  12.406  21.828  0.00  0.00    +0.000 OA
BRANCH   6  15
ATOM      9  C   UNL     1       8.374  14.622  18.135  0.00  0.00    +0.000 C 
ATOM     10  C   UNL     1       7.772  14.582  19.489  0.00  0.00    +0.000 A 
ATOM     11  N   UNL     1       6.519  15.023  19.669  0.00  0.00    +0.000 NA
ATOM     12  O   UNL     1       6.249  14.870  21.014  0.00  0.00    +0.000 OA
ATOM     13  C   UNL     1       7.335  14.346  21.645  0.00  0.00    +0.000 A 
ATOM     14  C   UNL     1       7.202  14.146  23.101  0.00  0.00    +0.000 C 
ATOM     15  C   UNL     1       8.326  14.147  20.712  0.00  0.00    +0.000 A 
ENDBRANCH   6  15
ENDBRANCH   4   6
ENDBRANCH   3   4
ENDBRANCH   2   3
ENDBRANCH   1   2
BRANCH   1  16
ATOM     16  C   UNL     1       8.077   9.123  17.855  0.00  0.00    +0.000 C 
BRANCH  16  17
ATOM     17  C   UNL     1       8.004   7.607  18.047  0.00  0.00    +0.000 C 
BRANCH  17  18
ATOM     18  N   UNL     1       7.584   6.982  16.804  0.00  0.00    +0.000 N 
ATOM     19  C   UNL     1       6.603   6.052  16.865  0.00  0.00    +0.000 A 
ATOM     20  N   UNL     1       5.651   6.012  17.770  0.00  0.00    +0.000 NA
ATOM     21  C   UNL     1       4.795   4.942  17.522  0.00  0.00    +0.000 A 
ATOM     22  C   UNL     1       5.162   4.146  16.455  0.00  0.00    +0.000 A 
ATOM     23  S   UNL     1       6.552   4.788  15.696  0.00  0.00    +0.000 S 
ATOM     24  H   UNL     1       8.332   6.776  16.150  0.00  0.00    +0.000 HD
BRANCH  21  25
ATOM     25  C   UNL     1       3.590   4.702  18.313  0.00  0.00    +0.000 A 
ATOM     26  C   UNL     1       2.496   4.044  17.760  0.00  0.00    +0.000 A 
ATOM     27  C   UNL     1       1.388   3.785  18.566  0.00  0.00    +0.000 A 
ATOM     28  C   UNL     1       1.402   4.194  19.894  0.00  0.00    +0.000 A 
ATOM     29  C   UNL     1       2.527   4.849  20.365  0.00  0.00    +0.000 A 
ATOM     30  N   UNL     1       3.616   5.112  19.609  0.00  0.00    +0.000 NA
ENDBRANCH  21  25
ENDBRANCH  17  18
ENDBRANCH  16  17
ENDBRANCH   1  16
TORSDOF 9
ENDMDL
