MODEL 1
REMARK VINA RESULT:      -8.6      0.000      0.000
REMARK  Name = 
REMARK  3 active torsions:
REMARK  status: ('A' for Active; 'I' for Inactive)
REMARK    1  A    between atoms: C_2  and  C_3
REMARK    2  A    between atoms: C_5  and  C_6
REMARK    3  A    between atoms: C_14  and  N_15
REMARK                            x       y       z     vdW  Elec       q    Type
REMARK                         _______ _______ _______ _____ _____    ______ ____
ROOT
ATOM      1  C   UNL     1       2.465   3.513  20.178  0.00  0.00    +0.000 C 
ATOM      2  N   UNL     1       2.117   4.933  20.088  0.00  0.00    +0.000 NA
ATOM      3  C   UNL     1       2.696   5.680  19.209  0.00  0.00    +0.000 C 
ATOM      4  C   UNL     1       3.768   5.215  18.264  0.00  0.00    +0.000 A 
ATOM      5  C   UNL     1       4.859   6.069  18.020  0.00  0.00    +0.000 A 
ATOM      6  C   UNL     1       5.767   5.768  16.996  0.00  0.00    +0.000 A 
ATOM      7  C   UNL     1       5.609   4.613  16.224  0.00  0.00    +0.000 A 
ATOM      8  C   UNL     1       4.544   3.752  16.490  0.00  0.00    +0.000 A 
ATOM      9  C   UNL     1       3.639   4.026  17.526  0.00  0.00    +0.000 A 
ATOM     10  N   UNL     1       2.640   3.070  17.738  0.00  0.00    +0.000 N 
ATOM     11  C   UNL     1       1.990   2.791  18.914  0.00  0.00    +0.000 C 
ATOM     12  O   UNL     1       1.135   1.903  18.891  0.00  0.00    +0.000 OA
ATOM     13  H   UNL     1       2.425   2.400  17.007  0.00  0.00    +0.000 HD
ENDROOT
BRANCH   3  14
ATOM     14  C   UNL     1       2.245   7.113  19.118  0.00  0.00    +0.000 A 
ATOM     15  C   UNL     1       1.728   7.742  20.257  0.00  0.00    +0.000 A 
ATOM     16  C   UNL     1       1.318   9.077  20.195  0.00  0.00    +0.000 A 
ATOM     17  C   UNL     1       1.416   9.786  18.999  0.00  0.00    +0.000 A 
ATOM     18  C   UNL     1       1.904   9.157  17.854  0.00  0.00    +0.000 A 
ATOM     19  C   UNL     1       2.303   7.820  17.908  0.00  0.00    +0.000 A 
ENDBRANCH   3  14
BRANCH   6  20
ATOM     20  N   UNL     1       6.867   6.696  16.699  0.00  0.00    +0.000 N 
ATOM     21  O   UNL     1       7.764   6.296  15.945  0.00  0.00    +0.000 OA
ATOM     22  O   UNL     1       6.834   7.813  17.229  0.00  0.00    +0.000 OA
ENDBRANCH   6  20
BRANCH   1  24
ATOM     23  N   UNL     1       1.160   2.408  22.372  0.00  0.00    +0.000 NA
ATOM     24  C   UNL     1       1.752   2.909  21.377  0.00  0.00    +0.000 C 
ENDBRANCH   1  24
TORSDOF 3
ENDMDL
MODEL 2
REMARK VINA RESULT:      -8.6      0.030      1.008
REMARK  Name = 
REMARK  3 active torsions:
REMARK  status: ('A' for Active; 'I' for Inactive)
REMARK    1  A    between atoms: C_2  and  C_3
REMARK    2  A    between atoms: C_5  and  C_6
REMARK    3  A    between atoms: C_14  and  N_15
REMARK                            x       y       z     vdW  Elec       q    Type
REMARK                         _______ _______ _______ _____ _____    ______ ____
ROOT
ATOM      1  C   UNL     1       2.462   3.508  20.175  0.00  0.00    +0.000 C 
ATOM      2  N   UNL     1       2.113   4.929  20.094  0.00  0.00    +0.000 NA
ATOM      3  C   UNL     1       2.692   5.682  19.219  0.00  0.00    +0.000 C 
ATOM      4  C   UNL     1       3.763   5.223  18.270  0.00  0.00    +0.000 A 
ATOM      5  C   UNL     1       4.853   6.078  18.030  0.00  0.00    +0.000 A 
ATOM      6  C   UNL     1       5.760   5.784  17.004  0.00  0.00    +0.000 A 
ATOM      7  C   UNL     1       5.602   4.634  16.225  0.00  0.00    +0.000 A 
ATOM      8  C   UNL     1       4.537   3.770  16.486  0.00  0.00    +0.000 A 
ATOM      9  C   UNL     1       3.633   4.038  17.525  0.00  0.00    +0.000 A 
ATOM     10  N   UNL     1       2.635   3.081  17.731  0.00  0.00    +0.000 N 
ATOM     11  C   UNL     1       1.985   2.794  18.906  0.00  0.00    +0.000 C 
ATOM     12  O   UNL     1       1.131   1.907  18.878  0.00  0.00    +0.000 OA
ATOM     13  H   UNL     1       2.419   2.415  16.996  0.00  0.00    +0.000 HD
ENDROOT
BRANCH   3  14
ATOM     14  C   UNL     1       2.240   7.114  19.137  0.00  0.00    +0.000 A 
ATOM     15  C   UNL     1       2.333   7.794  17.917  0.00  0.00    +0.000 A 
ATOM     16  C   UNL     1       1.904   9.121  17.818  0.00  0.00    +0.000 A 
ATOM     17  C   UNL     1       1.387   9.775  18.935  0.00  0.00    +0.000 A 
ATOM     18  C   UNL     1       1.316   9.113  20.160  0.00  0.00    +0.000 A 
ATOM     19  C   UNL     1       1.755   7.792  20.266  0.00  0.00    +0.000 A 
ENDBRANCH   3  14
BRANCH   6  20
ATOM     20  N   UNL     1       6.860   6.713  16.712  0.00  0.00    +0.000 N 
ATOM     21  O   UNL     1       7.766   6.313  15.969  0.00  0.00    +0.000 OA
ATOM     22  O   UNL     1       6.818   7.834  17.234  0.00  0.00    +0.000 OA
ENDBRANCH   6  20
BRANCH   1  24
ATOM     23  N   UNL     1       1.158   2.389  22.362  0.00  0.00    +0.000 NA
ATOM     24  C   UNL     1       1.749   2.897  21.370  0.00  0.00    +0.000 C 
ENDBRANCH   1  24
TORSDOF 3
ENDMDL
MODEL 3
REMARK VINA RESULT:      -8.2      2.771      5.993
REMARK  Name = 
REMARK  3 active torsions:
REMARK  status: ('A' for Active; 'I' for Inactive)
REMARK    1  A    between atoms: C_2  and  C_3
REMARK    2  A    between atoms: C_5  and  C_6
REMARK    3  A    between atoms: C_14  and  N_15
REMARK                            x       y       z     vdW  Elec       q    Type
REMARK                         _______ _______ _______ _____ _____    ______ ____
ROOT
ATOM      1  C   UNL     1       5.381   6.202  18.020  0.00  0.00    +0.000 C 
ATOM      2  N   UNL     1       4.513   5.210  18.657  0.00  0.00    +0.000 NA
ATOM      3  C   UNL     1       3.355   5.564  19.104  0.00  0.00    +0.000 C 
ATOM      4  C   UNL     1       2.817   6.966  19.068  0.00  0.00    +0.000 A 
ATOM      5  C   UNL     1       2.113   7.440  20.189  0.00  0.00    +0.000 A 
ATOM      6  C   UNL     1       1.420   8.656  20.117  0.00  0.00    +0.000 A 
ATOM      7  C   UNL     1       1.436   9.414  18.943  0.00  0.00    +0.000 A 
ATOM      8  C   UNL     1       2.162   8.957  17.842  0.00  0.00    +0.000 A 
ATOM      9  C   UNL     1       2.880   7.753  17.905  0.00  0.00    +0.000 A 
ATOM     10  N   UNL     1       3.612   7.415  16.762  0.00  0.00    +0.000 N 
ATOM     11  C   UNL     1       4.753   6.655  16.698  0.00  0.00    +0.000 C 
ATOM     12  O   UNL     1       5.251   6.473  15.585  0.00  0.00    +0.000 OA
ATOM     13  H   UNL     1       3.390   7.857  15.876  0.00  0.00    +0.000 HD
ENDROOT
BRANCH   3  14
ATOM     14  C   UNL     1       2.481   4.485  19.683  0.00  0.00    +0.000 A 
ATOM     15  C   UNL     1       1.511   3.881  18.875  0.00  0.00    +0.000 A 
ATOM     16  C   UNL     1       0.699   2.866  19.391  0.00  0.00    +0.000 A 
ATOM     17  C   UNL     1       0.849   2.454  20.714  0.00  0.00    +0.000 A 
ATOM     18  C   UNL     1       1.795   3.070  21.533  0.00  0.00    +0.000 A 
ATOM     19  C   UNL     1       2.598   4.093  21.025  0.00  0.00    +0.000 A 
ENDBRANCH   3  14
BRANCH   6  20
ATOM     20  N   UNL     1       0.631   9.117  21.268  0.00  0.00    +0.000 N 
ATOM     21  O   UNL     1       1.047  10.104  21.889  0.00  0.00    +0.000 OA
ATOM     22  O   UNL     1      -0.393   8.483  21.552  0.00  0.00    +0.000 OA
ENDBRANCH   6  20
BRANCH   1  24
ATOM     23  N   UNL     1       7.840   5.023  17.473  0.00  0.00    +0.000 NA
ATOM     24  C   UNL     1       6.725   5.558  17.721  0.00  0.00    +0.000 C 
ENDBRANCH   1  24
TORSDOF 3
ENDMDL
MODEL 4
REMARK VINA RESULT:      -8.2      2.775      5.943
REMARK  Name = 
REMARK  3 active torsions:
REMARK  status: ('A' for Active; 'I' for Inactive)
REMARK    1  A    between atoms: C_2  and  C_3
REMARK    2  A    between atoms: C_5  and  C_6
REMARK    3  A    between atoms: C_14  and  N_15
REMARK                            x       y       z     vdW  Elec       q    Type
REMARK                         _______ _______ _______ _____ _____    ______ ____
ROOT
ATOM      1  C   UNL     1       5.373   6.244  18.009  0.00  0.00    +0.000 C 
ATOM      2  N   UNL     1       4.508   5.245  18.640  0.00  0.00    +0.000 NA
ATOM      3  C   UNL     1       3.348   5.592  19.089  0.00  0.00    +0.000 C 
ATOM      4  C   UNL     1       2.804   6.992  19.059  0.00  0.00    +0.000 A 
ATOM      5  C   UNL     1       2.098   7.457  20.183  0.00  0.00    +0.000 A 
ATOM      6  C   UNL     1       1.400   8.670  20.118  0.00  0.00    +0.000 A 
ATOM      7  C   UNL     1       1.414   9.435  18.948  0.00  0.00    +0.000 A 
ATOM      8  C   UNL     1       2.142   8.986  17.845  0.00  0.00    +0.000 A 
ATOM      9  C   UNL     1       2.865   7.786  17.901  0.00  0.00    +0.000 A 
ATOM     10  N   UNL     1       3.599   7.457  16.757  0.00  0.00    +0.000 N 
ATOM     11  C   UNL     1       4.743   6.702  16.689  0.00  0.00    +0.000 C 
ATOM     12  O   UNL     1       5.242   6.528  15.576  0.00  0.00    +0.000 OA
ATOM     13  H   UNL     1       3.376   7.903  15.873  0.00  0.00    +0.000 HD
ENDROOT
BRANCH   3  14
ATOM     14  C   UNL     1       2.478   4.506  19.661  0.00  0.00    +0.000 A 
ATOM     15  C   UNL     1       2.651   4.123  20.996  0.00  0.00    +0.000 A 
ATOM     16  C   UNL     1       1.841   3.126  21.550  0.00  0.00    +0.000 A 
ATOM     17  C   UNL     1       0.863   2.506  20.774  0.00  0.00    +0.000 A 
ATOM     18  C   UNL     1       0.704   2.864  19.436  0.00  0.00    +0.000 A 
ATOM     19  C   UNL     1       1.519   3.850  18.876  0.00  0.00    +0.000 A 
ENDBRANCH   3  14
BRANCH   6  20
ATOM     20  N   UNL     1       0.609   9.121  21.271  0.00  0.00    +0.000 N 
ATOM     21  O   UNL     1       1.024  10.103  21.901  0.00  0.00    +0.000 OA
ATOM     22  O   UNL     1      -0.417   8.486  21.547  0.00  0.00    +0.000 OA
ENDBRANCH   6  20
BRANCH   1  24
ATOM     23  N   UNL     1       7.836   5.078  17.457  0.00  0.00    +0.000 NA
ATOM     24  C   UNL     1       6.719   5.607  17.707  0.00  0.00    +0.000 C 
ENDBRANCH   1  24
TORSDOF 3
ENDMDL
MODEL 5
REMARK VINA RESULT:      -8.1      1.702      5.297
REMARK  Name = 
REMARK  3 active torsions:
REMARK  status: ('A' for Active; 'I' for Inactive)
REMARK    1  A    between atoms: C_2  and  C_3
REMARK    2  A    between atoms: C_5  and  C_6
REMARK    3  A    between atoms: C_14  and  N_15
REMARK                            x       y       z     vdW  Elec       q    Type
REMARK                         _______ _______ _______ _____ _____    ______ ____
ROOT
ATOM      1  C   UNL     1       5.632   4.793  16.387  0.00  0.00    +0.000 C 
ATOM      2  N   UNL     1       4.747   5.889  16.787  0.00  0.00    +0.000 NA
ATOM      3  C   UNL     1       3.949   5.736  17.790  0.00  0.00    +0.000 C 
ATOM      4  C   UNL     1       3.809   4.469  18.585  0.00  0.00    +0.000 A 
ATOM      5  C   UNL     1       2.521   4.065  18.978  0.00  0.00    +0.000 A 
ATOM      6  C   UNL     1       2.364   3.013  19.890  0.00  0.00    +0.000 A 
ATOM      7  C   UNL     1       3.481   2.346  20.402  0.00  0.00    +0.000 A 
ATOM      8  C   UNL     1       4.757   2.727  19.986  0.00  0.00    +0.000 A 
ATOM      9  C   UNL     1       4.930   3.763  19.056  0.00  0.00    +0.000 A 
ATOM     10  N   UNL     1       6.248   4.029  18.672  0.00  0.00    +0.000 N 
ATOM     11  C   UNL     1       6.679   4.558  17.481  0.00  0.00    +0.000 C 
ATOM     12  O   UNL     1       7.893   4.715  17.336  0.00  0.00    +0.000 OA
ATOM     13  H   UNL     1       7.015   3.698  19.248  0.00  0.00    +0.000 HD
ENDROOT
BRANCH   3  14
ATOM     14  C   UNL     1       3.117   6.922  18.196  0.00  0.00    +0.000 A 
ATOM     15  C   UNL     1       2.590   6.978  19.492  0.00  0.00    +0.000 A 
ATOM     16  C   UNL     1       1.828   8.080  19.892  0.00  0.00    +0.000 A 
ATOM     17  C   UNL     1       1.584   9.124  19.001  0.00  0.00    +0.000 A 
ATOM     18  C   UNL     1       2.083   9.062  17.701  0.00  0.00    +0.000 A 
ATOM     19  C   UNL     1       2.834   7.957  17.293  0.00  0.00    +0.000 A 
ENDBRANCH   3  14
BRANCH   6  20
ATOM     20  N   UNL     1       1.020   2.638  20.349  0.00  0.00    +0.000 N 
ATOM     21  O   UNL     1       0.160   2.422  19.485  0.00  0.00    +0.000 OA
ATOM     22  O   UNL     1       0.828   2.570  21.569  0.00  0.00    +0.000 OA
ENDBRANCH   6  20
BRANCH   1  24
ATOM     23  N   UNL     1       6.946   5.511  14.044  0.00  0.00    +0.000 NA
ATOM     24  C   UNL     1       6.350   5.185  15.106  0.00  0.00    +0.000 C 
ENDBRANCH   1  24
TORSDOF 3
ENDMDL
MODEL 6
REMARK VINA RESULT:      -8.1      1.707      5.378
REMARK  Name = 
REMARK  3 active torsions:
REMARK  status: ('A' for Active; 'I' for Inactive)
REMARK    1  A    between atoms: C_2  and  C_3
REMARK    2  A    between atoms: C_5  and  C_6
REMARK    3  A    between atoms: C_14  and  N_15
REMARK                            x       y       z     vdW  Elec       q    Type
REMARK                         _______ _______ _______ _____ _____    ______ ____
ROOT
ATOM      1  C   UNL     1       5.556   4.784  16.365  0.00  0.00    +0.000 C 
ATOM      2  N   UNL     1       4.689   5.889  16.782  0.00  0.00    +0.000 NA
ATOM      3  C   UNL     1       3.914   5.745  17.804  0.00  0.00    +0.000 C 
ATOM      4  C   UNL     1       3.785   4.482  18.607  0.00  0.00    +0.000 A 
ATOM      5  C   UNL     1       2.502   4.089  19.032  0.00  0.00    +0.000 A 
ATOM      6  C   UNL     1       2.360   3.042  19.951  0.00  0.00    +0.000 A 
ATOM      7  C   UNL     1       3.484   2.367  20.439  0.00  0.00    +0.000 A 
ATOM      8  C   UNL     1       4.752   2.738  19.991  0.00  0.00    +0.000 A 
ATOM      9  C   UNL     1       4.911   3.769  19.053  0.00  0.00    +0.000 A 
ATOM     10  N   UNL     1       6.221   4.023  18.637  0.00  0.00    +0.000 N 
ATOM     11  C   UNL     1       6.627   4.545  17.434  0.00  0.00    +0.000 C 
ATOM     12  O   UNL     1       7.838   4.692  17.259  0.00  0.00    +0.000 OA
ATOM     13  H   UNL     1       6.999   3.688  19.196  0.00  0.00    +0.000 HD
ENDROOT
BRANCH   3  14
ATOM     14  C   UNL     1       3.102   6.939  18.226  0.00  0.00    +0.000 A 
ATOM     15  C   UNL     1       2.918   7.995  17.326  0.00  0.00    +0.000 A 
ATOM     16  C   UNL     1       2.153   9.106  17.696  0.00  0.00    +0.000 A 
ATOM     17  C   UNL     1       1.575   9.169  18.962  0.00  0.00    +0.000 A 
ATOM     18  C   UNL     1       1.776   8.133  19.873  0.00  0.00    +0.000 A 
ATOM     19  C   UNL     1       2.550   7.027  19.513  0.00  0.00    +0.000 A 
ENDBRANCH   3  14
BRANCH   6  20
ATOM     20  N   UNL     1       1.025   2.678  20.444  0.00  0.00    +0.000 N 
ATOM     21  O   UNL     1       0.129   2.515  19.604  0.00  0.00    +0.000 OA
ATOM     22  O   UNL     1       0.875   2.567  21.667  0.00  0.00    +0.000 OA
ENDBRANCH   6  20
BRANCH   1  24
ATOM     23  N   UNL     1       6.818   5.484  13.988  0.00  0.00    +0.000 NA
ATOM     24  C   UNL     1       6.246   5.167  15.066  0.00  0.00    +0.000 C 
ENDBRANCH   1  24
TORSDOF 3
ENDMDL
MODEL 7
REMARK VINA RESULT:      -7.4      0.990      1.125
REMARK  Name = 
REMARK  3 active torsions:
REMARK  status: ('A' for Active; 'I' for Inactive)
REMARK    1  A    between atoms: C_2  and  C_3
REMARK    2  A    between atoms: C_5  and  C_6
REMARK    3  A    between atoms: C_14  and  N_15
REMARK                            x       y       z     vdW  Elec       q    Type
REMARK                         _______ _______ _______ _____ _____    ______ ____
ROOT
ATOM      1  C   UNL     1       2.752   3.628  19.531  0.00  0.00    +0.000 C 
ATOM      2  N   UNL     1       2.300   5.021  19.523  0.00  0.00    +0.000 NA
ATOM      3  C   UNL     1       3.005   5.921  18.922  0.00  0.00    +0.000 C 
ATOM      4  C   UNL     1       4.320   5.664  18.243  0.00  0.00    +0.000 A 
ATOM      5  C   UNL     1       5.347   6.612  18.397  0.00  0.00    +0.000 A 
ATOM      6  C   UNL     1       6.509   6.517  17.618  0.00  0.00    +0.000 A 
ATOM      7  C   UNL     1       6.665   5.475  16.700  0.00  0.00    +0.000 A 
ATOM      8  C   UNL     1       5.658   4.518  16.572  0.00  0.00    +0.000 A 
ATOM      9  C   UNL     1       4.499   4.584  17.360  0.00  0.00    +0.000 A 
ATOM     10  N   UNL     1       3.578   3.546  17.186  0.00  0.00    +0.000 N 
ATOM     11  C   UNL     1       2.684   3.062  18.109  0.00  0.00    +0.000 C 
ATOM     12  O   UNL     1       1.954   2.134  17.757  0.00  0.00    +0.000 OA
ATOM     13  H   UNL     1       3.621   2.973  16.350  0.00  0.00    +0.000 HD
ENDROOT
BRANCH   3  14
ATOM     14  C   UNL     1       2.452   7.320  18.888  0.00  0.00    +0.000 A 
ATOM     15  C   UNL     1       1.850   7.847  20.036  0.00  0.00    +0.000 A 
ATOM     16  C   UNL     1       1.344   9.150  20.028  0.00  0.00    +0.000 A 
ATOM     17  C   UNL     1       1.432   9.928  18.875  0.00  0.00    +0.000 A 
ATOM     18  C   UNL     1       2.005   9.400  17.719  0.00  0.00    +0.000 A 
ATOM     19  C   UNL     1       2.500   8.094  17.719  0.00  0.00    +0.000 A 
ENDBRANCH   3  14
BRANCH   6  20
ATOM     20  N   UNL     1       7.551   7.546  17.733  0.00  0.00    +0.000 N 
ATOM     21  O   UNL     1       7.511   8.493  16.936  0.00  0.00    +0.000 OA
ATOM     22  O   UNL     1       8.410   7.397  18.611  0.00  0.00    +0.000 OA
ENDBRANCH   6  20
BRANCH   1  24
ATOM     23  N   UNL     1       1.054   2.144  21.156  0.00  0.00    +0.000 NA
ATOM     24  C   UNL     1       1.824   2.817  20.419  0.00  0.00    +0.000 C 
ENDBRANCH   1  24
TORSDOF 3
ENDMDL
MODEL 8
REMARK VINA RESULT:      -6.9      2.528      4.755
REMARK  Name = 
REMARK  3 active torsions:
REMARK  status: ('A' for Active; 'I' for Inactive)
REMARK    1  A    between atoms: C_2  and  C_3
REMARK    2  A    between atoms: C_5  and  C_6
REMARK    3  A    between atoms: C_14  and  N_15
REMARK                            x       y       z     vdW  Elec       q    Type
REMARK                         _______ _______ _______ _____ _____    ______ ____
ROOT
ATOM      1  C   UNL     1       1.677   3.931  19.270  0.00  0.00    +0.000 C 
ATOM      2  N   UNL     1       2.926   4.346  18.627  0.00  0.00    +0.000 NA
ATOM      3  C   UNL     1       3.253   5.594  18.608  0.00  0.00    +0.000 C 
ATOM      4  C   UNL     1       2.413   6.706  19.169  0.00  0.00    +0.000 A 
ATOM      5  C   UNL     1       2.324   7.908  18.443  0.00  0.00    +0.000 A 
ATOM      6  C   UNL     1       1.729   9.034  19.025  0.00  0.00    +0.000 A 
ATOM      7  C   UNL     1       1.203   8.971  20.319  0.00  0.00    +0.000 A 
ATOM      8  C   UNL     1       1.264   7.769  21.025  0.00  0.00    +0.000 A 
ATOM      9  C   UNL     1       1.837   6.625  20.449  0.00  0.00    +0.000 A 
ATOM     10  N   UNL     1       1.800   5.463  21.225  0.00  0.00    +0.000 N 
ATOM     11  C   UNL     1       1.781   4.164  20.781  0.00  0.00    +0.000 C 
ATOM     12  O   UNL     1       1.747   3.274  21.633  0.00  0.00    +0.000 OA
ATOM     13  H   UNL     1       1.643   5.532  22.225  0.00  0.00    +0.000 HD
ENDROOT
BRANCH   3  14
ATOM     14  C   UNL     1       4.580   5.949  17.995  0.00  0.00    +0.000 A 
ATOM     15  C   UNL     1       5.740   5.861  18.774  0.00  0.00    +0.000 A 
ATOM     16  C   UNL     1       6.984   6.172  18.218  0.00  0.00    +0.000 A 
ATOM     17  C   UNL     1       7.075   6.576  16.887  0.00  0.00    +0.000 A 
ATOM     18  C   UNL     1       5.922   6.693  16.113  0.00  0.00    +0.000 A 
ATOM     19  C   UNL     1       4.675   6.395  16.668  0.00  0.00    +0.000 A 
ENDBRANCH   3  14
BRANCH   6  20
ATOM     20  N   UNL     1       1.696  10.306  18.290  0.00  0.00    +0.000 N 
ATOM     21  O   UNL     1       2.584  10.504  17.450  0.00  0.00    +0.000 OA
ATOM     22  O   UNL     1       0.791  11.104  18.564  0.00  0.00    +0.000 OA
ENDBRANCH   6  20
BRANCH   1  24
ATOM     23  N   UNL     1       1.297   1.213  18.819  0.00  0.00    +0.000 NA
ATOM     24  C   UNL     1       1.469   2.445  19.024  0.00  0.00    +0.000 C 
ENDBRANCH   1  24
TORSDOF 3
ENDMDL
MODEL 9
REMARK VINA RESULT:      -6.9      2.512      4.826
REMARK  Name = 
REMARK  3 active torsions:
REMARK  status: ('A' for Active; 'I' for Inactive)
REMARK    1  A    between atoms: C_2  and  C_3
REMARK    2  A    between atoms: C_5  and  C_6
REMARK    3  A    between atoms: C_14  and  N_15
REMARK                            x       y       z     vdW  Elec       q    Type
REMARK                         _______ _______ _______ _____ _____    ______ ____
ROOT
ATOM      1  C   UNL     1       1.749   3.913  19.339  0.00  0.00    +0.000 C 
ATOM      2  N   UNL     1       2.996   4.329  18.693  0.00  0.00    +0.000 NA
ATOM      3  C   UNL     1       3.313   5.580  18.656  0.00  0.00    +0.000 C 
ATOM      4  C   UNL     1       2.462   6.693  19.199  0.00  0.00    +0.000 A 
ATOM      5  C   UNL     1       2.365   7.882  18.455  0.00  0.00    +0.000 A 
ATOM      6  C   UNL     1       1.759   9.013  19.019  0.00  0.00    +0.000 A 
ATOM      7  C   UNL     1       1.230   8.964  20.312  0.00  0.00    +0.000 A 
ATOM      8  C   UNL     1       1.299   7.773  21.036  0.00  0.00    +0.000 A 
ATOM      9  C   UNL     1       1.883   6.625  20.478  0.00  0.00    +0.000 A 
ATOM     10  N   UNL     1       1.853   5.474  21.271  0.00  0.00    +0.000 N 
ATOM     11  C   UNL     1       1.846   4.169  20.846  0.00  0.00    +0.000 C 
ATOM     12  O   UNL     1       1.817   3.292  21.711  0.00  0.00    +0.000 OA
ATOM     13  H   UNL     1       1.693   5.558  22.270  0.00  0.00    +0.000 HD
ENDROOT
BRANCH   3  14
ATOM     14  C   UNL     1       4.639   5.936  18.042  0.00  0.00    +0.000 A 
ATOM     15  C   UNL     1       4.697   6.274  16.685  0.00  0.00    +0.000 A 
ATOM     16  C   UNL     1       5.918   6.623  16.100  0.00  0.00    +0.000 A 
ATOM     17  C   UNL     1       7.084   6.632  16.865  0.00  0.00    +0.000 A 
ATOM     18  C   UNL     1       7.038   6.270  18.210  0.00  0.00    +0.000 A 
ATOM     19  C   UNL     1       5.822   5.908  18.795  0.00  0.00    +0.000 A 
ENDBRANCH   3  14
BRANCH   6  20
ATOM     20  N   UNL     1       1.718  10.273  18.265  0.00  0.00    +0.000 N 
ATOM     21  O   UNL     1       2.635  10.489  17.461  0.00  0.00    +0.000 OA
ATOM     22  O   UNL     1       0.777  11.044  18.487  0.00  0.00    +0.000 OA
ENDBRANCH   6  20
BRANCH   1  24
ATOM     23  N   UNL     1       1.393   1.185  18.927  0.00  0.00    +0.000 NA
ATOM     24  C   UNL     1       1.554   2.422  19.114  0.00  0.00    +0.000 C 
ENDBRANCH   1  24
TORSDOF 3
ENDMDL
