MODEL 1
REMARK VINA RESULT:      -4.9      0.000      0.000
REMARK  Name = 
REMARK  6 active torsions:
REMARK  status: ('A' for Active; 'I' for Inactive)
REMARK    1  A    between atoms: C_1  and  C_2
REMARK    2  A    between atoms: C_2  and  C_3
REMARK    3  A    between atoms: C_5  and  C_6
REMARK    4  A    between atoms: C_5  and  C_7
REMARK    5  A    between atoms: C_9  and  C_10
REMARK    6  A    between atoms: C_9  and  C_11
REMARK                            x       y       z     vdW  Elec       q    Type
REMARK                         _______ _______ _______ _____ _____    ______ ____
ROOT
ATOM      1  C   UNL     1       3.441   6.562  17.817  0.00  0.00    +0.000 C 
ATOM      2  C   UNL     1       4.045   5.214  18.213  0.00  0.00    +0.000 C 
ATOM      3  C   UNL     1       2.984   4.527  19.114  0.00  0.00    +0.000 C 
ATOM      4  S   UNL     1       4.231   4.063  16.818  0.00  0.00    +0.000 S 
ATOM      5  C   UNL     1       5.658   4.664  15.863  0.00  0.00    +0.000 C 
ATOM      6  C   UNL     1       5.401   5.939  15.058  0.00  0.00    +0.000 C 
ATOM      7  C   UNL     1       5.889   3.543  14.815  0.00  0.00    +0.000 C 
ATOM      8  S   UNL     1       7.206   4.701  16.815  0.00  0.00    +0.000 S 
ATOM      9  C   UNL     1       6.902   5.812  18.228  0.00  0.00    +0.000 C 
ATOM     10  C   UNL     1       6.908   7.302  17.878  0.00  0.00    +0.000 C 
ATOM     11  C   UNL     1       8.151   5.587  19.124  0.00  0.00    +0.000 C 
ATOM     12  S   UNL     1       5.510   5.322  19.293  0.00  0.00    +0.000 S 
ENDROOT
TORSDOF 0
ENDMDL
MODEL 2
REMARK VINA RESULT:      -4.9      0.054      3.805
REMARK  Name = 
REMARK  6 active torsions:
REMARK  status: ('A' for Active; 'I' for Inactive)
REMARK    1  A    between atoms: C_1  and  C_2
REMARK    2  A    between atoms: C_2  and  C_3
REMARK    3  A    between atoms: C_5  and  C_6
REMARK    4  A    between atoms: C_5  and  C_7
REMARK    5  A    between atoms: C_9  and  C_10
REMARK    6  A    between atoms: C_9  and  C_11
REMARK                            x       y       z     vdW  Elec       q    Type
REMARK                         _______ _______ _______ _____ _____    ______ ____
ROOT
ATOM      1  C   UNL     1       5.446   5.913  15.026  0.00  0.00    +0.000 C 
ATOM      2  C   UNL     1       5.652   4.656  15.874  0.00  0.00    +0.000 C 
ATOM      3  C   UNL     1       5.887   3.502  14.862  0.00  0.00    +0.000 C 
ATOM      4  S   UNL     1       7.183   4.684  16.853  0.00  0.00    +0.000 S 
ATOM      5  C   UNL     1       6.868   5.824  18.236  0.00  0.00    +0.000 C 
ATOM      6  C   UNL     1       6.832   7.304  17.851  0.00  0.00    +0.000 C 
ATOM      7  C   UNL     1       8.121   5.654  19.136  0.00  0.00    +0.000 C 
ATOM      8  S   UNL     1       5.488   5.311  19.301  0.00  0.00    +0.000 S 
ATOM      9  C   UNL     1       4.020   5.237  18.223  0.00  0.00    +0.000 C 
ATOM     10  C   UNL     1       3.428   6.600  17.859  0.00  0.00    +0.000 C 
ATOM     11  C   UNL     1       2.960   4.546  19.124  0.00  0.00    +0.000 C 
ATOM     12  S   UNL     1       4.180   4.112  16.801  0.00  0.00    +0.000 S 
ENDROOT
TORSDOF 0
ENDMDL
MODEL 3
REMARK VINA RESULT:      -4.8      0.102      3.793
REMARK  Name = 
REMARK  6 active torsions:
REMARK  status: ('A' for Active; 'I' for Inactive)
REMARK    1  A    between atoms: C_1  and  C_2
REMARK    2  A    between atoms: C_2  and  C_3
REMARK    3  A    between atoms: C_5  and  C_6
REMARK    4  A    between atoms: C_5  and  C_7
REMARK    5  A    between atoms: C_9  and  C_10
REMARK    6  A    between atoms: C_9  and  C_11
REMARK                            x       y       z     vdW  Elec       q    Type
REMARK                         _______ _______ _______ _____ _____    ______ ____
ROOT
ATOM      1  C   UNL     1       6.895   7.326  17.894  0.00  0.00    +0.000 C 
ATOM      2  C   UNL     1       6.882   5.838  18.250  0.00  0.00    +0.000 C 
ATOM      3  C   UNL     1       8.107   5.618  19.178  0.00  0.00    +0.000 C 
ATOM      4  S   UNL     1       5.469   5.351  19.286  0.00  0.00    +0.000 S 
ATOM      5  C   UNL     1       4.027   5.317  18.176  0.00  0.00    +0.000 C 
ATOM      6  C   UNL     1       3.516   6.692  17.746  0.00  0.00    +0.000 C 
ATOM      7  C   UNL     1       2.907   4.708  19.060  0.00  0.00    +0.000 C 
ATOM      8  S   UNL     1       4.195   4.138  16.803  0.00  0.00    +0.000 S 
ATOM      9  C   UNL     1       5.672   4.656  15.871  0.00  0.00    +0.000 C 
ATOM     10  C   UNL     1       5.466   5.887  14.985  0.00  0.00    +0.000 C 
ATOM     11  C   UNL     1       5.903   3.470  14.894  0.00  0.00    +0.000 C 
ATOM     12  S   UNL     1       7.205   4.716  16.850  0.00  0.00    +0.000 S 
ENDROOT
TORSDOF 0
ENDMDL
MODEL 4
REMARK VINA RESULT:      -4.6      2.394      4.949
REMARK  Name = 
REMARK  6 active torsions:
REMARK  status: ('A' for Active; 'I' for Inactive)
REMARK    1  A    between atoms: C_1  and  C_2
REMARK    2  A    between atoms: C_2  and  C_3
REMARK    3  A    between atoms: C_5  and  C_6
REMARK    4  A    between atoms: C_5  and  C_7
REMARK    5  A    between atoms: C_9  and  C_10
REMARK    6  A    between atoms: C_9  and  C_11
REMARK                            x       y       z     vdW  Elec       q    Type
REMARK                         _______ _______ _______ _____ _____    ______ ____
ROOT
ATOM      1  C   UNL     1       4.248   3.672  16.959  0.00  0.00    +0.000 C 
ATOM      2  C   UNL     1       4.750   4.218  18.297  0.00  0.00    +0.000 C 
ATOM      3  C   UNL     1       6.297   4.269  18.175  0.00  0.00    +0.000 C 
ATOM      4  S   UNL     1       4.287   5.950  18.595  0.00  0.00    +0.000 S 
ATOM      5  C   UNL     1       2.519   5.926  19.025  0.00  0.00    +0.000 C 
ATOM      6  C   UNL     1       1.577   5.650  17.852  0.00  0.00    +0.000 C 
ATOM      7  C   UNL     1       2.234   7.389  19.459  0.00  0.00    +0.000 C 
ATOM      8  S   UNL     1       2.146   4.946  20.509  0.00  0.00    +0.000 S 
ATOM      9  C   UNL     1       2.711   3.251  20.149  0.00  0.00    +0.000 C 
ATOM     10  C   UNL     1       1.794   2.460  19.214  0.00  0.00    +0.000 C 
ATOM     11  C   UNL     1       2.609   2.548  21.530  0.00  0.00    +0.000 C 
ATOM     12  S   UNL     1       4.475   3.115  19.722  0.00  0.00    +0.000 S 
ENDROOT
TORSDOF 0
ENDMDL
MODEL 5
REMARK VINA RESULT:      -4.6      2.347      4.201
REMARK  Name = 
REMARK  6 active torsions:
REMARK  status: ('A' for Active; 'I' for Inactive)
REMARK    1  A    between atoms: C_1  and  C_2
REMARK    2  A    between atoms: C_2  and  C_3
REMARK    3  A    between atoms: C_5  and  C_6
REMARK    4  A    between atoms: C_5  and  C_7
REMARK    5  A    between atoms: C_9  and  C_10
REMARK    6  A    between atoms: C_9  and  C_11
REMARK                            x       y       z     vdW  Elec       q    Type
REMARK                         _______ _______ _______ _____ _____    ______ ____
ROOT
ATOM      1  C   UNL     1       1.528   5.709  17.825  0.00  0.00    +0.000 C 
ATOM      2  C   UNL     1       2.522   5.971  18.959  0.00  0.00    +0.000 C 
ATOM      3  C   UNL     1       2.249   7.426  19.427  0.00  0.00    +0.000 C 
ATOM      4  S   UNL     1       2.204   4.977  20.447  0.00  0.00    +0.000 S 
ATOM      5  C   UNL     1       2.772   3.294  20.051  0.00  0.00    +0.000 C 
ATOM      6  C   UNL     1       1.872   2.525  19.083  0.00  0.00    +0.000 C 
ATOM      7  C   UNL     1       2.664   2.549  21.409  0.00  0.00    +0.000 C 
ATOM      8  S   UNL     1       4.539   3.201  19.638  0.00  0.00    +0.000 S 
ATOM      9  C   UNL     1       4.775   4.282  18.190  0.00  0.00    +0.000 C 
ATOM     10  C   UNL     1       4.282   3.692  16.867  0.00  0.00    +0.000 C 
ATOM     11  C   UNL     1       6.321   4.363  18.063  0.00  0.00    +0.000 C 
ATOM     12  S   UNL     1       4.270   6.012  18.445  0.00  0.00    +0.000 S 
ENDROOT
TORSDOF 0
ENDMDL
MODEL 6
REMARK VINA RESULT:      -4.5      2.406      4.006
REMARK  Name = 
REMARK  6 active torsions:
REMARK  status: ('A' for Active; 'I' for Inactive)
REMARK    1  A    between atoms: C_1  and  C_2
REMARK    2  A    between atoms: C_2  and  C_3
REMARK    3  A    between atoms: C_5  and  C_6
REMARK    4  A    between atoms: C_5  and  C_7
REMARK    5  A    between atoms: C_9  and  C_10
REMARK    6  A    between atoms: C_9  and  C_11
REMARK                            x       y       z     vdW  Elec       q    Type
REMARK                         _______ _______ _______ _____ _____    ______ ____
ROOT
ATOM      1  C   UNL     1       1.824   2.461  19.132  0.00  0.00    +0.000 C 
ATOM      2  C   UNL     1       2.719   3.257  20.084  0.00  0.00    +0.000 C 
ATOM      3  C   UNL     1       2.633   2.524  21.450  0.00  0.00    +0.000 C 
ATOM      4  S   UNL     1       4.485   3.170  19.663  0.00  0.00    +0.000 S 
ATOM      5  C   UNL     1       4.705   4.248  18.214  0.00  0.00    +0.000 C 
ATOM      6  C   UNL     1       4.145   3.688  16.906  0.00  0.00    +0.000 C 
ATOM      7  C   UNL     1       6.245   4.291  18.027  0.00  0.00    +0.000 C 
ATOM      8  S   UNL     1       4.250   5.980  18.521  0.00  0.00    +0.000 S 
ATOM      9  C   UNL     1       2.494   5.961  19.009  0.00  0.00    +0.000 C 
ATOM     10  C   UNL     1       1.514   5.754  17.852  0.00  0.00    +0.000 C 
ATOM     11  C   UNL     1       2.254   7.413  19.506  0.00  0.00    +0.000 C 
ATOM     12  S   UNL     1       2.123   4.936  20.466  0.00  0.00    +0.000 S 
ENDROOT
TORSDOF 0
ENDMDL
MODEL 7
REMARK VINA RESULT:      -4.4      1.945      4.274
REMARK  Name = 
REMARK  6 active torsions:
REMARK  status: ('A' for Active; 'I' for Inactive)
REMARK    1  A    between atoms: C_1  and  C_2
REMARK    2  A    between atoms: C_2  and  C_3
REMARK    3  A    between atoms: C_5  and  C_6
REMARK    4  A    between atoms: C_5  and  C_7
REMARK    5  A    between atoms: C_9  and  C_10
REMARK    6  A    between atoms: C_9  and  C_11
REMARK                            x       y       z     vdW  Elec       q    Type
REMARK                         _______ _______ _______ _____ _____    ______ ____
ROOT
ATOM      1  C   UNL     1       6.054   5.224  19.145  0.00  0.00    +0.000 C 
ATOM      2  C   UNL     1       5.406   5.247  17.760  0.00  0.00    +0.000 C 
ATOM      3  C   UNL     1       6.573   5.433  16.753  0.00  0.00    +0.000 C 
ATOM      4  S   UNL     1       4.673   3.655  17.274  0.00  0.00    +0.000 S 
ATOM      5  C   UNL     1       3.131   3.506  18.229  0.00  0.00    +0.000 C 
ATOM      6  C   UNL     1       3.324   3.209  19.716  0.00  0.00    +0.000 C 
ATOM      7  C   UNL     1       2.459   2.241  17.631  0.00  0.00    +0.000 C 
ATOM      8  S   UNL     1       1.939   4.836  17.897  0.00  0.00    +0.000 S 
ATOM      9  C   UNL     1       2.783   6.390  18.338  0.00  0.00    +0.000 C 
ATOM     10  C   UNL     1       2.886   6.655  19.842  0.00  0.00    +0.000 C 
ATOM     11  C   UNL     1       1.822   7.479  17.785  0.00  0.00    +0.000 C 
ATOM     12  S   UNL     1       4.339   6.690  17.441  0.00  0.00    +0.000 S 
ENDROOT
TORSDOF 0
ENDMDL
MODEL 8
REMARK VINA RESULT:      -4.4      2.527      4.074
REMARK  Name = 
REMARK  6 active torsions:
REMARK  status: ('A' for Active; 'I' for Inactive)
REMARK    1  A    between atoms: C_1  and  C_2
REMARK    2  A    between atoms: C_2  and  C_3
REMARK    3  A    between atoms: C_5  and  C_6
REMARK    4  A    between atoms: C_5  and  C_7
REMARK    5  A    between atoms: C_9  and  C_10
REMARK    6  A    between atoms: C_9  and  C_11
REMARK                            x       y       z     vdW  Elec       q    Type
REMARK                         _______ _______ _______ _____ _____    ______ ____
ROOT
ATOM      1  C   UNL     1       1.015   3.388  18.406  0.00  0.00    +0.000 C 
ATOM      2  C   UNL     1       1.819   4.114  19.487  0.00  0.00    +0.000 C 
ATOM      3  C   UNL     1       0.768   4.768  20.423  0.00  0.00    +0.000 C 
ATOM      4  S   UNL     1       2.734   2.994  20.588  0.00  0.00    +0.000 S 
ATOM      5  C   UNL     1       4.159   2.402  19.623  0.00  0.00    +0.000 C 
ATOM      6  C   UNL     1       3.817   1.394  18.526  0.00  0.00    +0.000 C 
ATOM      7  C   UNL     1       5.000   1.620  20.667  0.00  0.00    +0.000 C 
ATOM      8  S   UNL     1       5.267   3.733  19.073  0.00  0.00    +0.000 S 
ATOM      9  C   UNL     1       4.250   4.842  18.045  0.00  0.00    +0.000 C 
ATOM     10  C   UNL     1       3.949   4.311  16.641  0.00  0.00    +0.000 C 
ATOM     11  C   UNL     1       5.176   6.072  17.837  0.00  0.00    +0.000 C 
ATOM     12  S   UNL     1       2.793   5.534  18.887  0.00  0.00    +0.000 S 
ENDROOT
TORSDOF 0
ENDMDL
MODEL 9
REMARK VINA RESULT:      -4.4      1.937      3.639
REMARK  Name = 
REMARK  6 active torsions:
REMARK  status: ('A' for Active; 'I' for Inactive)
REMARK    1  A    between atoms: C_1  and  C_2
REMARK    2  A    between atoms: C_2  and  C_3
REMARK    3  A    between atoms: C_5  and  C_6
REMARK    4  A    between atoms: C_5  and  C_7
REMARK    5  A    between atoms: C_9  and  C_10
REMARK    6  A    between atoms: C_9  and  C_11
REMARK                            x       y       z     vdW  Elec       q    Type
REMARK                         _______ _______ _______ _____ _____    ______ ____
ROOT
ATOM      1  C   UNL     1       3.375   3.065  19.648  0.00  0.00    +0.000 C 
ATOM      2  C   UNL     1       3.218   3.424  18.169  0.00  0.00    +0.000 C 
ATOM      3  C   UNL     1       2.574   2.178  17.501  0.00  0.00    +0.000 C 
ATOM      4  S   UNL     1       2.006   4.745  17.867  0.00  0.00    +0.000 S 
ATOM      5  C   UNL     1       2.819   6.291  18.377  0.00  0.00    +0.000 C 
ATOM      6  C   UNL     1       2.963   6.472  19.888  0.00  0.00    +0.000 C 
ATOM      7  C   UNL     1       1.825   7.390  17.913  0.00  0.00    +0.000 C 
ATOM      8  S   UNL     1       4.339   6.653  17.449  0.00  0.00    +0.000 S 
ATOM      9  C   UNL     1       5.459   5.247  17.748  0.00  0.00    +0.000 C 
ATOM     10  C   UNL     1       6.123   5.243  19.126  0.00  0.00    +0.000 C 
ATOM     11  C   UNL     1       6.606   5.491  16.730  0.00  0.00    +0.000 C 
ATOM     12  S   UNL     1       4.787   3.626  17.263  0.00  0.00    +0.000 S 
ENDROOT
TORSDOF 0
ENDMDL
