MODEL 1
REMARK VINA RESULT:      -7.9      0.000      0.000
REMARK  Name = 
REMARK  7 active torsions:
REMARK  status: ('A' for Active; 'I' for Inactive)
REMARK    1  A    between atoms: C_2  and  C_26
REMARK    2  A    between atoms: N_3  and  C_4
REMARK    3  A    between atoms: N_7  and  S_8
REMARK    4  A    between atoms: S_8  and  C_11
REMARK    5  A    between atoms: C_14  and  C_15
REMARK    6  A    between atoms: C_15  and  N_16
REMARK    7  A    between atoms: C_28  and  C_29
REMARK                            x       y       z     vdW  Elec       q    Type
REMARK                         _______ _______ _______ _____ _____    ______ ____
ROOT
ATOM      1  C   UNL     1      -4.124  10.793  17.787  0.00  0.00    +0.000 C 
ATOM      2  C   UNL     1      -3.273   9.527  17.756  0.00  0.00    +0.000 C 
ATOM      3  C   UNL     1      -1.978   9.667  18.543  0.00  0.00    +0.000 C 
ATOM      4  N   UNL     1      -1.198  10.885  18.173  0.00  0.00    +0.000 NA
ATOM      5  C   UNL     1      -1.999  12.143  18.082  0.00  0.00    +0.000 C 
ATOM      6  C   UNL     1      -3.292  11.972  17.304  0.00  0.00    +0.000 C 
ENDROOT
BRANCH   1   9
ATOM      7  O   UNL     1      -6.874  10.775  18.171  0.00  0.00    +0.000 OA
ATOM      8  C   UNL     1      -6.171  11.010  19.155  0.00  0.00    +0.000 C 
ATOM      9  N   UNL     1      -4.788  11.022  19.073  0.00  0.00    +0.000 N 
ATOM     10  H   UNL     1      -4.270  11.117  19.940  0.00  0.00    +0.000 HD
BRANCH   8  11
ATOM     11  C   UNL     1      -6.778  11.301  20.453  0.00  0.00    +0.000 A 
ATOM     12  C   UNL     1      -6.504  12.451  21.235  0.00  0.00    +0.000 A 
ATOM     13  C   UNL     1      -7.213  12.282  22.395  0.00  0.00    +0.000 A 
ATOM     14  O   UNL     1      -7.914  11.117  22.313  0.00  0.00    +0.000 OA
ATOM     15  N   UNL     1      -7.654  10.496  21.085  0.00  0.00    +0.000 NA
BRANCH  13  16
ATOM     16  C   UNL     1      -7.159  13.253  23.563  0.00  0.00    +0.000 C 
ATOM     17  C   UNL     1      -6.169  14.396  23.552  0.00  0.00    +0.000 C 
ATOM     18  C   UNL     1      -7.615  14.679  23.328  0.00  0.00    +0.000 C 
ENDBRANCH  13  16
ENDBRANCH   8  11
ENDBRANCH   1   9
BRANCH   4  19
ATOM     19  S   UNL     1       0.176  11.138  19.219  0.00  0.00    +0.000 S 
ATOM     20  O   UNL     1       1.077  12.058  18.553  0.00  0.00    +0.000 OA
ATOM     21  O   UNL     1      -0.345  11.431  20.534  0.00  0.00    +0.000 OA
BRANCH  19  22
ATOM     22  C   UNL     1       0.974   9.562  19.262  0.00  0.00    +0.000 A 
ATOM     23  C   UNL     1       1.595   9.081  18.104  0.00  0.00    +0.000 A 
ATOM     24  C   UNL     1       2.305   7.880  18.147  0.00  0.00    +0.000 A 
ATOM     25  C   UNL     1       2.415   7.157  19.345  0.00  0.00    +0.000 A 
ATOM     26  C   UNL     1       1.783   7.648  20.501  0.00  0.00    +0.000 A 
ATOM     27  C   UNL     1       1.069   8.849  20.464  0.00  0.00    +0.000 A 
BRANCH  25  28
ATOM     28  C   UNL     1       3.178   5.846  19.382  0.00  0.00    +0.000 C 
BRANCH  28  29
ATOM     29  N   UNL     1       2.475   4.702  18.756  0.00  0.00    +0.000 NA
ATOM     30  C   UNL     1       3.438   3.684  18.301  0.00  0.00    +0.000 C 
ATOM     31  C   UNL     1       2.769   2.400  17.805  0.00  0.00    +0.000 C 
ATOM     32  C   UNL     1       1.846   1.822  18.868  0.00  0.00    +0.000 C 
ATOM     33  C   UNL     1       0.820   2.872  19.262  0.00  0.00    +0.000 C 
ATOM     34  C   UNL     1       1.500   4.161  19.722  0.00  0.00    +0.000 C 
ENDBRANCH  28  29
ENDBRANCH  25  28
ENDBRANCH  19  22
ENDBRANCH   4  19
TORSDOF 7
ENDMDL
MODEL 2
REMARK VINA RESULT:      -7.8      2.939      3.906
REMARK  Name = 
REMARK  7 active torsions:
REMARK  status: ('A' for Active; 'I' for Inactive)
REMARK    1  A    between atoms: C_2  and  C_26
REMARK    2  A    between atoms: N_3  and  C_4
REMARK    3  A    between atoms: N_7  and  S_8
REMARK    4  A    between atoms: S_8  and  C_11
REMARK    5  A    between atoms: C_14  and  C_15
REMARK    6  A    between atoms: C_15  and  N_16
REMARK    7  A    between atoms: C_28  and  C_29
REMARK                            x       y       z     vdW  Elec       q    Type
REMARK                         _______ _______ _______ _____ _____    ______ ____
ROOT
ATOM      1  C   UNL     1      -1.070  12.699  19.381  0.00  0.00    +0.000 C 
ATOM      2  C   UNL     1      -1.149  11.407  18.574  0.00  0.00    +0.000 C 
ATOM      3  C   UNL     1      -0.784  10.176  19.392  0.00  0.00    +0.000 C 
ATOM      4  N   UNL     1       0.516  10.318  20.112  0.00  0.00    +0.000 NA
ATOM      5  C   UNL     1       0.698  11.613  20.836  0.00  0.00    +0.000 C 
ATOM      6  C   UNL     1       0.313  12.822  20.003  0.00  0.00    +0.000 C 
ENDROOT
BRANCH   1   9
ATOM      7  O   UNL     1      -1.846  15.118  20.502  0.00  0.00    +0.000 OA
ATOM      8  C   UNL     1      -2.464  14.112  20.855  0.00  0.00    +0.000 C 
ATOM      9  N   UNL     1      -2.167  12.860  20.339  0.00  0.00    +0.000 N 
ATOM     10  H   UNL     1      -2.782  12.094  20.592  0.00  0.00    +0.000 HD
BRANCH   8  11
ATOM     11  C   UNL     1      -3.532  14.203  21.849  0.00  0.00    +0.000 A 
ATOM     12  C   UNL     1      -4.284  13.102  22.332  0.00  0.00    +0.000 A 
ATOM     13  C   UNL     1      -5.222  13.641  23.173  0.00  0.00    +0.000 A 
ATOM     14  O   UNL     1      -5.031  14.988  23.234  0.00  0.00    +0.000 OA
ATOM     15  N   UNL     1      -3.959  15.351  22.409  0.00  0.00    +0.000 NA
BRANCH  13  16
ATOM     16  C   UNL     1      -6.298  12.822  23.868  0.00  0.00    +0.000 C 
ATOM     17  C   UNL     1      -7.575  13.487  24.329  0.00  0.00    +0.000 C 
ATOM     18  C   UNL     1      -7.604  12.593  23.137  0.00  0.00    +0.000 C 
ENDBRANCH  13  16
ENDBRANCH   8  11
ENDBRANCH   1   9
BRANCH   4  19
ATOM     19  S   UNL     1       0.823   8.988  21.200  0.00  0.00    +0.000 S 
ATOM     20  O   UNL     1       1.822   9.420  22.157  0.00  0.00    +0.000 OA
ATOM     21  O   UNL     1      -0.463   8.498  21.639  0.00  0.00    +0.000 OA
BRANCH  19  22
ATOM     22  C   UNL     1       1.577   7.764  20.172  0.00  0.00    +0.000 A 
ATOM     23  C   UNL     1       2.155   8.154  18.959  0.00  0.00    +0.000 A 
ATOM     24  C   UNL     1       2.832   7.214  18.180  0.00  0.00    +0.000 A 
ATOM     25  C   UNL     1       2.951   5.883  18.608  0.00  0.00    +0.000 A 
ATOM     26  C   UNL     1       2.362   5.502  19.827  0.00  0.00    +0.000 A 
ATOM     27  C   UNL     1       1.682   6.438  20.611  0.00  0.00    +0.000 A 
BRANCH  25  28
ATOM     28  C   UNL     1       3.677   4.865  17.751  0.00  0.00    +0.000 C 
BRANCH  28  29
ATOM     29  N   UNL     1       5.154   4.979  17.772  0.00  0.00    +0.000 NA
ATOM     30  C   UNL     1       5.612   5.996  16.809  0.00  0.00    +0.000 C 
ATOM     31  C   UNL     1       7.112   6.287  16.906  0.00  0.00    +0.000 C 
ATOM     32  C   UNL     1       7.498   6.685  18.323  0.00  0.00    +0.000 C 
ATOM     33  C   UNL     1       7.078   5.582  19.282  0.00  0.00    +0.000 C 
ATOM     34  C   UNL     1       5.586   5.277  19.151  0.00  0.00    +0.000 C 
ENDBRANCH  28  29
ENDBRANCH  25  28
ENDBRANCH  19  22
ENDBRANCH   4  19
TORSDOF 7
ENDMDL
MODEL 3
REMARK VINA RESULT:      -7.8      5.974      9.596
REMARK  Name = 
REMARK  7 active torsions:
REMARK  status: ('A' for Active; 'I' for Inactive)
REMARK    1  A    between atoms: C_2  and  C_26
REMARK    2  A    between atoms: N_3  and  C_4
REMARK    3  A    between atoms: N_7  and  S_8
REMARK    4  A    between atoms: S_8  and  C_11
REMARK    5  A    between atoms: C_14  and  C_15
REMARK    6  A    between atoms: C_15  and  N_16
REMARK    7  A    between atoms: C_28  and  C_29
REMARK                            x       y       z     vdW  Elec       q    Type
REMARK                         _______ _______ _______ _____ _____    ______ ____
ROOT
ATOM      1  C   UNL     1       2.946   5.079  18.762  0.00  0.00    +0.000 C 
ATOM      2  C   UNL     1       4.070   4.862  19.770  0.00  0.00    +0.000 C 
ATOM      3  C   UNL     1       5.452   5.076  19.168  0.00  0.00    +0.000 C 
ATOM      4  N   UNL     1       5.664   4.309  17.905  0.00  0.00    +0.000 NA
ATOM      5  C   UNL     1       4.544   4.395  16.919  0.00  0.00    +0.000 C 
ATOM      6  C   UNL     1       3.177   4.193  17.548  0.00  0.00    +0.000 C 
ENDROOT
BRANCH   1   9
ATOM      7  O   UNL     1       1.724   6.918  20.447  0.00  0.00    +0.000 OA
ATOM      8  C   UNL     1       2.081   7.322  19.339  0.00  0.00    +0.000 C 
ATOM      9  N   UNL     1       2.717   6.489  18.433  0.00  0.00    +0.000 N 
ATOM     10  H   UNL     1       3.078   6.912  17.584  0.00  0.00    +0.000 HD
BRANCH   8  11
ATOM     11  C   UNL     1       1.830   8.704  18.934  0.00  0.00    +0.000 A 
ATOM     12  C   UNL     1       1.140   9.665  19.715  0.00  0.00    +0.000 A 
ATOM     13  C   UNL     1       1.058  10.784  18.931  0.00  0.00    +0.000 A 
ATOM     14  O   UNL     1       1.697  10.540  17.752  0.00  0.00    +0.000 OA
ATOM     15  N   UNL     1       2.196   9.231  17.749  0.00  0.00    +0.000 NA
BRANCH  13  16
ATOM     16  C   UNL     1       0.330  12.052  19.347  0.00  0.00    +0.000 C 
ATOM     17  C   UNL     1       0.777  13.393  18.810  0.00  0.00    +0.000 C 
ATOM     18  C   UNL     1      -0.485  12.784  18.301  0.00  0.00    +0.000 C 
ENDBRANCH  13  16
ENDBRANCH   8  11
ENDBRANCH   1   9
BRANCH   4  19
ATOM     19  S   UNL     1       7.170   4.718  17.123  0.00  0.00    +0.000 S 
ATOM     20  O   UNL     1       8.221   3.941  17.749  0.00  0.00    +0.000 OA
ATOM     21  O   UNL     1       6.938   4.641  15.699  0.00  0.00    +0.000 OA
BRANCH  19  22
ATOM     22  C   UNL     1       7.432   6.409  17.565  0.00  0.00    +0.000 A 
ATOM     23  C   UNL     1       8.338   6.713  18.587  0.00  0.00    +0.000 A 
ATOM     24  C   UNL     1       8.622   8.047  18.886  0.00  0.00    +0.000 A 
ATOM     25  C   UNL     1       8.019   9.086  18.161  0.00  0.00    +0.000 A 
ATOM     26  C   UNL     1       7.107   8.768  17.139  0.00  0.00    +0.000 A 
ATOM     27  C   UNL     1       6.817   7.434  16.836  0.00  0.00    +0.000 A 
BRANCH  25  28
ATOM     28  C   UNL     1       8.323  10.533  18.499  0.00  0.00    +0.000 C 
BRANCH  28  29
ATOM     29  N   UNL     1       9.729  10.795  18.887  0.00  0.00    +0.000 NA
ATOM     30  C   UNL     1      10.444  11.499  17.807  0.00  0.00    +0.000 C 
ATOM     31  C   UNL     1      11.849  11.955  18.212  0.00  0.00    +0.000 C 
ATOM     32  C   UNL     1      11.801  12.814  19.467  0.00  0.00    +0.000 C 
ATOM     33  C   UNL     1      11.124  12.032  20.581  0.00  0.00    +0.000 C 
ATOM     34  C   UNL     1       9.737  11.553  20.152  0.00  0.00    +0.000 C 
ENDBRANCH  28  29
ENDBRANCH  25  28
ENDBRANCH  19  22
ENDBRANCH   4  19
TORSDOF 7
ENDMDL
MODEL 4
REMARK VINA RESULT:      -7.7      5.389     12.117
REMARK  Name = 
REMARK  7 active torsions:
REMARK  status: ('A' for Active; 'I' for Inactive)
REMARK    1  A    between atoms: C_2  and  C_26
REMARK    2  A    between atoms: N_3  and  C_4
REMARK    3  A    between atoms: N_7  and  S_8
REMARK    4  A    between atoms: S_8  and  C_11
REMARK    5  A    between atoms: C_14  and  C_15
REMARK    6  A    between atoms: C_15  and  N_16
REMARK    7  A    between atoms: C_28  and  C_29
REMARK                            x       y       z     vdW  Elec       q    Type
REMARK                         _______ _______ _______ _____ _____    ______ ____
ROOT
ATOM      1  C   UNL     1       6.632   5.200  16.704  0.00  0.00    +0.000 C 
ATOM      2  C   UNL     1       6.592   4.395  18.000  0.00  0.00    +0.000 C 
ATOM      3  C   UNL     1       5.187   4.268  18.572  0.00  0.00    +0.000 C 
ATOM      4  N   UNL     1       4.485   5.579  18.696  0.00  0.00    +0.000 NA
ATOM      5  C   UNL     1       4.580   6.461  17.492  0.00  0.00    +0.000 C 
ATOM      6  C   UNL     1       5.988   6.559  16.933  0.00  0.00    +0.000 C 
ENDROOT
BRANCH   1   9
ATOM      7  O   UNL     1       7.715   5.279  14.148  0.00  0.00    +0.000 OA
ATOM      8  C   UNL     1       6.700   4.597  14.307  0.00  0.00    +0.000 C 
ATOM      9  N   UNL     1       6.095   4.476  15.548  0.00  0.00    +0.000 N 
ATOM     10  H   UNL     1       5.328   3.818  15.630  0.00  0.00    +0.000 HD
BRANCH   8  11
ATOM     11  C   UNL     1       6.088   3.898  13.179  0.00  0.00    +0.000 A 
ATOM     12  C   UNL     1       4.822   4.213  12.623  0.00  0.00    +0.000 A 
ATOM     13  C   UNL     1       4.603   3.268  11.655  0.00  0.00    +0.000 A 
ATOM     14  O   UNL     1       5.688   2.447  11.593  0.00  0.00    +0.000 OA
ATOM     15  N   UNL     1       6.635   2.844  12.545  0.00  0.00    +0.000 NA
BRANCH  13  16
ATOM     16  C   UNL     1       3.323   3.180  10.841  0.00  0.00    +0.000 C 
ATOM     17  C   UNL     1       2.957   4.291   9.882  0.00  0.00    +0.000 C 
ATOM     18  C   UNL     1       3.441   2.989   9.343  0.00  0.00    +0.000 C 
ENDBRANCH  13  16
ENDBRANCH   8  11
ENDBRANCH   1   9
BRANCH   4  19
ATOM     19  S   UNL     1       2.812   5.398  19.161  0.00  0.00    +0.000 S 
ATOM     20  O   UNL     1       2.104   4.805  18.044  0.00  0.00    +0.000 OA
ATOM     21  O   UNL     1       2.804   4.773  20.463  0.00  0.00    +0.000 OA
BRANCH  19  22
ATOM     22  C   UNL     1       2.236   7.061  19.325  0.00  0.00    +0.000 A 
ATOM     23  C   UNL     1       2.241   7.898  18.204  0.00  0.00    +0.000 A 
ATOM     24  C   UNL     1       1.705   9.183  18.297  0.00  0.00    +0.000 A 
ATOM     25  C   UNL     1       1.147   9.640  19.502  0.00  0.00    +0.000 A 
ATOM     26  C   UNL     1       1.152   8.791  20.622  0.00  0.00    +0.000 A 
ATOM     27  C   UNL     1       1.688   7.503  20.536  0.00  0.00    +0.000 A 
BRANCH  25  28
ATOM     28  C   UNL     1       0.578  11.043  19.599  0.00  0.00    +0.000 C 
BRANCH  28  29
ATOM     29  N   UNL     1      -0.556  11.186  20.542  0.00  0.00    +0.000 NA
ATOM     30  C   UNL     1      -0.177  10.717  21.887  0.00  0.00    +0.000 C 
ATOM     31  C   UNL     1      -1.245  11.000  22.947  0.00  0.00    +0.000 C 
ATOM     32  C   UNL     1      -1.600  12.480  22.979  0.00  0.00    +0.000 C 
ATOM     33  C   UNL     1      -2.056  12.913  21.596  0.00  0.00    +0.000 C 
ATOM     34  C   UNL     1      -0.996  12.594  20.541  0.00  0.00    +0.000 C 
ENDBRANCH  28  29
ENDBRANCH  25  28
ENDBRANCH  19  22
ENDBRANCH   4  19
TORSDOF 7
ENDMDL
MODEL 5
REMARK VINA RESULT:      -7.7      0.761      1.334
REMARK  Name = 
REMARK  7 active torsions:
REMARK  status: ('A' for Active; 'I' for Inactive)
REMARK    1  A    between atoms: C_2  and  C_26
REMARK    2  A    between atoms: N_3  and  C_4
REMARK    3  A    between atoms: N_7  and  S_8
REMARK    4  A    between atoms: S_8  and  C_11
REMARK    5  A    between atoms: C_14  and  C_15
REMARK    6  A    between atoms: C_15  and  N_16
REMARK    7  A    between atoms: C_28  and  C_29
REMARK                            x       y       z     vdW  Elec       q    Type
REMARK                         _______ _______ _______ _____ _____    ______ ____
ROOT
ATOM      1  C   UNL     1      -3.839  10.958  17.769  0.00  0.00    +0.000 C 
ATOM      2  C   UNL     1      -3.031   9.678  17.577  0.00  0.00    +0.000 C 
ATOM      3  C   UNL     1      -1.836   9.590  18.515  0.00  0.00    +0.000 C 
ATOM      4  N   UNL     1      -0.980  10.812  18.489  0.00  0.00    +0.000 NA
ATOM      5  C   UNL     1      -1.725  12.105  18.565  0.00  0.00    +0.000 C 
ATOM      6  C   UNL     1      -2.920  12.162  17.630  0.00  0.00    +0.000 C 
ENDROOT
BRANCH   1   9
ATOM      7  O   UNL     1      -6.611  11.125  17.835  0.00  0.00    +0.000 OA
ATOM      8  C   UNL     1      -6.025  11.070  18.918  0.00  0.00    +0.000 C 
ATOM      9  N   UNL     1      -4.646  10.964  18.993  0.00  0.00    +0.000 N 
ATOM     10  H   UNL     1      -4.238  10.817  19.910  0.00  0.00    +0.000 HD
BRANCH   8  11
ATOM     11  C   UNL     1      -6.772  11.128  20.173  0.00  0.00    +0.000 A 
ATOM     12  C   UNL     1      -6.905  12.284  20.983  0.00  0.00    +0.000 A 
ATOM     13  C   UNL     1      -7.603  11.877  22.090  0.00  0.00    +0.000 A 
ATOM     14  O   UNL     1      -7.915  10.559  21.949  0.00  0.00    +0.000 OA
ATOM     15  N   UNL     1      -7.404  10.080  20.736  0.00  0.00    +0.000 NA
BRANCH  13  16
ATOM     16  C   UNL     1      -7.916  12.786  23.267  0.00  0.00    +0.000 C 
ATOM     17  C   UNL     1      -6.800  13.522  23.974  0.00  0.00    +0.000 C 
ATOM     18  C   UNL     1      -7.729  14.278  23.087  0.00  0.00    +0.000 C 
ENDBRANCH  13  16
ENDBRANCH   8  11
ENDBRANCH   1   9
BRANCH   4  19
ATOM     19  S   UNL     1       0.267  10.779  19.711  0.00  0.00    +0.000 S 
ATOM     20  O   UNL     1       1.067  11.978  19.560  0.00  0.00    +0.000 OA
ATOM     21  O   UNL     1      -0.382  10.472  20.964  0.00  0.00    +0.000 OA
BRANCH  19  22
ATOM     22  C   UNL     1       1.281   9.409  19.245  0.00  0.00    +0.000 A 
ATOM     23  C   UNL     1       1.517   8.390  20.174  0.00  0.00    +0.000 A 
ATOM     24  C   UNL     1       2.241   7.259  19.792  0.00  0.00    +0.000 A 
ATOM     25  C   UNL     1       2.722   7.127  18.480  0.00  0.00    +0.000 A 
ATOM     26  C   UNL     1       2.481   8.159  17.557  0.00  0.00    +0.000 A 
ATOM     27  C   UNL     1       1.758   9.295  17.934  0.00  0.00    +0.000 A 
BRANCH  25  28
ATOM     28  C   UNL     1       3.518   5.901  18.076  0.00  0.00    +0.000 C 
BRANCH  28  29
ATOM     29  N   UNL     1       3.032   4.628  18.657  0.00  0.00    +0.000 NA
ATOM     30  C   UNL     1       1.833   4.154  17.942  0.00  0.00    +0.000 C 
ATOM     31  C   UNL     1       1.384   2.756  18.378  0.00  0.00    +0.000 C 
ATOM     32  C   UNL     1       2.519   1.752  18.239  0.00  0.00    +0.000 C 
ATOM     33  C   UNL     1       3.713   2.234  19.046  0.00  0.00    +0.000 C 
ATOM     34  C   UNL     1       4.130   3.644  18.625  0.00  0.00    +0.000 C 
ENDBRANCH  28  29
ENDBRANCH  25  28
ENDBRANCH  19  22
ENDBRANCH   4  19
TORSDOF 7
ENDMDL
MODEL 6
REMARK VINA RESULT:      -7.5      2.146      3.044
REMARK  Name = 
REMARK  7 active torsions:
REMARK  status: ('A' for Active; 'I' for Inactive)
REMARK    1  A    between atoms: C_2  and  C_26
REMARK    2  A    between atoms: N_3  and  C_4
REMARK    3  A    between atoms: N_7  and  S_8
REMARK    4  A    between atoms: S_8  and  C_11
REMARK    5  A    between atoms: C_14  and  C_15
REMARK    6  A    between atoms: C_15  and  N_16
REMARK    7  A    between atoms: C_28  and  C_29
REMARK                            x       y       z     vdW  Elec       q    Type
REMARK                         _______ _______ _______ _____ _____    ______ ____
ROOT
ATOM      1  C   UNL     1      -1.757  12.123  18.894  0.00  0.00    +0.000 C 
ATOM      2  C   UNL     1      -1.549  10.743  18.277  0.00  0.00    +0.000 C 
ATOM      3  C   UNL     1      -1.034   9.720  19.280  0.00  0.00    +0.000 C 
ATOM      4  N   UNL     1       0.165  10.192  20.032  0.00  0.00    +0.000 NA
ATOM      5  C   UNL     1       0.064  11.582  20.571  0.00  0.00    +0.000 C 
ATOM      6  C   UNL     1      -0.466  12.580  19.556  0.00  0.00    +0.000 C 
ENDROOT
BRANCH   1   9
ATOM      7  O   UNL     1      -4.376  11.727  18.058  0.00  0.00    +0.000 OA
ATOM      8  C   UNL     1      -4.202  12.008  19.246  0.00  0.00    +0.000 C 
ATOM      9  N   UNL     1      -2.932  12.205  19.766  0.00  0.00    +0.000 N 
ATOM     10  H   UNL     1      -2.854  12.328  20.770  0.00  0.00    +0.000 HD
BRANCH   8  11
ATOM     11  C   UNL     1      -5.339  12.158  20.151  0.00  0.00    +0.000 A 
ATOM     12  C   UNL     1      -5.334  12.937  21.336  0.00  0.00    +0.000 A 
ATOM     13  C   UNL     1      -6.558  12.731  21.914  0.00  0.00    +0.000 A 
ATOM     14  O   UNL     1      -7.288  11.906  21.112  0.00  0.00    +0.000 OA
ATOM     15  N   UNL     1      -6.529  11.548  19.990  0.00  0.00    +0.000 NA
BRANCH  13  16
ATOM     16  C   UNL     1      -6.966  13.324  23.253  0.00  0.00    +0.000 C 
ATOM     17  C   UNL     1      -6.485  14.702  23.649  0.00  0.00    +0.000 C 
ATOM     18  C   UNL     1      -7.908  14.510  23.251  0.00  0.00    +0.000 C 
ENDBRANCH  13  16
ENDBRANCH   8  11
ENDBRANCH   1   9
BRANCH   4  19
ATOM     19  S   UNL     1       0.621   9.097  21.313  0.00  0.00    +0.000 S 
ATOM     20  O   UNL     1       1.563   9.787  22.172  0.00  0.00    +0.000 OA
ATOM     21  O   UNL     1      -0.601   8.542  21.847  0.00  0.00    +0.000 OA
BRANCH  19  22
ATOM     22  C   UNL     1       1.510   7.817  20.481  0.00  0.00    +0.000 A 
ATOM     23  C   UNL     1       1.540   6.534  21.039  0.00  0.00    +0.000 A 
ATOM     24  C   UNL     1       2.162   5.493  20.348  0.00  0.00    +0.000 A 
ATOM     25  C   UNL     1       2.745   5.716  19.091  0.00  0.00    +0.000 A 
ATOM     26  C   UNL     1       2.712   7.010  18.542  0.00  0.00    +0.000 A 
ATOM     27  C   UNL     1       2.092   8.057  19.230  0.00  0.00    +0.000 A 
BRANCH  25  28
ATOM     28  C   UNL     1       3.429   4.582  18.351  0.00  0.00    +0.000 C 
BRANCH  28  29
ATOM     29  N   UNL     1       4.436   5.013  17.353  0.00  0.00    +0.000 NA
ATOM     30  C   UNL     1       5.559   5.704  18.012  0.00  0.00    +0.000 C 
ATOM     31  C   UNL     1       6.715   6.019  17.059  0.00  0.00    +0.000 C 
ATOM     32  C   UNL     1       7.202   4.759  16.360  0.00  0.00    +0.000 C 
ATOM     33  C   UNL     1       6.036   4.111  15.631  0.00  0.00    +0.000 C 
ATOM     34  C   UNL     1       4.876   3.833  16.586  0.00  0.00    +0.000 C 
ENDBRANCH  28  29
ENDBRANCH  25  28
ENDBRANCH  19  22
ENDBRANCH   4  19
TORSDOF 7
ENDMDL
MODEL 7
REMARK VINA RESULT:      -7.5      2.979      3.980
REMARK  Name = 
REMARK  7 active torsions:
REMARK  status: ('A' for Active; 'I' for Inactive)
REMARK    1  A    between atoms: C_2  and  C_26
REMARK    2  A    between atoms: N_3  and  C_4
REMARK    3  A    between atoms: N_7  and  S_8
REMARK    4  A    between atoms: S_8  and  C_11
REMARK    5  A    between atoms: C_14  and  C_15
REMARK    6  A    between atoms: C_15  and  N_16
REMARK    7  A    between atoms: C_28  and  C_29
REMARK                            x       y       z     vdW  Elec       q    Type
REMARK                         _______ _______ _______ _____ _____    ______ ____
ROOT
ATOM      1  C   UNL     1      -1.327  12.692  19.357  0.00  0.00    +0.000 C 
ATOM      2  C   UNL     1      -1.490  11.365  18.623  0.00  0.00    +0.000 C 
ATOM      3  C   UNL     1      -1.029  10.173  19.450  0.00  0.00    +0.000 C 
ATOM      4  N   UNL     1       0.343  10.346  20.011  0.00  0.00    +0.000 NA
ATOM      5  C   UNL     1       0.599  11.673  20.651  0.00  0.00    +0.000 C 
ATOM      6  C   UNL     1       0.116  12.843  19.814  0.00  0.00    +0.000 C 
ENDROOT
BRANCH   1   9
ATOM      7  O   UNL     1      -1.873  15.137  20.556  0.00  0.00    +0.000 OA
ATOM      8  C   UNL     1      -2.496  14.157  20.970  0.00  0.00    +0.000 C 
ATOM      9  N   UNL     1      -2.311  12.897  20.425  0.00  0.00    +0.000 N 
ATOM     10  H   UNL     1      -2.930  12.157  20.739  0.00  0.00    +0.000 HD
BRANCH   8  11
ATOM     11  C   UNL     1      -3.449  14.290  22.070  0.00  0.00    +0.000 A 
ATOM     12  C   UNL     1      -4.859  14.310  21.921  0.00  0.00    +0.000 A 
ATOM     13  C   UNL     1      -5.357  14.533  23.177  0.00  0.00    +0.000 A 
ATOM     14  O   UNL     1      -4.316  14.606  24.053  0.00  0.00    +0.000 OA
ATOM     15  N   UNL     1      -3.107  14.443  23.364  0.00  0.00    +0.000 NA
BRANCH  13  16
ATOM     16  C   UNL     1      -6.837  14.700  23.478  0.00  0.00    +0.000 C 
ATOM     17  C   UNL     1      -7.844  13.741  22.882  0.00  0.00    +0.000 C 
ATOM     18  C   UNL     1      -7.515  13.650  24.333  0.00  0.00    +0.000 C 
ENDBRANCH  13  16
ENDBRANCH   8  11
ENDBRANCH   1   9
BRANCH   4  19
ATOM     19  S   UNL     1       0.777   9.067  21.117  0.00  0.00    +0.000 S 
ATOM     20  O   UNL     1       1.694   9.618  22.094  0.00  0.00    +0.000 OA
ATOM     21  O   UNL     1      -0.454   8.432  21.529  0.00  0.00    +0.000 OA
BRANCH  19  22
ATOM     22  C   UNL     1       1.693   7.934  20.116  0.00  0.00    +0.000 A 
ATOM     23  C   UNL     1       1.791   6.597  20.516  0.00  0.00    +0.000 A 
ATOM     24  C   UNL     1       2.434   5.673  19.691  0.00  0.00    +0.000 A 
ATOM     25  C   UNL     1       2.972   6.069  18.457  0.00  0.00    +0.000 A 
ATOM     26  C   UNL     1       2.871   7.416  18.068  0.00  0.00    +0.000 A 
ATOM     27  C   UNL     1       2.229   8.347  18.890  0.00  0.00    +0.000 A 
BRANCH  25  28
ATOM     28  C   UNL     1       3.680   5.062  17.571  0.00  0.00    +0.000 C 
BRANCH  28  29
ATOM     29  N   UNL     1       5.159   5.114  17.635  0.00  0.00    +0.000 NA
ATOM     30  C   UNL     1       5.682   6.172  16.753  0.00  0.00    +0.000 C 
ATOM     31  C   UNL     1       7.189   6.394  16.906  0.00  0.00    +0.000 C 
ATOM     32  C   UNL     1       7.553   6.682  18.355  0.00  0.00    +0.000 C 
ATOM     33  C   UNL     1       7.064   5.537  19.228  0.00  0.00    +0.000 C 
ATOM     34  C   UNL     1       5.565   5.303  19.041  0.00  0.00    +0.000 C 
ENDBRANCH  28  29
ENDBRANCH  25  28
ENDBRANCH  19  22
ENDBRANCH   4  19
TORSDOF 7
ENDMDL
MODEL 8
REMARK VINA RESULT:      -7.5      5.571     12.332
REMARK  Name = 
REMARK  7 active torsions:
REMARK  status: ('A' for Active; 'I' for Inactive)
REMARK    1  A    between atoms: C_2  and  C_26
REMARK    2  A    between atoms: N_3  and  C_4
REMARK    3  A    between atoms: N_7  and  S_8
REMARK    4  A    between atoms: S_8  and  C_11
REMARK    5  A    between atoms: C_14  and  C_15
REMARK    6  A    between atoms: C_15  and  N_16
REMARK    7  A    between atoms: C_28  and  C_29
REMARK                            x       y       z     vdW  Elec       q    Type
REMARK                         _______ _______ _______ _____ _____    ______ ____
ROOT
ATOM      1  C   UNL     1       6.827   5.312  16.422  0.00  0.00    +0.000 C 
ATOM      2  C   UNL     1       6.912   4.553  17.743  0.00  0.00    +0.000 C 
ATOM      3  C   UNL     1       5.543   4.220  18.320  0.00  0.00    +0.000 C 
ATOM      4  N   UNL     1       4.639   5.405  18.402  0.00  0.00    +0.000 NA
ATOM      5  C   UNL     1       4.596   6.252  17.172  0.00  0.00    +0.000 C 
ATOM      6  C   UNL     1       5.973   6.557  16.608  0.00  0.00    +0.000 C 
ENDROOT
BRANCH   1   9
ATOM      7  O   UNL     1       7.811   5.560  13.836  0.00  0.00    +0.000 OA
ATOM      8  C   UNL     1       6.957   4.693  14.032  0.00  0.00    +0.000 C 
ATOM      9  N   UNL     1       6.418   4.475  15.290  0.00  0.00    +0.000 N 
ATOM     10  H   UNL     1       5.800   3.678  15.401  0.00  0.00    +0.000 HD
BRANCH   8  11
ATOM     11  C   UNL     1       6.470   3.865  12.930  0.00  0.00    +0.000 A 
ATOM     12  C   UNL     1       5.162   3.930  12.386  0.00  0.00    +0.000 A 
ATOM     13  C   UNL     1       5.108   2.937  11.444  0.00  0.00    +0.000 A 
ATOM     14  O   UNL     1       6.324   2.325  11.384  0.00  0.00    +0.000 OA
ATOM     15  N   UNL     1       7.193   2.912  12.312  0.00  0.00    +0.000 NA
BRANCH  13  16
ATOM     16  C   UNL     1       3.857   2.597  10.651  0.00  0.00    +0.000 C 
ATOM     17  C   UNL     1       2.510   3.120  11.100  0.00  0.00    +0.000 C 
ATOM     18  C   UNL     1       3.163   3.713   9.898  0.00  0.00    +0.000 C 
ENDBRANCH  13  16
ENDBRANCH   8  11
ENDBRANCH   1   9
BRANCH   4  19
ATOM     19  S   UNL     1       3.016   4.972  18.875  0.00  0.00    +0.000 S 
ATOM     20  O   UNL     1       2.327   4.483  17.697  0.00  0.00    +0.000 OA
ATOM     21  O   UNL     1       3.126   4.158  20.063  0.00  0.00    +0.000 OA
BRANCH  19  22
ATOM     22  C   UNL     1       2.275   6.517  19.312  0.00  0.00    +0.000 A 
ATOM     23  C   UNL     1       1.743   6.678  20.596  0.00  0.00    +0.000 A 
ATOM     24  C   UNL     1       1.237   7.919  20.985  0.00  0.00    +0.000 A 
ATOM     25  C   UNL     1       1.270   9.012  20.106  0.00  0.00    +0.000 A 
ATOM     26  C   UNL     1       1.804   8.837  18.817  0.00  0.00    +0.000 A 
ATOM     27  C   UNL     1       2.311   7.596  18.421  0.00  0.00    +0.000 A 
BRANCH  25  28
ATOM     28  C   UNL     1       0.708  10.355  20.531  0.00  0.00    +0.000 C 
BRANCH  28  29
ATOM     29  N   UNL     1       0.613  11.358  19.445  0.00  0.00    +0.000 NA
ATOM     30  C   UNL     1      -0.788  11.767  19.235  0.00  0.00    +0.000 C 
ATOM     31  C   UNL     1      -0.935  12.928  18.248  0.00  0.00    +0.000 C 
ATOM     32  C   UNL     1      -0.092  14.119  18.680  0.00  0.00    +0.000 C 
ATOM     33  C   UNL     1       1.357  13.681  18.816  0.00  0.00    +0.000 C 
ATOM     34  C   UNL     1       1.487  12.499  19.777  0.00  0.00    +0.000 C 
ENDBRANCH  28  29
ENDBRANCH  25  28
ENDBRANCH  19  22
ENDBRANCH   4  19
TORSDOF 7
ENDMDL
MODEL 9
REMARK VINA RESULT:      -7.4      5.378     12.241
REMARK  Name = 
REMARK  7 active torsions:
REMARK  status: ('A' for Active; 'I' for Inactive)
REMARK    1  A    between atoms: C_2  and  C_26
REMARK    2  A    between atoms: N_3  and  C_4
REMARK    3  A    between atoms: N_7  and  S_8
REMARK    4  A    between atoms: S_8  and  C_11
REMARK    5  A    between atoms: C_14  and  C_15
REMARK    6  A    between atoms: C_15  and  N_16
REMARK    7  A    between atoms: C_28  and  C_29
REMARK                            x       y       z     vdW  Elec       q    Type
REMARK                         _______ _______ _______ _____ _____    ______ ____
ROOT
ATOM      1  C   UNL     1       6.762   5.426  16.608  0.00  0.00    +0.000 C 
ATOM      2  C   UNL     1       6.680   4.697  17.945  0.00  0.00    +0.000 C 
ATOM      3  C   UNL     1       5.247   4.490  18.417  0.00  0.00    +0.000 C 
ATOM      4  N   UNL     1       4.441   5.746  18.404  0.00  0.00    +0.000 NA
ATOM      5  C   UNL     1       4.565   6.562  17.158  0.00  0.00    +0.000 C 
ATOM      6  C   UNL     1       6.002   6.740  16.701  0.00  0.00    +0.000 C 
ENDROOT
BRANCH   1   9
ATOM      7  O   UNL     1       7.885   5.608  14.074  0.00  0.00    +0.000 OA
ATOM      8  C   UNL     1       6.987   4.780  14.232  0.00  0.00    +0.000 C 
ATOM      9  N   UNL     1       6.376   4.597  15.462  0.00  0.00    +0.000 N 
ATOM     10  H   UNL     1       5.720   3.828  15.548  0.00  0.00    +0.000 HD
BRANCH   8  11
ATOM     11  C   UNL     1       6.521   3.963  13.113  0.00  0.00    +0.000 A 
ATOM     12  C   UNL     1       5.216   4.016  12.561  0.00  0.00    +0.000 A 
ATOM     13  C   UNL     1       5.185   3.038  11.601  0.00  0.00    +0.000 A 
ATOM     14  O   UNL     1       6.411   2.448  11.540  0.00  0.00    +0.000 OA
ATOM     15  N   UNL     1       7.264   3.033  12.484  0.00  0.00    +0.000 NA
BRANCH  13  16
ATOM     16  C   UNL     1       3.945   2.691  10.794  0.00  0.00    +0.000 C 
ATOM     17  C   UNL     1       2.604   3.276  11.177  0.00  0.00    +0.000 C 
ATOM     18  C   UNL     1       3.305   3.783   9.963  0.00  0.00    +0.000 C 
ENDBRANCH  13  16
ENDBRANCH   8  11
ENDBRANCH   1   9
BRANCH   4  19
ATOM     19  S   UNL     1       2.755   5.458  18.753  0.00  0.00    +0.000 S 
ATOM     20  O   UNL     1       2.124   4.989  17.535  0.00  0.00    +0.000 OA
ATOM     21  O   UNL     1       2.704   4.674  19.965  0.00  0.00    +0.000 OA
BRANCH  19  22
ATOM     22  C   UNL     1       2.111   7.069  19.091  0.00  0.00    +0.000 A 
ATOM     23  C   UNL     1       1.746   7.395  20.402  0.00  0.00    +0.000 A 
ATOM     24  C   UNL     1       1.321   8.691  20.701  0.00  0.00    +0.000 A 
ATOM     25  C   UNL     1       1.270   9.675  19.701  0.00  0.00    +0.000 A 
ATOM     26  C   UNL     1       1.635   9.334  18.387  0.00  0.00    +0.000 A 
ATOM     27  C   UNL     1       2.060   8.037  18.082  0.00  0.00    +0.000 A 
BRANCH  25  28
ATOM     28  C   UNL     1       0.796  11.077  20.030  0.00  0.00    +0.000 C 
BRANCH  28  29
ATOM     29  N   UNL     1      -0.542  11.146  20.662  0.00  0.00    +0.000 NA
ATOM     30  C   UNL     1      -0.424  11.434  22.103  0.00  0.00    +0.000 C 
ATOM     31  C   UNL     1      -1.773  11.691  22.779  0.00  0.00    +0.000 C 
ATOM     32  C   UNL     1      -2.531  12.806  22.074  0.00  0.00    +0.000 C 
ATOM     33  C   UNL     1      -2.700  12.445  20.607  0.00  0.00    +0.000 C 
ATOM     34  C   UNL     1      -1.349  12.157  19.952  0.00  0.00    +0.000 C 
ENDBRANCH  28  29
ENDBRANCH  25  28
ENDBRANCH  19  22
ENDBRANCH   4  19
TORSDOF 7
ENDMDL
