MODEL 1
REMARK VINA RESULT:      -8.2      0.000      0.000
REMARK  Name = 
REMARK  7 active torsions:
REMARK  status: ('A' for Active; 'I' for Inactive)
REMARK    1  A    between atoms: C_1  and  S_2
REMARK    2  A    between atoms: S_2  and  C_3
REMARK    3  A    between atoms: N_6  and  C_7
REMARK    4  A    between atoms: C_7  and  C_8
REMARK    5  A    between atoms: N_17  and  C_18
REMARK    6  A    between atoms: C_18  and  C_19
REMARK    7  A    between atoms: C_19  and  C_21
REMARK                            x       y       z     vdW  Elec       q    Type
REMARK                         _______ _______ _______ _____ _____    ______ ____
ROOT
ATOM      1  C   UNL     1       2.874   4.685  19.518  0.00  0.00    +0.000 A 
ATOM      2  N   UNL     1       3.704   4.496  18.462  0.00  0.00    +0.000 NA
ATOM      3  C   UNL     1       3.969   5.529  17.627  0.00  0.00    +0.000 A 
ATOM      4  N   UNL     1       4.872   5.403  16.576  0.00  0.00    +0.000 N 
ATOM      5  C   UNL     1       3.342   6.750  17.896  0.00  0.00    +0.000 A 
ATOM      6  C   UNL     1       3.312   8.053  17.349  0.00  0.00    +0.000 A 
ATOM      7  N   UNL     1       2.546   8.895  18.047  0.00  0.00    +0.000 NA
ATOM      8  N   UNL     1       2.077   8.124  19.057  0.00  0.00    +0.000 N 
ATOM      9  C   UNL     1       2.513   6.825  19.000  0.00  0.00    +0.000 A 
ATOM     10  N   UNL     1       2.240   5.827  19.856  0.00  0.00    +0.000 NA
ATOM     11  H   UNL     1       4.799   6.138  15.883  0.00  0.00    +0.000 HD
ENDROOT
BRANCH   1  13
ATOM     12  C   UNL     1       4.182   2.363  20.205  0.00  0.00    +0.000 C 
ATOM     13  S   UNL     1       2.681   3.291  20.613  0.00  0.00    +0.000 S 
ENDBRANCH   1  13
BRANCH   4  14
ATOM     14  C   UNL     1       5.067   4.084  16.001  0.00  0.00    +0.000 C 
BRANCH  14  15
ATOM     15  C   UNL     1       5.849   4.228  14.706  0.00  0.00    +0.000 A 
ATOM     16  C   UNL     1       5.446   3.546  13.546  0.00  0.00    +0.000 A 
ATOM     17  C   UNL     1       6.175   3.667  12.359  0.00  0.00    +0.000 A 
ATOM     18  C   UNL     1       7.306   4.477  12.312  0.00  0.00    +0.000 A 
ATOM     19  C   UNL     1       7.717   5.161  13.456  0.00  0.00    +0.000 A 
ATOM     20  C   UNL     1       6.993   5.038  14.646  0.00  0.00    +0.000 A 
ENDBRANCH  14  15
ENDBRANCH   4  14
BRANCH   8  21
ATOM     21  C   UNL     1       1.323   8.740  20.133  0.00  0.00    +0.000 C 
BRANCH  21  22
ATOM     22  C   UNL     1       0.709  10.097  19.773  0.00  0.00    +0.000 C 
ATOM     23 CL   UNL     1      -0.319   9.956  18.299  0.00  0.00    +0.000 Cl
BRANCH  22  24
ATOM     24  C   UNL     1      -0.160  10.714  20.866  0.00  0.00    +0.000 A 
ATOM     25  C   UNL     1      -1.001  11.797  20.551  0.00  0.00    +0.000 A 
ATOM     26  C   UNL     1      -1.902  12.307  21.492  0.00  0.00    +0.000 A 
ATOM     27  C   UNL     1      -1.969  11.743  22.763  0.00  0.00    +0.000 A 
ATOM     28 CL   UNL     1      -3.114  12.328  23.904  0.00  0.00    +0.000 Cl
ATOM     29  C   UNL     1      -1.128  10.689  23.105  0.00  0.00    +0.000 A 
ATOM     30  C   UNL     1      -0.231  10.176  22.163  0.00  0.00    +0.000 A 
ENDBRANCH  22  24
ENDBRANCH  21  22
ENDBRANCH   8  21
TORSDOF 6
ENDMDL
MODEL 2
REMARK VINA RESULT:      -8.1      0.860      1.253
REMARK  Name = 
REMARK  7 active torsions:
REMARK  status: ('A' for Active; 'I' for Inactive)
REMARK    1  A    between atoms: C_1  and  S_2
REMARK    2  A    between atoms: S_2  and  C_3
REMARK    3  A    between atoms: N_6  and  C_7
REMARK    4  A    between atoms: C_7  and  C_8
REMARK    5  A    between atoms: N_17  and  C_18
REMARK    6  A    between atoms: C_18  and  C_19
REMARK    7  A    between atoms: C_19  and  C_21
REMARK                            x       y       z     vdW  Elec       q    Type
REMARK                         _______ _______ _______ _____ _____    ______ ____
ROOT
ATOM      1  C   UNL     1       2.534   4.033  18.755  0.00  0.00    +0.000 A 
ATOM      2  N   UNL     1       3.582   3.877  17.908  0.00  0.00    +0.000 NA
ATOM      3  C   UNL     1       4.181   4.969  17.378  0.00  0.00    +0.000 A 
ATOM      4  N   UNL     1       5.306   4.861  16.564  0.00  0.00    +0.000 N 
ATOM      5  C   UNL     1       3.662   6.220  17.727  0.00  0.00    +0.000 A 
ATOM      6  C   UNL     1       3.938   7.579  17.454  0.00  0.00    +0.000 A 
ATOM      7  N   UNL     1       3.126   8.417  18.104  0.00  0.00    +0.000 NA
ATOM      8  N   UNL     1       2.318   7.586  18.804  0.00  0.00    +0.000 N 
ATOM      9  C   UNL     1       2.590   6.258  18.597  0.00  0.00    +0.000 A 
ATOM     10  N   UNL     1       1.980   5.197  19.152  0.00  0.00    +0.000 NA
ATOM     11  H   UNL     1       5.508   5.698  16.032  0.00  0.00    +0.000 HD
ENDROOT
BRANCH   1  13
ATOM     12  C   UNL     1       1.523   3.128  21.150  0.00  0.00    +0.000 C 
ATOM     13  S   UNL     1       1.891   2.535  19.479  0.00  0.00    +0.000 S 
ENDBRANCH   1  13
BRANCH   4  14
ATOM     14  C   UNL     1       5.479   3.636  15.804  0.00  0.00    +0.000 C 
BRANCH  14  15
ATOM     15  C   UNL     1       6.161   3.973  14.488  0.00  0.00    +0.000 A 
ATOM     16  C   UNL     1       7.144   4.974  14.426  0.00  0.00    +0.000 A 
ATOM     17  C   UNL     1       7.759   5.294  13.211  0.00  0.00    +0.000 A 
ATOM     18  C   UNL     1       7.410   4.613  12.049  0.00  0.00    +0.000 A 
ATOM     19  C   UNL     1       6.436   3.615  12.096  0.00  0.00    +0.000 A 
ATOM     20  C   UNL     1       5.815   3.296  13.309  0.00  0.00    +0.000 A 
ENDBRANCH  14  15
ENDBRANCH   4  14
BRANCH   8  21
ATOM     21  C   UNL     1       1.391   8.142  19.773  0.00  0.00    +0.000 C 
BRANCH  21  22
ATOM     22  C   UNL     1       1.030   9.610  19.525  0.00  0.00    +0.000 C 
ATOM     23 CL   UNL     1       0.080   9.781  18.003  0.00  0.00    +0.000 Cl
BRANCH  22  24
ATOM     24  C   UNL     1       0.211  10.262  20.637  0.00  0.00    +0.000 A 
ATOM     25  C   UNL     1      -0.565  11.400  20.348  0.00  0.00    +0.000 A 
ATOM     26  C   UNL     1      -1.423  11.949  21.307  0.00  0.00    +0.000 A 
ATOM     27  C   UNL     1      -1.512  11.370  22.569  0.00  0.00    +0.000 A 
ATOM     28 CL   UNL     1      -2.608  12.005  23.732  0.00  0.00    +0.000 Cl
ATOM     29  C   UNL     1      -0.735  10.260  22.886  0.00  0.00    +0.000 A 
ATOM     30  C   UNL     1       0.119   9.708  21.926  0.00  0.00    +0.000 A 
ENDBRANCH  22  24
ENDBRANCH  21  22
ENDBRANCH   8  21
TORSDOF 6
ENDMDL
MODEL 3
REMARK VINA RESULT:      -8.1      0.555      1.096
REMARK  Name = 
REMARK  7 active torsions:
REMARK  status: ('A' for Active; 'I' for Inactive)
REMARK    1  A    between atoms: C_1  and  S_2
REMARK    2  A    between atoms: S_2  and  C_3
REMARK    3  A    between atoms: N_6  and  C_7
REMARK    4  A    between atoms: C_7  and  C_8
REMARK    5  A    between atoms: N_17  and  C_18
REMARK    6  A    between atoms: C_18  and  C_19
REMARK    7  A    between atoms: C_19  and  C_21
REMARK                            x       y       z     vdW  Elec       q    Type
REMARK                         _______ _______ _______ _____ _____    ______ ____
ROOT
ATOM      1  C   UNL     1       3.038   4.546  19.558  0.00  0.00    +0.000 A 
ATOM      2  N   UNL     1       3.904   4.370  18.528  0.00  0.00    +0.000 NA
ATOM      3  C   UNL     1       4.152   5.396  17.681  0.00  0.00    +0.000 A 
ATOM      4  N   UNL     1       5.088   5.286  16.657  0.00  0.00    +0.000 N 
ATOM      5  C   UNL     1       3.473   6.598  17.911  0.00  0.00    +0.000 A 
ATOM      6  C   UNL     1       3.409   7.888  17.338  0.00  0.00    +0.000 A 
ATOM      7  N   UNL     1       2.593   8.713  18.000  0.00  0.00    +0.000 NA
ATOM      8  N   UNL     1       2.126   7.943  19.011  0.00  0.00    +0.000 N 
ATOM      9  C   UNL     1       2.612   6.661  18.990  0.00  0.00    +0.000 A 
ATOM     10  N   UNL     1       2.353   5.669  19.857  0.00  0.00    +0.000 NA
ATOM     11  H   UNL     1       5.007   6.005  15.949  0.00  0.00    +0.000 HD
ENDROOT
BRANCH   1  13
ATOM     12  C   UNL     1       1.068   2.968  20.655  0.00  0.00    +0.000 C 
ATOM     13  S   UNL     1       2.868   3.165  20.674  0.00  0.00    +0.000 S 
ENDBRANCH   1  13
BRANCH   4  14
ATOM     14  C   UNL     1       5.348   3.965  16.113  0.00  0.00    +0.000 C 
BRANCH  14  15
ATOM     15  C   UNL     1       5.990   4.121  14.744  0.00  0.00    +0.000 A 
ATOM     16  C   UNL     1       5.488   3.421  13.634  0.00  0.00    +0.000 A 
ATOM     17  C   UNL     1       6.089   3.552  12.378  0.00  0.00    +0.000 A 
ATOM     18  C   UNL     1       7.188   4.390  12.212  0.00  0.00    +0.000 A 
ATOM     19  C   UNL     1       7.696   5.093  13.306  0.00  0.00    +0.000 A 
ATOM     20  C   UNL     1       7.100   4.959  14.565  0.00  0.00    +0.000 A 
ENDBRANCH  14  15
ENDBRANCH   4  14
BRANCH   8  21
ATOM     21  C   UNL     1       1.321   8.549  20.055  0.00  0.00    +0.000 C 
BRANCH  21  22
ATOM     22  C   UNL     1       0.759   9.929  19.694  0.00  0.00    +0.000 C 
ATOM     23 CL   UNL     1      -0.084   9.872  18.102  0.00  0.00    +0.000 Cl
BRANCH  22  24
ATOM     24  C   UNL     1      -0.233  10.498  20.705  0.00  0.00    +0.000 A 
ATOM     25  C   UNL     1      -0.179  10.068  22.044  0.00  0.00    +0.000 A 
ATOM     26  C   UNL     1      -0.988  10.657  23.022  0.00  0.00    +0.000 A 
ATOM     27  C   UNL     1      -1.865  11.679  22.672  0.00  0.00    +0.000 A 
ATOM     28 CL   UNL     1      -2.819  12.445  23.881  0.00  0.00    +0.000 Cl
ATOM     29  C   UNL     1      -1.955  12.101  21.350  0.00  0.00    +0.000 A 
ATOM     30  C   UNL     1      -1.143  11.516  20.373  0.00  0.00    +0.000 A 
ENDBRANCH  22  24
ENDBRANCH  21  22
ENDBRANCH   8  21
TORSDOF 6
ENDMDL
MODEL 4
REMARK VINA RESULT:      -8.0      1.729      2.338
REMARK  Name = 
REMARK  7 active torsions:
REMARK  status: ('A' for Active; 'I' for Inactive)
REMARK    1  A    between atoms: C_1  and  S_2
REMARK    2  A    between atoms: S_2  and  C_3
REMARK    3  A    between atoms: N_6  and  C_7
REMARK    4  A    between atoms: C_7  and  C_8
REMARK    5  A    between atoms: N_17  and  C_18
REMARK    6  A    between atoms: C_18  and  C_19
REMARK    7  A    between atoms: C_19  and  C_21
REMARK                            x       y       z     vdW  Elec       q    Type
REMARK                         _______ _______ _______ _____ _____    ______ ____
ROOT
ATOM      1  C   UNL     1       3.202   4.292  19.603  0.00  0.00    +0.000 A 
ATOM      2  N   UNL     1       3.876   4.193  18.430  0.00  0.00    +0.000 NA
ATOM      3  C   UNL     1       3.984   5.278  17.627  0.00  0.00    +0.000 A 
ATOM      4  N   UNL     1       4.730   5.244  16.452  0.00  0.00    +0.000 N 
ATOM      5  C   UNL     1       3.364   6.457  18.053  0.00  0.00    +0.000 A 
ATOM      6  C   UNL     1       3.214   7.784  17.593  0.00  0.00    +0.000 A 
ATOM      7  N   UNL     1       2.530   8.557  18.441  0.00  0.00    +0.000 NA
ATOM      8  N   UNL     1       2.237   7.716  19.460  0.00  0.00    +0.000 N 
ATOM      9  C   UNL     1       2.702   6.440  19.266  0.00  0.00    +0.000 A 
ATOM     10  N   UNL     1       2.587   5.388  20.093  0.00  0.00    +0.000 NA
ATOM     11  H   UNL     1       4.534   6.011  15.821  0.00  0.00    +0.000 HD
ENDROOT
BRANCH   1  13
ATOM     12  C   UNL     1       1.542   2.923  21.319  0.00  0.00    +0.000 C 
ATOM     13  S   UNL     1       3.214   2.835  20.631  0.00  0.00    +0.000 S 
ENDBRANCH   1  13
BRANCH   4  14
ATOM     14  C   UNL     1       4.882   3.966  15.780  0.00  0.00    +0.000 C 
BRANCH  14  15
ATOM     15  C   UNL     1       5.769   4.160  14.562  0.00  0.00    +0.000 A 
ATOM     16  C   UNL     1       6.900   4.992  14.624  0.00  0.00    +0.000 A 
ATOM     17  C   UNL     1       7.707   5.182  13.497  0.00  0.00    +0.000 A 
ATOM     18  C   UNL     1       7.403   4.537  12.302  0.00  0.00    +0.000 A 
ATOM     19  C   UNL     1       6.284   3.707  12.226  0.00  0.00    +0.000 A 
ATOM     20  C   UNL     1       5.472   3.518  13.350  0.00  0.00    +0.000 A 
ENDBRANCH  14  15
ENDBRANCH   4  14
BRANCH   8  21
ATOM     21  C   UNL     1       1.627   8.243  20.667  0.00  0.00    +0.000 C 
BRANCH  21  22
ATOM     22  C   UNL     1       0.166   8.674  20.496  0.00  0.00    +0.000 C 
ATOM     23 CL   UNL     1      -0.742   8.458  22.038  0.00  0.00    +0.000 Cl
BRANCH  22  24
ATOM     24  C   UNL     1      -0.024  10.126  20.065  0.00  0.00    +0.000 A 
ATOM     25  C   UNL     1       0.705  11.140  20.713  0.00  0.00    +0.000 A 
ATOM     26  C   UNL     1       0.651  12.464  20.264  0.00  0.00    +0.000 A 
ATOM     27  C   UNL     1      -0.137  12.792  19.165  0.00  0.00    +0.000 A 
ATOM     28 CL   UNL     1      -0.162  14.406  18.575  0.00  0.00    +0.000 Cl
ATOM     29  C   UNL     1      -0.888  11.810  18.527  0.00  0.00    +0.000 A 
ATOM     30  C   UNL     1      -0.830  10.486  18.971  0.00  0.00    +0.000 A 
ENDBRANCH  22  24
ENDBRANCH  21  22
ENDBRANCH   8  21
TORSDOF 6
ENDMDL
MODEL 5
REMARK VINA RESULT:      -8.0      3.529      8.748
REMARK  Name = 
REMARK  7 active torsions:
REMARK  status: ('A' for Active; 'I' for Inactive)
REMARK    1  A    between atoms: C_1  and  S_2
REMARK    2  A    between atoms: S_2  and  C_3
REMARK    3  A    between atoms: N_6  and  C_7
REMARK    4  A    between atoms: C_7  and  C_8
REMARK    5  A    between atoms: N_17  and  C_18
REMARK    6  A    between atoms: C_18  and  C_19
REMARK    7  A    between atoms: C_19  and  C_21
REMARK                            x       y       z     vdW  Elec       q    Type
REMARK                         _______ _______ _______ _____ _____    ______ ____
ROOT
ATOM      1  C   UNL     1       2.234   4.625  20.279  0.00  0.00    +0.000 A 
ATOM      2  N   UNL     1       1.826   5.844  20.713  0.00  0.00    +0.000 NA
ATOM      3  C   UNL     1       2.130   6.947  19.988  0.00  0.00    +0.000 A 
ATOM      4  N   UNL     1       1.669   8.209  20.352  0.00  0.00    +0.000 N 
ATOM      5  C   UNL     1       2.879   6.763  18.820  0.00  0.00    +0.000 A 
ATOM      6  C   UNL     1       3.405   7.560  17.780  0.00  0.00    +0.000 A 
ATOM      7  N   UNL     1       4.036   6.847  16.843  0.00  0.00    +0.000 NA
ATOM      8  N   UNL     1       3.913   5.574  17.287  0.00  0.00    +0.000 N 
ATOM      9  C   UNL     1       3.241   5.474  18.479  0.00  0.00    +0.000 A 
ATOM     10  N   UNL     1       2.946   4.358  19.165  0.00  0.00    +0.000 NA
ATOM     11  H   UNL     1       2.157   8.970  19.897  0.00  0.00    +0.000 HD
ENDROOT
BRANCH   1  13
ATOM     12  C   UNL     1       1.759   1.929  19.997  0.00  0.00    +0.000 C 
ATOM     13  S   UNL     1       1.687   3.233  21.251  0.00  0.00    +0.000 S 
ENDBRANCH   1  13
BRANCH   4  14
ATOM     14  C   UNL     1       1.399   8.454  21.758  0.00  0.00    +0.000 C 
BRANCH  14  15
ATOM     15  C   UNL     1       0.495   9.670  21.875  0.00  0.00    +0.000 A 
ATOM     16  C   UNL     1       0.516  10.675  20.893  0.00  0.00    +0.000 A 
ATOM     17  C   UNL     1      -0.305  11.801  21.009  0.00  0.00    +0.000 A 
ATOM     18  C   UNL     1      -1.162  11.933  22.098  0.00  0.00    +0.000 A 
ATOM     19  C   UNL     1      -1.193  10.943  23.080  0.00  0.00    +0.000 A 
ATOM     20  C   UNL     1      -0.370   9.817  22.969  0.00  0.00    +0.000 A 
ENDBRANCH  14  15
ENDBRANCH   4  14
BRANCH   8  21
ATOM     21  C   UNL     1       4.343   4.478  16.438  0.00  0.00    +0.000 C 
BRANCH  21  22
ATOM     22  C   UNL     1       5.842   4.171  16.520  0.00  0.00    +0.000 C 
ATOM     23 CL   UNL     1       6.512   3.847  14.879  0.00  0.00    +0.000 Cl
BRANCH  22  24
ATOM     24  C   UNL     1       6.688   5.282  17.137  0.00  0.00    +0.000 A 
ATOM     25  C   UNL     1       7.012   6.413  16.364  0.00  0.00    +0.000 A 
ATOM     26  C   UNL     1       7.678   7.505  16.931  0.00  0.00    +0.000 A 
ATOM     27  C   UNL     1       8.032   7.478  18.276  0.00  0.00    +0.000 A 
ATOM     28 CL   UNL     1       8.799   8.841  18.992  0.00  0.00    +0.000 Cl
ATOM     29  C   UNL     1       7.746   6.359  19.052  0.00  0.00    +0.000 A 
ATOM     30  C   UNL     1       7.076   5.270  18.487  0.00  0.00    +0.000 A 
ENDBRANCH  22  24
ENDBRANCH  21  22
ENDBRANCH   8  21
TORSDOF 6
ENDMDL
MODEL 6
REMARK VINA RESULT:      -7.9      0.914      1.279
REMARK  Name = 
REMARK  7 active torsions:
REMARK  status: ('A' for Active; 'I' for Inactive)
REMARK    1  A    between atoms: C_1  and  S_2
REMARK    2  A    between atoms: S_2  and  C_3
REMARK    3  A    between atoms: N_6  and  C_7
REMARK    4  A    between atoms: C_7  and  C_8
REMARK    5  A    between atoms: N_17  and  C_18
REMARK    6  A    between atoms: C_18  and  C_19
REMARK    7  A    between atoms: C_19  and  C_21
REMARK                            x       y       z     vdW  Elec       q    Type
REMARK                         _______ _______ _______ _____ _____    ______ ____
ROOT
ATOM      1  C   UNL     1       2.806   4.787  19.651  0.00  0.00    +0.000 A 
ATOM      2  N   UNL     1       3.688   4.560  18.646  0.00  0.00    +0.000 NA
ATOM      3  C   UNL     1       3.987   5.559  17.782  0.00  0.00    +0.000 A 
ATOM      4  N   UNL     1       4.941   5.396  16.782  0.00  0.00    +0.000 N 
ATOM      5  C   UNL     1       3.339   6.785  17.967  0.00  0.00    +0.000 A 
ATOM      6  C   UNL     1       3.327   8.062  17.364  0.00  0.00    +0.000 A 
ATOM      7  N   UNL     1       2.522   8.926  17.987  0.00  0.00    +0.000 NA
ATOM      8  N   UNL     1       2.009   8.196  19.004  0.00  0.00    +0.000 N 
ATOM      9  C   UNL     1       2.457   6.899  19.025  0.00  0.00    +0.000 A 
ATOM     10  N   UNL     1       2.148   5.936  19.909  0.00  0.00    +0.000 NA
ATOM     11  H   UNL     1       4.898   6.100  16.056  0.00  0.00    +0.000 HD
ENDROOT
BRANCH   1  13
ATOM     12  C   UNL     1       1.678   2.277  19.729  0.00  0.00    +0.000 C 
ATOM     13  S   UNL     1       2.569   3.438  20.795  0.00  0.00    +0.000 S 
ENDBRANCH   1  13
BRANCH   4  14
ATOM     14  C   UNL     1       5.173   4.056  16.275  0.00  0.00    +0.000 C 
BRANCH  14  15
ATOM     15  C   UNL     1       5.856   4.159  14.921  0.00  0.00    +0.000 A 
ATOM     16  C   UNL     1       7.021   4.929  14.763  0.00  0.00    +0.000 A 
ATOM     17  C   UNL     1       7.640   5.036  13.514  0.00  0.00    +0.000 A 
ATOM     18  C   UNL     1       7.113   4.369  12.412  0.00  0.00    +0.000 A 
ATOM     19  C   UNL     1       5.958   3.599  12.554  0.00  0.00    +0.000 A 
ATOM     20  C   UNL     1       5.333   3.494  13.802  0.00  0.00    +0.000 A 
ENDBRANCH  14  15
ENDBRANCH   4  14
BRANCH   8  21
ATOM     21  C   UNL     1       1.199   8.850  20.015  0.00  0.00    +0.000 C 
BRANCH  21  22
ATOM     22  C   UNL     1       0.663  10.223  19.598  0.00  0.00    +0.000 C 
ATOM     23 CL   UNL     1      -0.749  10.042  18.492  0.00  0.00    +0.000 Cl
BRANCH  22  24
ATOM     24  C   UNL     1       0.211  11.110  20.755  0.00  0.00    +0.000 A 
ATOM     25  C   UNL     1       0.495  12.488  20.721  0.00  0.00    +0.000 A 
ATOM     26  C   UNL     1      -0.009  13.352  21.700  0.00  0.00    +0.000 A 
ATOM     27  C   UNL     1      -0.800  12.847  22.728  0.00  0.00    +0.000 A 
ATOM     28 CL   UNL     1      -1.469  13.912  23.900  0.00  0.00    +0.000 Cl
ATOM     29  C   UNL     1      -1.071  11.484  22.797  0.00  0.00    +0.000 A 
ATOM     30  C   UNL     1      -0.571  10.622  21.816  0.00  0.00    +0.000 A 
ENDBRANCH  22  24
ENDBRANCH  21  22
ENDBRANCH   8  21
TORSDOF 6
ENDMDL
MODEL 7
REMARK VINA RESULT:      -7.9      3.238      9.457
REMARK  Name = 
REMARK  7 active torsions:
REMARK  status: ('A' for Active; 'I' for Inactive)
REMARK    1  A    between atoms: C_1  and  S_2
REMARK    2  A    between atoms: S_2  and  C_3
REMARK    3  A    between atoms: N_6  and  C_7
REMARK    4  A    between atoms: C_7  and  C_8
REMARK    5  A    between atoms: N_17  and  C_18
REMARK    6  A    between atoms: C_18  and  C_19
REMARK    7  A    between atoms: C_19  and  C_21
REMARK                            x       y       z     vdW  Elec       q    Type
REMARK                         _______ _______ _______ _____ _____    ______ ____
ROOT
ATOM      1  C   UNL     1       0.516   9.128  21.405  0.00  0.00    +0.000 A 
ATOM      2  N   UNL     1       0.100  10.023  20.474  0.00  0.00    +0.000 NA
ATOM      3  C   UNL     1       0.540   9.913  19.198  0.00  0.00    +0.000 A 
ATOM      4  N   UNL     1       0.082  10.762  18.194  0.00  0.00    +0.000 N 
ATOM      5  C   UNL     1       1.431   8.873  18.912  0.00  0.00    +0.000 A 
ATOM      6  C   UNL     1       2.122   8.369  17.788  0.00  0.00    +0.000 A 
ATOM      7  N   UNL     1       2.845   7.281  18.065  0.00  0.00    +0.000 NA
ATOM      8  N   UNL     1       2.616   7.083  19.384  0.00  0.00    +0.000 N 
ATOM      9  C   UNL     1       1.787   8.023  19.942  0.00  0.00    +0.000 A 
ATOM     10  N   UNL     1       1.361   8.094  21.213  0.00  0.00    +0.000 NA
ATOM     11  H   UNL     1       0.654  10.754  17.359  0.00  0.00    +0.000 HD
ENDROOT
BRANCH   1  13
ATOM     12  C   UNL     1      -0.950  10.944  22.864  0.00  0.00    +0.000 C 
ATOM     13  S   UNL     1      -0.208   9.300  23.026  0.00  0.00    +0.000 S 
ENDBRANCH   1  13
BRANCH   4  14
ATOM     14  C   UNL     1      -0.365  12.089  18.577  0.00  0.00    +0.000 C 
BRANCH  14  15
ATOM     15  C   UNL     1      -1.878  12.071  18.717  0.00  0.00    +0.000 A 
ATOM     16  C   UNL     1      -2.499  12.625  19.849  0.00  0.00    +0.000 A 
ATOM     17  C   UNL     1      -3.891  12.594  19.984  0.00  0.00    +0.000 A 
ATOM     18  C   UNL     1      -4.679  12.022  18.989  0.00  0.00    +0.000 A 
ATOM     19  C   UNL     1      -4.075  11.470  17.859  0.00  0.00    +0.000 A 
ATOM     20  C   UNL     1      -2.683  11.495  17.723  0.00  0.00    +0.000 A 
ENDBRANCH  14  15
ENDBRANCH   4  14
BRANCH   8  21
ATOM     21  C   UNL     1       3.114   5.878  20.022  0.00  0.00    +0.000 C 
BRANCH  21  22
ATOM     22  C   UNL     1       3.104   4.640  19.119  0.00  0.00    +0.000 C 
ATOM     23 CL   UNL     1       1.570   4.556  18.177  0.00  0.00    +0.000 Cl
BRANCH  22  24
ATOM     24  C   UNL     1       4.250   4.575  18.112  0.00  0.00    +0.000 A 
ATOM     25  C   UNL     1       3.995   4.123  16.804  0.00  0.00    +0.000 A 
ATOM     26  C   UNL     1       4.990   4.168  15.821  0.00  0.00    +0.000 A 
ATOM     27  C   UNL     1       6.253   4.660  16.135  0.00  0.00    +0.000 A 
ATOM     28 CL   UNL     1       7.461   4.770  14.916  0.00  0.00    +0.000 Cl
ATOM     29  C   UNL     1       6.535   5.087  17.429  0.00  0.00    +0.000 A 
ATOM     30  C   UNL     1       5.540   5.047  18.410  0.00  0.00    +0.000 A 
ENDBRANCH  22  24
ENDBRANCH  21  22
ENDBRANCH   8  21
TORSDOF 6
ENDMDL
MODEL 8
REMARK VINA RESULT:      -7.8      3.376      9.932
REMARK  Name = 
REMARK  7 active torsions:
REMARK  status: ('A' for Active; 'I' for Inactive)
REMARK    1  A    between atoms: C_1  and  S_2
REMARK    2  A    between atoms: S_2  and  C_3
REMARK    3  A    between atoms: N_6  and  C_7
REMARK    4  A    between atoms: C_7  and  C_8
REMARK    5  A    between atoms: N_17  and  C_18
REMARK    6  A    between atoms: C_18  and  C_19
REMARK    7  A    between atoms: C_19  and  C_21
REMARK                            x       y       z     vdW  Elec       q    Type
REMARK                         _______ _______ _______ _____ _____    ______ ____
ROOT
ATOM      1  C   UNL     1       2.359   4.922  20.448  0.00  0.00    +0.000 A 
ATOM      2  N   UNL     1       1.734   6.067  20.819  0.00  0.00    +0.000 NA
ATOM      3  C   UNL     1       1.893   7.186  20.074  0.00  0.00    +0.000 A 
ATOM      4  N   UNL     1       1.213   8.363  20.371  0.00  0.00    +0.000 N 
ATOM      5  C   UNL     1       2.725   7.099  18.952  0.00  0.00    +0.000 A 
ATOM      6  C   UNL     1       3.170   7.946  17.913  0.00  0.00    +0.000 A 
ATOM      7  N   UNL     1       3.960   7.323  17.034  0.00  0.00    +0.000 NA
ATOM      8  N   UNL     1       4.023   6.059  17.514  0.00  0.00    +0.000 N 
ATOM      9  C   UNL     1       3.311   5.879  18.673  0.00  0.00    +0.000 A 
ATOM     10  N   UNL     1       3.166   4.747  19.381  0.00  0.00    +0.000 NA
ATOM     11  H   UNL     1       1.593   9.183  19.916  0.00  0.00    +0.000 HD
ENDROOT
BRANCH   1  13
ATOM     12  C   UNL     1       1.505   2.324  20.137  0.00  0.00    +0.000 C 
ATOM     13  S   UNL     1       1.995   3.483  21.439  0.00  0.00    +0.000 S 
ENDBRANCH   1  13
BRANCH   4  14
ATOM     14  C   UNL     1       0.829   8.595  21.753  0.00  0.00    +0.000 C 
BRANCH  14  15
ATOM     15  C   UNL     1      -0.042   9.840  21.813  0.00  0.00    +0.000 A 
ATOM     16  C   UNL     1      -0.630  10.245  23.023  0.00  0.00    +0.000 A 
ATOM     17  C   UNL     1      -1.444  11.381  23.074  0.00  0.00    +0.000 A 
ATOM     18  C   UNL     1      -1.672  12.131  21.924  0.00  0.00    +0.000 A 
ATOM     19  C   UNL     1      -1.094  11.741  20.715  0.00  0.00    +0.000 A 
ATOM     20  C   UNL     1      -0.283  10.602  20.660  0.00  0.00    +0.000 A 
ENDBRANCH  14  15
ENDBRANCH   4  14
BRANCH   8  21
ATOM     21  C   UNL     1       4.672   5.028  16.725  0.00  0.00    +0.000 C 
BRANCH  21  22
ATOM     22  C   UNL     1       5.958   5.487  16.029  0.00  0.00    +0.000 C 
ATOM     23 CL   UNL     1       7.398   5.108  17.044  0.00  0.00    +0.000 Cl
BRANCH  22  24
ATOM     24  C   UNL     1       6.200   4.859  14.659  0.00  0.00    +0.000 A 
ATOM     25  C   UNL     1       7.327   5.246  13.910  0.00  0.00    +0.000 A 
ATOM     26  C   UNL     1       7.649   4.604  12.710  0.00  0.00    +0.000 A 
ATOM     27  C   UNL     1       6.845   3.570  12.240  0.00  0.00    +0.000 A 
ATOM     28 CL   UNL     1       7.269   2.739  10.795  0.00  0.00    +0.000 Cl
ATOM     29  C   UNL     1       5.711   3.188  12.949  0.00  0.00    +0.000 A 
ATOM     30  C   UNL     1       5.392   3.826  14.152  0.00  0.00    +0.000 A 
ENDBRANCH  22  24
ENDBRANCH  21  22
ENDBRANCH   8  21
TORSDOF 6
ENDMDL
MODEL 9
REMARK VINA RESULT:      -7.8      4.273      6.407
REMARK  Name = 
REMARK  7 active torsions:
REMARK  status: ('A' for Active; 'I' for Inactive)
REMARK    1  A    between atoms: C_1  and  S_2
REMARK    2  A    between atoms: S_2  and  C_3
REMARK    3  A    between atoms: N_6  and  C_7
REMARK    4  A    between atoms: C_7  and  C_8
REMARK    5  A    between atoms: N_17  and  C_18
REMARK    6  A    between atoms: C_18  and  C_19
REMARK    7  A    between atoms: C_19  and  C_21
REMARK                            x       y       z     vdW  Elec       q    Type
REMARK                         _______ _______ _______ _____ _____    ______ ____
ROOT
ATOM      1  C   UNL     1       1.306  10.512  19.420  0.00  0.00    +0.000 A 
ATOM      2  N   UNL     1       1.558   9.197  19.638  0.00  0.00    +0.000 NA
ATOM      3  C   UNL     1       1.134   8.617  20.786  0.00  0.00    +0.000 A 
ATOM      4  N   UNL     1       1.303   7.255  21.020  0.00  0.00    +0.000 N 
ATOM      5  C   UNL     1       0.463   9.429  21.707  0.00  0.00    +0.000 A 
ATOM      6  C   UNL     1      -0.148   9.289  22.973  0.00  0.00    +0.000 A 
ATOM      7  N   UNL     1      -0.704  10.421  23.413  0.00  0.00    +0.000 NA
ATOM      8  N   UNL     1      -0.448  11.300  22.416  0.00  0.00    +0.000 N 
ATOM      9  C   UNL     1       0.265  10.756  21.377  0.00  0.00    +0.000 A 
ATOM     10  N   UNL     1       0.659  11.361  20.245  0.00  0.00    +0.000 NA
ATOM     11  H   UNL     1       1.183   6.989  21.989  0.00  0.00    +0.000 HD
ENDROOT
BRANCH   1  13
ATOM     12  C   UNL     1       2.534  12.726  18.342  0.00  0.00    +0.000 C 
ATOM     13  S   UNL     1       1.813  11.146  17.831  0.00  0.00    +0.000 S 
ENDBRANCH   1  13
BRANCH   4  14
ATOM     14  C   UNL     1       2.416   6.587  20.370  0.00  0.00    +0.000 C 
BRANCH  14  15
ATOM     15  C   UNL     1       1.926   5.263  19.807  0.00  0.00    +0.000 A 
ATOM     16  C   UNL     1       1.370   4.287  20.650  0.00  0.00    +0.000 A 
ATOM     17  C   UNL     1       0.933   3.063  20.133  0.00  0.00    +0.000 A 
ATOM     18  C   UNL     1       1.036   2.803  18.769  0.00  0.00    +0.000 A 
ATOM     19  C   UNL     1       1.585   3.764  17.919  0.00  0.00    +0.000 A 
ATOM     20  C   UNL     1       2.027   4.988  18.435  0.00  0.00    +0.000 A 
ENDBRANCH  14  15
ENDBRANCH   4  14
BRANCH   8  21
ATOM     21  C   UNL     1      -1.046  12.622  22.459  0.00  0.00    +0.000 C 
BRANCH  21  22
ATOM     22  C   UNL     1      -2.436  12.661  23.103  0.00  0.00    +0.000 C 
ATOM     23 CL   UNL     1      -2.588  14.086  24.195  0.00  0.00    +0.000 Cl
BRANCH  22  24
ATOM     24  C   UNL     1      -3.595  12.732  22.112  0.00  0.00    +0.000 A 
ATOM     25  C   UNL     1      -3.336  12.604  20.735  0.00  0.00    +0.000 A 
ATOM     26  C   UNL     1      -4.383  12.540  19.808  0.00  0.00    +0.000 A 
ATOM     27  C   UNL     1      -5.702  12.609  20.247  0.00  0.00    +0.000 A 
ATOM     28 CL   UNL     1      -6.992  12.472  19.119  0.00  0.00    +0.000 Cl
ATOM     29  C   UNL     1      -5.980  12.762  21.601  0.00  0.00    +0.000 A 
ATOM     30  C   UNL     1      -4.935  12.821  22.528  0.00  0.00    +0.000 A 
ENDBRANCH  22  24
ENDBRANCH  21  22
ENDBRANCH   8  21
TORSDOF 6
ENDMDL
