MODEL 1
REMARK VINA RESULT:      -7.7      0.000      0.000
REMARK  Name = 
REMARK  8 active torsions:
REMARK  status: ('A' for Active; 'I' for Inactive)
REMARK    1  A    between atoms: C_1  and  C_2
REMARK    2  A    between atoms: C_3  and  C_4
REMARK    3  A    between atoms: C_4  and  C_5
REMARK    4  A    between atoms: C_8  and  S_9
REMARK    5  A    between atoms: S_9  and  N_10
REMARK    6  A    between atoms: C_15  and  C_16
REMARK    7  A    between atoms: C_26  and  C_27
REMARK    8  A    between atoms: C_27  and  O_29
REMARK                            x       y       z     vdW  Elec       q    Type
REMARK                         _______ _______ _______ _____ _____    ______ ____
ROOT
ATOM      1  C   UNK     1       1.116  13.132  21.320  0.00  0.00    +0.000 C 
ATOM      2  C   UNK     1      -0.085  12.614  20.610  0.00  0.00    +0.000 A 
ATOM      3  C   UNK     1      -0.199  11.922  19.405  0.00  0.00    +0.000 A 
ATOM      4  C   UNK     1      -1.609  11.753  19.211  0.00  0.00    +0.000 A 
ATOM      5  N   UNK     1      -2.286  12.214  20.273  0.00  0.00    +0.000 NA
ATOM      6  N   UNK     1      -1.369  12.754  21.109  0.00  0.00    +0.000 N 
ATOM      7  C   UNK     1      -1.804  13.368  22.305  0.00  0.00    +0.000 A 
ATOM      8  N   UNK     1      -1.019  14.050  23.123  0.00  0.00    +0.000 NA
ATOM      9  C   UNK     1      -1.789  14.522  24.203  0.00  0.00    +0.000 A 
ATOM     10  C   UNK     1      -3.113  14.137  24.185  0.00  0.00    +0.000 A 
ATOM     11  S   UNK     1      -3.446  13.231  22.771  0.00  0.00    +0.000 S 
ENDROOT
BRANCH   4  12
ATOM     12  C   UNK     1      -2.347  11.182  18.069  0.00  0.00    +0.000 A 
ATOM     13  C   UNK     1      -3.610  11.683  17.723  0.00  0.00    +0.000 A 
ATOM     14  C   UNK     1      -4.309  11.178  16.621  0.00  0.00    +0.000 A 
ATOM     15  C   UNK     1      -3.759  10.163  15.845  0.00  0.00    +0.000 A 
ATOM     16  C   UNK     1      -2.502   9.660  16.163  0.00  0.00    +0.000 A 
ATOM     17  C   UNK     1      -1.805  10.174  17.258  0.00  0.00    +0.000 A 
ENDBRANCH   4  12
BRANCH   9  18
ATOM     18  C   UNK     1      -1.188  15.355  25.236  0.00  0.00    +0.000 C 
ATOM     19  O   UNK     1      -0.175  16.026  25.091  0.00  0.00    +0.000 OA
BRANCH  18  20
ATOM     20  O   UNK     1      -1.875  15.304  26.410  0.00  0.00    +0.000 OA
ATOM     21  H   UNK     1      -2.827  15.188  26.196  0.00  0.00    +0.000 HD
ENDBRANCH  18  20
ENDBRANCH   9  18
BRANCH   3  22
ATOM     22  C   UNK     1       0.915  11.450  18.523  0.00  0.00    +0.000 C 
BRANCH  22  23
ATOM     23  C   UNK     1       1.302  10.021  18.864  0.00  0.00    +0.000 A 
ATOM     24  C   UNK     1       1.095   9.415  20.117  0.00  0.00    +0.000 A 
ATOM     25  C   UNK     1       1.498   8.105  20.360  0.00  0.00    +0.000 A 
ATOM     26  C   UNK     1       2.080   7.368  19.335  0.00  0.00    +0.000 A 
ATOM     27  C   UNK     1       2.340   7.947  18.094  0.00  0.00    +0.000 A 
ATOM     28  C   UNK     1       1.950   9.268  17.863  0.00  0.00    +0.000 A 
BRANCH  26  29
ATOM     29  S   UNK     1       2.408   5.653  19.603  0.00  0.00    +0.000 S 
ATOM     30  O   UNK     1       1.897   5.259  20.892  0.00  0.00    +0.000 OA
ATOM     31  O   UNK     1       2.135   4.915  18.389  0.00  0.00    +0.000 OA
BRANCH  29  32
ATOM     32  N   UNK     1       4.081   5.698  19.754  0.00  0.00    +0.000 NA
ATOM     33  H   UNK     1       4.349   5.916  20.713  0.00  0.00    +0.000 HD
ATOM     34  H   UNK     1       4.501   4.850  19.370  0.00  0.00    +0.000 HD
ENDBRANCH  29  32
ENDBRANCH  26  29
ENDBRANCH  22  23
ENDBRANCH   3  22
TORSDOF 7
ENDMDL
MODEL 2
REMARK VINA RESULT:      -7.7      3.852      5.538
REMARK  Name = 
REMARK  8 active torsions:
REMARK  status: ('A' for Active; 'I' for Inactive)
REMARK    1  A    between atoms: C_1  and  C_2
REMARK    2  A    between atoms: C_3  and  C_4
REMARK    3  A    between atoms: C_4  and  C_5
REMARK    4  A    between atoms: C_8  and  S_9
REMARK    5  A    between atoms: S_9  and  N_10
REMARK    6  A    between atoms: C_15  and  C_16
REMARK    7  A    between atoms: C_26  and  C_27
REMARK    8  A    between atoms: C_27  and  O_29
REMARK                            x       y       z     vdW  Elec       q    Type
REMARK                         _______ _______ _______ _____ _____    ______ ____
ROOT
ATOM      1  C   UNK     1       2.929  12.766  17.908  0.00  0.00    +0.000 C 
ATOM      2  C   UNK     1       2.115  12.866  19.151  0.00  0.00    +0.000 A 
ATOM      3  C   UNK     1       0.963  12.185  19.538  0.00  0.00    +0.000 A 
ATOM      4  C   UNK     1       0.606  12.756  20.803  0.00  0.00    +0.000 A 
ATOM      5  N   UNK     1       1.535  13.639  21.196  0.00  0.00    +0.000 NA
ATOM      6  N   UNK     1       2.436  13.723  20.190  0.00  0.00    +0.000 N 
ATOM      7  C   UNK     1       3.516  14.627  20.307  0.00  0.00    +0.000 A 
ATOM      8  N   UNK     1       4.372  14.898  19.334  0.00  0.00    +0.000 NA
ATOM      9  C   UNK     1       5.306  15.841  19.801  0.00  0.00    +0.000 A 
ATOM     10  C   UNK     1       5.151  16.209  21.121  0.00  0.00    +0.000 A 
ATOM     11  S   UNK     1       3.780  15.434  21.793  0.00  0.00    +0.000 S 
ENDROOT
BRANCH   4  12
ATOM     12  C   UNK     1      -0.573  12.511  21.655  0.00  0.00    +0.000 A 
ATOM     13  C   UNK     1      -0.629  11.372  22.471  0.00  0.00    +0.000 A 
ATOM     14  C   UNK     1      -1.724  11.141  23.312  0.00  0.00    +0.000 A 
ATOM     15  C   UNK     1      -2.782  12.044  23.352  0.00  0.00    +0.000 A 
ATOM     16  C   UNK     1      -2.740  13.186  22.561  0.00  0.00    +0.000 A 
ATOM     17  C   UNK     1      -1.642  13.416  21.730  0.00  0.00    +0.000 A 
ENDBRANCH   4  12
BRANCH   9  18
ATOM     18  C   UNK     1       6.340  16.364  18.917  0.00  0.00    +0.000 C 
ATOM     19  O   UNK     1       6.637  17.547  18.814  0.00  0.00    +0.000 OA
BRANCH  18  20
ATOM     20  O   UNK     1       6.949  15.386  18.194  0.00  0.00    +0.000 OA
ATOM     21  H   UNK     1       7.813  15.192  18.620  0.00  0.00    +0.000 HD
ENDBRANCH  18  20
ENDBRANCH   9  18
BRANCH   3  22
ATOM     22  C   UNK     1       0.267  11.086  18.795  0.00  0.00    +0.000 C 
BRANCH  22  23
ATOM     23  C   UNK     1       0.955   9.754  19.037  0.00  0.00    +0.000 A 
ATOM     24  C   UNK     1       0.998   9.092  20.278  0.00  0.00    +0.000 A 
ATOM     25  C   UNK     1       1.669   7.881  20.427  0.00  0.00    +0.000 A 
ATOM     26  C   UNK     1       2.271   7.294  19.320  0.00  0.00    +0.000 A 
ATOM     27  C   UNK     1       2.285   7.938  18.085  0.00  0.00    +0.000 A 
ATOM     28  C   UNK     1       1.628   9.163  17.948  0.00  0.00    +0.000 A 
BRANCH  26  29
ATOM     29  S   UNK     1       2.948   5.670  19.484  0.00  0.00    +0.000 S 
ATOM     30  O   UNK     1       2.258   4.767  18.598  0.00  0.00    +0.000 OA
ATOM     31  O   UNK     1       4.390   5.754  19.554  0.00  0.00    +0.000 OA
BRANCH  29  32
ATOM     32  N   UNK     1       2.427   5.293  21.037  0.00  0.00    +0.000 NA
ATOM     33  H   UNK     1       1.444   5.534  21.153  0.00  0.00    +0.000 HD
ATOM     34  H   UNK     1       2.669   4.331  21.275  0.00  0.00    +0.000 HD
ENDBRANCH  29  32
ENDBRANCH  26  29
ENDBRANCH  22  23
ENDBRANCH   3  22
TORSDOF 7
ENDMDL
MODEL 3
REMARK VINA RESULT:      -7.7      3.625      8.748
REMARK  Name = 
REMARK  8 active torsions:
REMARK  status: ('A' for Active; 'I' for Inactive)
REMARK    1  A    between atoms: C_1  and  C_2
REMARK    2  A    between atoms: C_3  and  C_4
REMARK    3  A    between atoms: C_4  and  C_5
REMARK    4  A    between atoms: C_8  and  S_9
REMARK    5  A    between atoms: S_9  and  N_10
REMARK    6  A    between atoms: C_15  and  C_16
REMARK    7  A    between atoms: C_26  and  C_27
REMARK    8  A    between atoms: C_27  and  O_29
REMARK                            x       y       z     vdW  Elec       q    Type
REMARK                         _______ _______ _______ _____ _____    ______ ____
ROOT
ATOM      1  C   UNK     1       2.842   7.810  17.333  0.00  0.00    +0.000 C 
ATOM      2  C   UNK     1       2.113   8.103  18.597  0.00  0.00    +0.000 A 
ATOM      3  C   UNK     1       1.409   9.237  18.996  0.00  0.00    +0.000 A 
ATOM      4  C   UNK     1       0.986   8.954  20.336  0.00  0.00    +0.000 A 
ATOM      5  N   UNK     1       1.320   7.701  20.677  0.00  0.00    +0.000 NA
ATOM      6  N   UNK     1       2.019   7.192  19.636  0.00  0.00    +0.000 N 
ATOM      7  C   UNK     1       2.548   5.886  19.735  0.00  0.00    +0.000 A 
ATOM      8  N   UNK     1       3.364   5.341  18.846  0.00  0.00    +0.000 NA
ATOM      9  C   UNK     1       3.692   4.040  19.269  0.00  0.00    +0.000 A 
ATOM     10  C   UNK     1       3.073   3.633  20.433  0.00  0.00    +0.000 A 
ATOM     11  S   UNK     1       2.118   4.903  21.069  0.00  0.00    +0.000 S 
ENDROOT
BRANCH   4  12
ATOM     12  C   UNK     1       0.288   9.813  21.311  0.00  0.00    +0.000 A 
ATOM     13  C   UNK     1      -0.409   9.239  22.384  0.00  0.00    +0.000 A 
ATOM     14  C   UNK     1      -1.048  10.039  23.338  0.00  0.00    +0.000 A 
ATOM     15  C   UNK     1      -1.003  11.426  23.237  0.00  0.00    +0.000 A 
ATOM     16  C   UNK     1      -0.307  12.015  22.188  0.00  0.00    +0.000 A 
ATOM     17  C   UNK     1       0.336  11.213  21.243  0.00  0.00    +0.000 A 
ENDBRANCH   4  12
BRANCH   9  18
ATOM     18  C   UNK     1       4.623   3.221  18.503  0.00  0.00    +0.000 C 
ATOM     19  O   UNK     1       4.298   2.304  17.760  0.00  0.00    +0.000 OA
BRANCH  18  20
ATOM     20  O   UNK     1       5.920   3.579  18.707  0.00  0.00    +0.000 OA
ATOM     21  H   UNK     1       5.937   4.242  19.431  0.00  0.00    +0.000 HD
ENDBRANCH  18  20
ENDBRANCH   9  18
BRANCH   3  22
ATOM     22  C   UNK     1       1.143  10.469  18.188  0.00  0.00    +0.000 C 
BRANCH  22  23
ATOM     23  C   UNK     1      -0.351  10.704  18.039  0.00  0.00    +0.000 A 
ATOM     24  C   UNK     1      -1.264   9.751  17.550  0.00  0.00    +0.000 A 
ATOM     25  C   UNK     1      -2.617  10.049  17.422  0.00  0.00    +0.000 A 
ATOM     26  C   UNK     1      -3.083  11.296  17.821  0.00  0.00    +0.000 A 
ATOM     27  C   UNK     1      -2.204  12.279  18.270  0.00  0.00    +0.000 A 
ATOM     28  C   UNK     1      -0.844  11.980  18.378  0.00  0.00    +0.000 A 
BRANCH  26  29
ATOM     29  S   UNK     1      -4.826  11.587  17.832  0.00  0.00    +0.000 S 
ATOM     30  O   UNK     1      -5.218  12.215  16.595  0.00  0.00    +0.000 OA
ATOM     31  O   UNK     1      -5.504  10.433  18.378  0.00  0.00    +0.000 OA
BRANCH  29  32
ATOM     32  N   UNK     1      -4.913  12.780  19.013  0.00  0.00    +0.000 NA
ATOM     33  H   UNK     1      -4.494  13.647  18.678  0.00  0.00    +0.000 HD
ATOM     34  H   UNK     1      -5.866  12.868  19.366  0.00  0.00    +0.000 HD
ENDBRANCH  29  32
ENDBRANCH  26  29
ENDBRANCH  22  23
ENDBRANCH   3  22
TORSDOF 7
ENDMDL
MODEL 4
REMARK VINA RESULT:      -7.6      3.801      5.421
REMARK  Name = 
REMARK  8 active torsions:
REMARK  status: ('A' for Active; 'I' for Inactive)
REMARK    1  A    between atoms: C_1  and  C_2
REMARK    2  A    between atoms: C_3  and  C_4
REMARK    3  A    between atoms: C_4  and  C_5
REMARK    4  A    between atoms: C_8  and  S_9
REMARK    5  A    between atoms: S_9  and  N_10
REMARK    6  A    between atoms: C_15  and  C_16
REMARK    7  A    between atoms: C_26  and  C_27
REMARK    8  A    between atoms: C_27  and  O_29
REMARK                            x       y       z     vdW  Elec       q    Type
REMARK                         _______ _______ _______ _____ _____    ______ ____
ROOT
ATOM      1  C   UNK     1       2.960  12.907  18.137  0.00  0.00    +0.000 C 
ATOM      2  C   UNK     1       2.124  12.984  19.366  0.00  0.00    +0.000 A 
ATOM      3  C   UNK     1       0.949  12.317  19.708  0.00  0.00    +0.000 A 
ATOM      4  C   UNK     1       0.580  12.854  20.985  0.00  0.00    +0.000 A 
ATOM      5  N   UNK     1       1.522  13.701  21.425  0.00  0.00    +0.000 NA
ATOM      6  N   UNK     1       2.445  13.798  20.440  0.00  0.00    +0.000 N 
ATOM      7  C   UNK     1       3.542  14.671  20.608  0.00  0.00    +0.000 A 
ATOM      8  N   UNK     1       4.424  14.954  19.662  0.00  0.00    +0.000 NA
ATOM      9  C   UNK     1       5.370  15.858  20.179  0.00  0.00    +0.000 A 
ATOM     10  C   UNK     1       5.197  16.185  21.507  0.00  0.00    +0.000 A 
ATOM     11  S   UNK     1       3.795  15.421  22.126  0.00  0.00    +0.000 S 
ENDROOT
BRANCH   4  12
ATOM     12  C   UNK     1      -0.621  12.608  21.805  0.00  0.00    +0.000 A 
ATOM     13  C   UNK     1      -1.696  13.507  21.768  0.00  0.00    +0.000 A 
ATOM     14  C   UNK     1      -2.857  13.272  22.512  0.00  0.00    +0.000 A 
ATOM     15  C   UNK     1      -2.965  12.135  23.307  0.00  0.00    +0.000 A 
ATOM     16  C   UNK     1      -1.916  11.225  23.348  0.00  0.00    +0.000 A 
ATOM     17  C   UNK     1      -0.762  11.460  22.597  0.00  0.00    +0.000 A 
ENDBRANCH   4  12
BRANCH   9  18
ATOM     18  C   UNK     1       6.433  16.386  19.333  0.00  0.00    +0.000 C 
ATOM     19  O   UNK     1       7.529  15.862  19.181  0.00  0.00    +0.000 OA
BRANCH  18  20
ATOM     20  O   UNK     1       6.083  17.550  18.723  0.00  0.00    +0.000 OA
ATOM     21  H   UNK     1       6.869  17.883  18.238  0.00  0.00    +0.000 HD
ENDBRANCH  18  20
ENDBRANCH   9  18
BRANCH   3  22
ATOM     22  C   UNK     1       0.244  11.261  18.915  0.00  0.00    +0.000 C 
BRANCH  22  23
ATOM     23  C   UNK     1       0.908   9.909  19.108  0.00  0.00    +0.000 A 
ATOM     24  C   UNK     1       0.959   9.212  20.330  0.00  0.00    +0.000 A 
ATOM     25  C   UNK     1       1.607   7.984  20.433  0.00  0.00    +0.000 A 
ATOM     26  C   UNK     1       2.178   7.416  19.301  0.00  0.00    +0.000 A 
ATOM     27  C   UNK     1       2.184   8.094  18.083  0.00  0.00    +0.000 A 
ATOM     28  C   UNK     1       1.550   9.335  17.991  0.00  0.00    +0.000 A 
BRANCH  26  29
ATOM     29  S   UNK     1       2.824   5.775  19.408  0.00  0.00    +0.000 S 
ATOM     30  O   UNK     1       2.068   4.901  18.547  0.00  0.00    +0.000 OA
ATOM     31  O   UNK     1       4.269   5.825  19.405  0.00  0.00    +0.000 OA
BRANCH  29  32
ATOM     32  N   UNK     1       2.375   5.389  20.981  0.00  0.00    +0.000 NA
ATOM     33  H   UNK     1       2.122   4.404  21.050  0.00  0.00    +0.000 HD
ATOM     34  H   UNK     1       3.084   5.701  21.645  0.00  0.00    +0.000 HD
ENDBRANCH  29  32
ENDBRANCH  26  29
ENDBRANCH  22  23
ENDBRANCH   3  22
TORSDOF 7
ENDMDL
MODEL 5
REMARK VINA RESULT:      -7.5      3.872      5.521
REMARK  Name = 
REMARK  8 active torsions:
REMARK  status: ('A' for Active; 'I' for Inactive)
REMARK    1  A    between atoms: C_1  and  C_2
REMARK    2  A    between atoms: C_3  and  C_4
REMARK    3  A    between atoms: C_4  and  C_5
REMARK    4  A    between atoms: C_8  and  S_9
REMARK    5  A    between atoms: S_9  and  N_10
REMARK    6  A    between atoms: C_15  and  C_16
REMARK    7  A    between atoms: C_26  and  C_27
REMARK    8  A    between atoms: C_27  and  O_29
REMARK                            x       y       z     vdW  Elec       q    Type
REMARK                         _______ _______ _______ _____ _____    ______ ____
ROOT
ATOM      1  C   UNK     1       2.874  12.753  17.913  0.00  0.00    +0.000 C 
ATOM      2  C   UNK     1       2.086  12.870  19.171  0.00  0.00    +0.000 A 
ATOM      3  C   UNK     1       0.940  12.198  19.590  0.00  0.00    +0.000 A 
ATOM      4  C   UNK     1       0.611  12.785  20.855  0.00  0.00    +0.000 A 
ATOM      5  N   UNK     1       1.551  13.670  21.218  0.00  0.00    +0.000 NA
ATOM      6  N   UNK     1       2.431  13.739  20.193  0.00  0.00    +0.000 N 
ATOM      7  C   UNK     1       3.516  14.640  20.276  0.00  0.00    +0.000 A 
ATOM      8  N   UNK     1       4.352  14.897  19.283  0.00  0.00    +0.000 NA
ATOM      9  C   UNK     1       5.298  15.843  19.719  0.00  0.00    +0.000 A 
ATOM     10  C   UNK     1       5.172  16.227  21.037  0.00  0.00    +0.000 A 
ATOM     11  S   UNK     1       3.813  15.465  21.747  0.00  0.00    +0.000 S 
ENDROOT
BRANCH   4  12
ATOM     12  C   UNK     1      -0.551  12.554  21.734  0.00  0.00    +0.000 A 
ATOM     13  C   UNK     1      -1.600  13.483  21.774  0.00  0.00    +0.000 A 
ATOM     14  C   UNK     1      -2.726  13.263  22.575  0.00  0.00    +0.000 A 
ATOM     15  C   UNK     1      -2.824  12.111  23.350  0.00  0.00    +0.000 A 
ATOM     16  C   UNK     1      -1.800  11.172  23.315  0.00  0.00    +0.000 A 
ATOM     17  C   UNK     1      -0.683  11.392  22.508  0.00  0.00    +0.000 A 
ENDBRANCH   4  12
BRANCH   9  18
ATOM     18  C   UNK     1       6.315  16.352  18.808  0.00  0.00    +0.000 C 
ATOM     19  O   UNK     1       6.646  17.527  18.716  0.00  0.00    +0.000 OA
BRANCH  18  20
ATOM     20  O   UNK     1       6.868  15.371  18.044  0.00  0.00    +0.000 OA
ATOM     21  H   UNK     1       6.697  15.592  17.102  0.00  0.00    +0.000 HD
ENDBRANCH  18  20
ENDBRANCH   9  18
BRANCH   3  22
ATOM     22  C   UNK     1       0.226  11.093  18.874  0.00  0.00    +0.000 C 
BRANCH  22  23
ATOM     23  C   UNK     1       0.933   9.766  19.092  0.00  0.00    +0.000 A 
ATOM     24  C   UNK     1       1.004   9.092  20.325  0.00  0.00    +0.000 A 
ATOM     25  C   UNK     1       1.691   7.887  20.451  0.00  0.00    +0.000 A 
ATOM     26  C   UNK     1       2.283   7.319  19.329  0.00  0.00    +0.000 A 
ATOM     27  C   UNK     1       2.270   7.976  18.100  0.00  0.00    +0.000 A 
ATOM     28  C   UNK     1       1.596   9.194  17.986  0.00  0.00    +0.000 A 
BRANCH  26  29
ATOM     29  S   UNK     1       2.981   5.702  19.465  0.00  0.00    +0.000 S 
ATOM     30  O   UNK     1       4.396   5.762  19.195  0.00  0.00    +0.000 OA
ATOM     31  O   UNK     1       2.429   5.035  20.624  0.00  0.00    +0.000 OA
BRANCH  29  32
ATOM     32  N   UNK     1       2.278   4.968  18.127  0.00  0.00    +0.000 NA
ATOM     33  H   UNK     1       2.750   5.256  17.271  0.00  0.00    +0.000 HD
ATOM     34  H   UNK     1       2.207   3.959  18.264  0.00  0.00    +0.000 HD
ENDBRANCH  29  32
ENDBRANCH  26  29
ENDBRANCH  22  23
ENDBRANCH   3  22
TORSDOF 7
ENDMDL
MODEL 6
REMARK VINA RESULT:      -7.5      0.765      1.309
REMARK  Name = 
REMARK  8 active torsions:
REMARK  status: ('A' for Active; 'I' for Inactive)
REMARK    1  A    between atoms: C_1  and  C_2
REMARK    2  A    between atoms: C_3  and  C_4
REMARK    3  A    between atoms: C_4  and  C_5
REMARK    4  A    between atoms: C_8  and  S_9
REMARK    5  A    between atoms: S_9  and  N_10
REMARK    6  A    between atoms: C_15  and  C_16
REMARK    7  A    between atoms: C_26  and  C_27
REMARK    8  A    between atoms: C_27  and  O_29
REMARK                            x       y       z     vdW  Elec       q    Type
REMARK                         _______ _______ _______ _____ _____    ______ ____
ROOT
ATOM      1  C   UNK     1       0.733  13.247  21.291  0.00  0.00    +0.000 C 
ATOM      2  C   UNK     1      -0.385  12.664  20.501  0.00  0.00    +0.000 A 
ATOM      3  C   UNK     1      -0.379  11.991  19.280  0.00  0.00    +0.000 A 
ATOM      4  C   UNK     1      -1.761  11.733  18.997  0.00  0.00    +0.000 A 
ATOM      5  N   UNK     1      -2.529  12.125  20.022  0.00  0.00    +0.000 NA
ATOM      6  N   UNK     1      -1.704  12.707  20.922  0.00  0.00    +0.000 N 
ATOM      7  C   UNK     1      -2.251  13.266  22.098  0.00  0.00    +0.000 A 
ATOM      8  N   UNK     1      -1.565  13.983  22.975  0.00  0.00    +0.000 NA
ATOM      9  C   UNK     1      -2.429  14.379  24.013  0.00  0.00    +0.000 A 
ATOM     10  C   UNK     1      -3.721  13.908  23.907  0.00  0.00    +0.000 A 
ATOM     11  S   UNK     1      -3.905  13.011  22.460  0.00  0.00    +0.000 S 
ENDROOT
BRANCH   4  12
ATOM     12  C   UNK     1      -2.388  11.137  17.802  0.00  0.00    +0.000 A 
ATOM     13  C   UNK     1      -1.801  10.027  17.177  0.00  0.00    +0.000 A 
ATOM     14  C   UNK     1      -2.400   9.428  16.063  0.00  0.00    +0.000 A 
ATOM     15  C   UNK     1      -3.596   9.925  15.555  0.00  0.00    +0.000 A 
ATOM     16  C   UNK     1      -4.201  11.017  16.167  0.00  0.00    +0.000 A 
ATOM     17  C   UNK     1      -3.603  11.606  17.283  0.00  0.00    +0.000 A 
ENDBRANCH   4  12
BRANCH   9  18
ATOM     18  C   UNK     1      -1.950  15.229  25.095  0.00  0.00    +0.000 C 
ATOM     19  O   UNK     1      -2.667  15.900  25.826  0.00  0.00    +0.000 OA
BRANCH  18  20
ATOM     20  O   UNK     1      -0.594  15.211  25.210  0.00  0.00    +0.000 OA
ATOM     21  H   UNK     1      -0.304  16.110  25.478  0.00  0.00    +0.000 HD
ENDBRANCH  18  20
ENDBRANCH   9  18
BRANCH   3  22
ATOM     22  C   UNK     1       0.815  11.612  18.461  0.00  0.00    +0.000 C 
BRANCH  22  23
ATOM     23  C   UNK     1       1.270  10.202  18.793  0.00  0.00    +0.000 A 
ATOM     24  C   UNK     1       1.023   9.550  20.015  0.00  0.00    +0.000 A 
ATOM     25  C   UNK     1       1.493   8.262  20.254  0.00  0.00    +0.000 A 
ATOM     26  C   UNK     1       2.185   7.591  19.252  0.00  0.00    +0.000 A 
ATOM     27  C   UNK     1       2.486   8.218  18.045  0.00  0.00    +0.000 A 
ATOM     28  C   UNK     1       2.028   9.518  17.819  0.00  0.00    +0.000 A 
BRANCH  26  29
ATOM     29  S   UNK     1       2.604   5.893  19.501  0.00  0.00    +0.000 S 
ATOM     30  O   UNK     1       1.731   5.059  18.715  0.00  0.00    +0.000 OA
ATOM     31  O   UNK     1       4.043   5.747  19.500  0.00  0.00    +0.000 OA
BRANCH  29  32
ATOM     32  N   UNK     1       2.119   5.705  21.100  0.00  0.00    +0.000 NA
ATOM     33  H   UNK     1       2.898   5.876  21.733  0.00  0.00    +0.000 HD
ATOM     34  H   UNK     1       1.280   6.254  21.288  0.00  0.00    +0.000 HD
ENDBRANCH  29  32
ENDBRANCH  26  29
ENDBRANCH  22  23
ENDBRANCH   3  22
TORSDOF 7
ENDMDL
MODEL 7
REMARK VINA RESULT:      -7.4      0.654      1.183
REMARK  Name = 
REMARK  8 active torsions:
REMARK  status: ('A' for Active; 'I' for Inactive)
REMARK    1  A    between atoms: C_1  and  C_2
REMARK    2  A    between atoms: C_3  and  C_4
REMARK    3  A    between atoms: C_4  and  C_5
REMARK    4  A    between atoms: C_8  and  S_9
REMARK    5  A    between atoms: S_9  and  N_10
REMARK    6  A    between atoms: C_15  and  C_16
REMARK    7  A    between atoms: C_26  and  C_27
REMARK    8  A    between atoms: C_27  and  O_29
REMARK                            x       y       z     vdW  Elec       q    Type
REMARK                         _______ _______ _______ _____ _____    ______ ____
ROOT
ATOM      1  C   UNK     1       1.209  13.289  21.281  0.00  0.00    +0.000 C 
ATOM      2  C   UNK     1       0.023  12.710  20.594  0.00  0.00    +0.000 A 
ATOM      3  C   UNK     1      -0.079  12.013  19.392  0.00  0.00    +0.000 A 
ATOM      4  C   UNK     1      -1.482  11.771  19.225  0.00  0.00    +0.000 A 
ATOM      5  N   UNK     1      -2.161  12.197  20.300  0.00  0.00    +0.000 NA
ATOM      6  N   UNK     1      -1.257  12.784  21.118  0.00  0.00    +0.000 N 
ATOM      7  C   UNK     1      -1.700  13.375  22.322  0.00  0.00    +0.000 A 
ATOM      8  N   UNK     1      -0.936  14.097  23.126  0.00  0.00    +0.000 NA
ATOM      9  C   UNK     1      -1.707  14.529  24.220  0.00  0.00    +0.000 A 
ATOM     10  C   UNK     1      -3.010  14.077  24.228  0.00  0.00    +0.000 A 
ATOM     11  S   UNK     1      -3.323  13.154  22.820  0.00  0.00    +0.000 S 
ENDROOT
BRANCH   4  12
ATOM     12  C   UNK     1      -2.212  11.162  18.096  0.00  0.00    +0.000 A 
ATOM     13  C   UNK     1      -3.462  11.666  17.711  0.00  0.00    +0.000 A 
ATOM     14  C   UNK     1      -4.152  11.124  16.621  0.00  0.00    +0.000 A 
ATOM     15  C   UNK     1      -3.606  10.069  15.897  0.00  0.00    +0.000 A 
ATOM     16  C   UNK     1      -2.362   9.563  16.255  0.00  0.00    +0.000 A 
ATOM     17  C   UNK     1      -1.673  10.113  17.338  0.00  0.00    +0.000 A 
ENDBRANCH   4  12
BRANCH   9  18
ATOM     18  C   UNK     1      -1.130  15.392  25.243  0.00  0.00    +0.000 C 
ATOM     19  O   UNK     1      -0.146  16.102  25.083  0.00  0.00    +0.000 OA
BRANCH  18  20
ATOM     20  O   UNK     1      -1.804  15.323  26.423  0.00  0.00    +0.000 OA
ATOM     21  H   UNK     1      -1.147  15.408  27.148  0.00  0.00    +0.000 HD
ENDBRANCH  18  20
ENDBRANCH   9  18
BRANCH   3  22
ATOM     22  C   UNK     1       1.040  11.598  18.488  0.00  0.00    +0.000 C 
BRANCH  22  23
ATOM     23  C   UNK     1       1.411  10.144  18.723  0.00  0.00    +0.000 A 
ATOM     24  C   UNK     1       1.959   9.292  17.746  0.00  0.00    +0.000 A 
ATOM     25  C   UNK     1       2.253   7.961  18.032  0.00  0.00    +0.000 A 
ATOM     26  C   UNK     1       2.040   7.476  19.316  0.00  0.00    +0.000 A 
ATOM     27  C   UNK     1       1.460   8.276  20.299  0.00  0.00    +0.000 A 
ATOM     28  C   UNK     1       1.149   9.605  19.999  0.00  0.00    +0.000 A 
BRANCH  26  29
ATOM     29  S   UNK     1       2.597   5.846  19.711  0.00  0.00    +0.000 S 
ATOM     30  O   UNK     1       4.035   5.794  19.629  0.00  0.00    +0.000 OA
ATOM     31  O   UNK     1       1.855   5.346  20.847  0.00  0.00    +0.000 OA
BRANCH  29  32
ATOM     32  N   UNK     1       2.019   5.010  18.373  0.00  0.00    +0.000 NA
ATOM     33  H   UNK     1       2.328   4.039  18.397  0.00  0.00    +0.000 HD
ATOM     34  H   UNK     1       1.012   5.142  18.273  0.00  0.00    +0.000 HD
ENDBRANCH  29  32
ENDBRANCH  26  29
ENDBRANCH  22  23
ENDBRANCH   3  22
TORSDOF 7
ENDMDL
MODEL 8
REMARK VINA RESULT:      -7.4      0.770      1.224
REMARK  Name = 
REMARK  8 active torsions:
REMARK  status: ('A' for Active; 'I' for Inactive)
REMARK    1  A    between atoms: C_1  and  C_2
REMARK    2  A    between atoms: C_3  and  C_4
REMARK    3  A    between atoms: C_4  and  C_5
REMARK    4  A    between atoms: C_8  and  S_9
REMARK    5  A    between atoms: S_9  and  N_10
REMARK    6  A    between atoms: C_15  and  C_16
REMARK    7  A    between atoms: C_26  and  C_27
REMARK    8  A    between atoms: C_27  and  O_29
REMARK                            x       y       z     vdW  Elec       q    Type
REMARK                         _______ _______ _______ _____ _____    ______ ____
ROOT
ATOM      1  C   UNK     1       0.887  13.339  21.315  0.00  0.00    +0.000 C 
ATOM      2  C   UNK     1      -0.278  12.771  20.582  0.00  0.00    +0.000 A 
ATOM      3  C   UNK     1      -0.339  12.072  19.378  0.00  0.00    +0.000 A 
ATOM      4  C   UNK     1      -1.737  11.847  19.155  0.00  0.00    +0.000 A 
ATOM      5  N   UNK     1      -2.453  12.283  20.200  0.00  0.00    +0.000 NA
ATOM      6  N   UNK     1      -1.577  12.861  21.054  0.00  0.00    +0.000 N 
ATOM      7  C   UNK     1      -2.061  13.461  22.237  0.00  0.00    +0.000 A 
ATOM      8  N   UNK     1      -1.322  14.176  23.070  0.00  0.00    +0.000 NA
ATOM      9  C   UNK     1      -2.132  14.619  24.131  0.00  0.00    +0.000 A 
ATOM     10  C   UNK     1      -3.439  14.182  24.087  0.00  0.00    +0.000 A 
ATOM     11  S   UNK     1      -3.706  13.260  22.669  0.00  0.00    +0.000 S 
ENDROOT
BRANCH   4  12
ATOM     12  C   UNK     1      -2.427  11.243  17.999  0.00  0.00    +0.000 A 
ATOM     13  C   UNK     1      -1.856  10.153  17.327  0.00  0.00    +0.000 A 
ATOM     14  C   UNK     1      -2.513   9.545  16.251  0.00  0.00    +0.000 A 
ATOM     15  C   UNK     1      -3.752  10.016  15.827  0.00  0.00    +0.000 A 
ATOM     16  C   UNK     1      -4.341  11.088  16.487  0.00  0.00    +0.000 A 
ATOM     17  C   UNK     1      -3.685  11.685  17.566  0.00  0.00    +0.000 A 
ENDBRANCH   4  12
BRANCH   9  18
ATOM     18  C   UNK     1      -1.587  15.479  25.174  0.00  0.00    +0.000 C 
ATOM     19  O   UNK     1      -0.546  15.265  25.782  0.00  0.00    +0.000 OA
BRANCH  18  20
ATOM     20  O   UNK     1      -2.373  16.562  25.420  0.00  0.00    +0.000 OA
ATOM     21  H   UNK     1      -1.784  17.337  25.550  0.00  0.00    +0.000 HD
ENDBRANCH  18  20
ENDBRANCH   9  18
BRANCH   3  22
ATOM     22  C   UNK     1       0.811  11.642  18.521  0.00  0.00    +0.000 C 
BRANCH  22  23
ATOM     23  C   UNK     1       1.240  10.226  18.866  0.00  0.00    +0.000 A 
ATOM     24  C   UNK     1       1.018   9.605  20.109  0.00  0.00    +0.000 A 
ATOM     25  C   UNK     1       1.461   8.309  20.358  0.00  0.00    +0.000 A 
ATOM     26  C   UNK     1       2.099   7.600  19.347  0.00  0.00    +0.000 A 
ATOM     27  C   UNK     1       2.374   8.195  18.117  0.00  0.00    +0.000 A 
ATOM     28  C   UNK     1       1.944   9.503  17.881  0.00  0.00    +0.000 A 
BRANCH  26  29
ATOM     29  S   UNK     1       2.480   5.896  19.616  0.00  0.00    +0.000 S 
ATOM     30  O   UNK     1       3.908   5.732  19.723  0.00  0.00    +0.000 OA
ATOM     31  O   UNK     1       1.550   5.340  20.573  0.00  0.00    +0.000 OA
BRANCH  29  32
ATOM     32  N   UNK     1       2.046   5.262  18.121  0.00  0.00    +0.000 NA
ATOM     33  H   UNK     1       1.093   4.903  18.147  0.00  0.00    +0.000 HD
ATOM     34  H   UNK     1       2.236   5.933  17.376  0.00  0.00    +0.000 HD
ENDBRANCH  29  32
ENDBRANCH  26  29
ENDBRANCH  22  23
ENDBRANCH   3  22
TORSDOF 7
ENDMDL
MODEL 9
REMARK VINA RESULT:      -7.3      3.543      8.720
REMARK  Name = 
REMARK  8 active torsions:
REMARK  status: ('A' for Active; 'I' for Inactive)
REMARK    1  A    between atoms: C_1  and  C_2
REMARK    2  A    between atoms: C_3  and  C_4
REMARK    3  A    between atoms: C_4  and  C_5
REMARK    4  A    between atoms: C_8  and  S_9
REMARK    5  A    between atoms: S_9  and  N_10
REMARK    6  A    between atoms: C_15  and  C_16
REMARK    7  A    between atoms: C_26  and  C_27
REMARK    8  A    between atoms: C_27  and  O_29
REMARK                            x       y       z     vdW  Elec       q    Type
REMARK                         _______ _______ _______ _____ _____    ______ ____
ROOT
ATOM      1  C   UNK     1       2.738   7.812  17.302  0.00  0.00    +0.000 C 
ATOM      2  C   UNK     1       2.053   8.126  18.586  0.00  0.00    +0.000 A 
ATOM      3  C   UNK     1       1.369   9.269  18.994  0.00  0.00    +0.000 A 
ATOM      4  C   UNK     1       0.991   9.006  20.351  0.00  0.00    +0.000 A 
ATOM      5  N   UNK     1       1.329   7.756  20.696  0.00  0.00    +0.000 NA
ATOM      6  N   UNK     1       1.990   7.229  19.639  0.00  0.00    +0.000 N 
ATOM      7  C   UNK     1       2.514   5.921  19.737  0.00  0.00    +0.000 A 
ATOM      8  N   UNK     1       3.296   5.359  18.829  0.00  0.00    +0.000 NA
ATOM      9  C   UNK     1       3.630   4.061  19.257  0.00  0.00    +0.000 A 
ATOM     10  C   UNK     1       3.049   3.673  20.445  0.00  0.00    +0.000 A 
ATOM     11  S   UNK     1       2.123   4.957  21.097  0.00  0.00    +0.000 S 
ENDROOT
BRANCH   4  12
ATOM     12  C   UNK     1       0.330   9.881  21.338  0.00  0.00    +0.000 A 
ATOM     13  C   UNK     1       0.496  11.272  21.269  0.00  0.00    +0.000 A 
ATOM     14  C   UNK     1      -0.151  12.120  22.175  0.00  0.00    +0.000 A 
ATOM     15  C   UNK     1      -0.975  11.594  23.164  0.00  0.00    +0.000 A 
ATOM     16  C   UNK     1      -1.164  10.219  23.242  0.00  0.00    +0.000 A 
ATOM     17  C   UNK     1      -0.522   9.378  22.330  0.00  0.00    +0.000 A 
ENDBRANCH   4  12
BRANCH   9  18
ATOM     18  C   UNK     1       4.530   3.228  18.470  0.00  0.00    +0.000 C 
ATOM     19  O   UNK     1       4.178   2.285  17.774  0.00  0.00    +0.000 OA
BRANCH  18  20
ATOM     20  O   UNK     1       5.832   3.603  18.598  0.00  0.00    +0.000 OA
ATOM     21  H   UNK     1       5.864   4.584  18.582  0.00  0.00    +0.000 HD
ENDBRANCH  18  20
ENDBRANCH   9  18
BRANCH   3  22
ATOM     22  C   UNK     1       1.084  10.493  18.179  0.00  0.00    +0.000 C 
BRANCH  22  23
ATOM     23  C   UNK     1      -0.396  10.832  18.219  0.00  0.00    +0.000 A 
ATOM     24  C   UNK     1      -0.921  12.064  18.654  0.00  0.00    +0.000 A 
ATOM     25  C   UNK     1      -2.294  12.293  18.682  0.00  0.00    +0.000 A 
ATOM     26  C   UNK     1      -3.161  11.303  18.235  0.00  0.00    +0.000 A 
ATOM     27  C   UNK     1      -2.682  10.057  17.836  0.00  0.00    +0.000 A 
ATOM     28  C   UNK     1      -1.304   9.826  17.829  0.00  0.00    +0.000 A 
BRANCH  26  29
ATOM     29  S   UNK     1      -4.881  11.680  18.097  0.00  0.00    +0.000 S 
ATOM     30  O   UNK     1      -5.643  10.457  18.059  0.00  0.00    +0.000 OA
ATOM     31  O   UNK     1      -5.205  12.782  18.976  0.00  0.00    +0.000 OA
BRANCH  29  32
ATOM     32  N   UNK     1      -4.917  12.304  16.536  0.00  0.00    +0.000 NA
ATOM     33  H   UNK     1      -4.788  11.562  15.851  0.00  0.00    +0.000 HD
ATOM     34  H   UNK     1      -5.747  12.882  16.398  0.00  0.00    +0.000 HD
ENDBRANCH  29  32
ENDBRANCH  26  29
ENDBRANCH  22  23
ENDBRANCH   3  22
TORSDOF 7
ENDMDL
