MODEL 1
REMARK VINA RESULT:      -9.4      0.000      0.000
REMARK  Name = 
REMARK  5 active torsions:
REMARK  status: ('A' for Active; 'I' for Inactive)
REMARK    1  A    between atoms: O_1  and  C_2
REMARK    2  A    between atoms: C_11  and  C_12
REMARK    3  A    between atoms: N_13  and  C_14
REMARK    4  A    between atoms: C_16  and  C_17
REMARK    5  A    between atoms: C_23  and  N_24
REMARK                            x       y       z     vdW  Elec       q    Type
REMARK                         _______ _______ _______ _____ _____    ______ ____
ROOT
ATOM      1  C   UNL     1       5.678   4.024  15.726  0.00  0.00    +0.000 A 
ATOM      2  C   UNL     1       5.177   3.546  14.497  0.00  0.00    +0.000 A 
ATOM      3  C   UNL     1       5.817   3.795  13.281  0.00  0.00    +0.000 A 
ATOM      4  C   UNL     1       6.937   4.625  13.287  0.00  0.00    +0.000 A 
ATOM      5  C   UNL     1       7.420   5.148  14.493  0.00  0.00    +0.000 A 
ATOM      6  C   UNL     1       6.838   4.844  15.744  0.00  0.00    +0.000 A 
ENDROOT
BRANCH   6   7
ATOM      7  N   UNL     1       7.447   5.353  16.880  0.00  0.00    +0.000 N 
ATOM      8  C   UNL     1       7.792   4.589  18.071  0.00  0.00    +0.000 C 
ATOM      9  C   UNL     1       7.517   5.553  19.218  0.00  0.00    +0.000 C 
ATOM     10  C   UNL     1       7.847   6.912  18.623  0.00  0.00    +0.000 C 
ATOM     11  C   UNL     1       7.433   6.790  17.156  0.00  0.00    +0.000 C 
ENDBRANCH   6   7
BRANCH   3  12
ATOM     12  C   UNL     1       5.324   3.158  12.010  0.00  0.00    +0.000 C 
ATOM     13  F   UNL     1       5.608   1.828  11.920  0.00  0.00    +0.000 F 
ATOM     14  F   UNL     1       3.977   3.264  11.851  0.00  0.00    +0.000 F 
ATOM     15  F   UNL     1       5.877   3.726  10.901  0.00  0.00    +0.000 F 
ENDBRANCH   3  12
BRANCH   1  17
ATOM     16  C   UNL     1       3.713   4.256  16.969  0.00  0.00    +0.000 C 
ATOM     17  N   UNL     1       4.918   3.782  16.890  0.00  0.00    +0.000 NA
BRANCH  16  27
ATOM     18  C   UNL     1       2.452   2.786  18.480  0.00  0.00    +0.000 A 
ATOM     19  C   UNL     1       1.666   2.526  19.595  0.00  0.00    +0.000 A 
ATOM     20  C   UNL     1       1.269   3.582  20.411  0.00  0.00    +0.000 A 
ATOM     21  C   UNL     1       1.632   4.908  20.117  0.00  0.00    +0.000 A 
ATOM     22  C   UNL     1       1.208   5.943  20.967  0.00  0.00    +0.000 A 
ATOM     23  C   UNL     1       1.528   7.273  20.701  0.00  0.00    +0.000 A 
ATOM     24  C   UNL     1       2.267   7.586  19.572  0.00  0.00    +0.000 A 
ATOM     25  C   UNL     1       2.700   6.567  18.721  0.00  0.00    +0.000 A 
ATOM     26  C   UNL     1       2.418   5.196  18.971  0.00  0.00    +0.000 A 
ATOM     27  C   UNL     1       2.847   4.099  18.164  0.00  0.00    +0.000 A 
BRANCH  18  28
ATOM     28  O   UNL     1       2.851   1.737  17.693  0.00  0.00    +0.000 OA
ATOM     29  H   UNL     1       2.924   2.033  16.770  0.00  0.00    +0.000 HD
ENDBRANCH  18  28
ENDBRANCH  16  27
ENDBRANCH   1  17
TORSDOF 5
ENDMDL
MODEL 2
REMARK VINA RESULT:      -9.2      0.614      1.237
REMARK  Name = 
REMARK  5 active torsions:
REMARK  status: ('A' for Active; 'I' for Inactive)
REMARK    1  A    between atoms: O_1  and  C_2
REMARK    2  A    between atoms: C_11  and  C_12
REMARK    3  A    between atoms: N_13  and  C_14
REMARK    4  A    between atoms: C_16  and  C_17
REMARK    5  A    between atoms: C_23  and  N_24
REMARK                            x       y       z     vdW  Elec       q    Type
REMARK                         _______ _______ _______ _____ _____    ______ ____
ROOT
ATOM      1  C   UNL     1       5.296   4.377  15.511  0.00  0.00    +0.000 A 
ATOM      2  C   UNL     1       5.118   3.810  14.232  0.00  0.00    +0.000 A 
ATOM      3  C   UNL     1       6.124   3.819  13.263  0.00  0.00    +0.000 A 
ATOM      4  C   UNL     1       7.307   4.497  13.552  0.00  0.00    +0.000 A 
ATOM      5  C   UNL     1       7.482   5.107  14.801  0.00  0.00    +0.000 A 
ATOM      6  C   UNL     1       6.512   5.042  15.825  0.00  0.00    +0.000 A 
ENDROOT
BRANCH   6   7
ATOM      7  N   UNL     1       6.825   5.614  17.048  0.00  0.00    +0.000 N 
ATOM      8  C   UNL     1       6.786   7.038  17.353  0.00  0.00    +0.000 C 
ATOM      9  C   UNL     1       7.975   7.248  18.281  0.00  0.00    +0.000 C 
ATOM     10  C   UNL     1       8.059   5.938  19.048  0.00  0.00    +0.000 C 
ATOM     11  C   UNL     1       7.618   4.880  18.036  0.00  0.00    +0.000 C 
ENDBRANCH   6   7
BRANCH   3  12
ATOM     12  C   UNL     1       5.940   3.090  11.960  0.00  0.00    +0.000 C 
ATOM     13  F   UNL     1       4.925   3.584  11.197  0.00  0.00    +0.000 F 
ATOM     14  F   UNL     1       7.050   3.121  11.173  0.00  0.00    +0.000 F 
ATOM     15  F   UNL     1       5.650   1.770  12.145  0.00  0.00    +0.000 F 
ENDBRANCH   3  12
BRANCH   1  17
ATOM     16  C   UNL     1       4.296   3.780  17.537  0.00  0.00    +0.000 C 
ATOM     17  N   UNL     1       4.194   4.383  16.393  0.00  0.00    +0.000 NA
BRANCH  16  27
ATOM     18  C   UNL     1       2.682   2.399  18.770  0.00  0.00    +0.000 A 
ATOM     19  C   UNL     1       1.661   2.199  19.691  0.00  0.00    +0.000 A 
ATOM     20  C   UNL     1       1.134   3.293  20.373  0.00  0.00    +0.000 A 
ATOM     21  C   UNL     1       1.601   4.597  20.132  0.00  0.00    +0.000 A 
ATOM     22  C   UNL     1       1.039   5.672  20.841  0.00  0.00    +0.000 A 
ATOM     23  C   UNL     1       1.458   6.982  20.618  0.00  0.00    +0.000 A 
ATOM     24  C   UNL     1       2.437   7.236  19.672  0.00  0.00    +0.000 A 
ATOM     25  C   UNL     1       3.008   6.176  18.963  0.00  0.00    +0.000 A 
ATOM     26  C   UNL     1       2.629   4.824  19.181  0.00  0.00    +0.000 A 
ATOM     27  C   UNL     1       3.184   3.688  18.516  0.00  0.00    +0.000 A 
BRANCH  18  28
ATOM     28  O   UNL     1       3.205   1.312  18.118  0.00  0.00    +0.000 OA
ATOM     29  H   UNL     1       3.964   1.592  17.580  0.00  0.00    +0.000 HD
ENDBRANCH  18  28
ENDBRANCH  16  27
ENDBRANCH   1  17
TORSDOF 5
ENDMDL
MODEL 3
REMARK VINA RESULT:      -8.9      3.809      6.198
REMARK  Name = 
REMARK  5 active torsions:
REMARK  status: ('A' for Active; 'I' for Inactive)
REMARK    1  A    between atoms: O_1  and  C_2
REMARK    2  A    between atoms: C_11  and  C_12
REMARK    3  A    between atoms: N_13  and  C_14
REMARK    4  A    between atoms: C_16  and  C_17
REMARK    5  A    between atoms: C_23  and  N_24
REMARK                            x       y       z     vdW  Elec       q    Type
REMARK                         _______ _______ _______ _____ _____    ______ ____
ROOT
ATOM      1  C   UNL     1       3.439   6.326  18.440  0.00  0.00    +0.000 A 
ATOM      2  C   UNL     1       4.690   6.829  18.023  0.00  0.00    +0.000 A 
ATOM      3  C   UNL     1       5.847   6.047  18.017  0.00  0.00    +0.000 A 
ATOM      4  C   UNL     1       5.767   4.755  18.533  0.00  0.00    +0.000 A 
ATOM      5  C   UNL     1       4.544   4.254  18.996  0.00  0.00    +0.000 A 
ATOM      6  C   UNL     1       3.344   4.997  18.936  0.00  0.00    +0.000 A 
ENDROOT
BRANCH   6   7
ATOM      7  N   UNL     1       2.177   4.374  19.349  0.00  0.00    +0.000 N 
ATOM      8  C   UNL     1       1.665   4.352  20.712  0.00  0.00    +0.000 C 
ATOM      9  C   UNL     1       1.065   2.959  20.857  0.00  0.00    +0.000 C 
ATOM     10  C   UNL     1       0.552   2.649  19.460  0.00  0.00    +0.000 C 
ATOM     11  C   UNL     1       1.556   3.331  18.530  0.00  0.00    +0.000 C 
ENDBRANCH   6   7
BRANCH   3  12
ATOM     12  C   UNL     1       7.130   6.581  17.443  0.00  0.00    +0.000 C 
ATOM     13  F   UNL     1       7.490   5.992  16.267  0.00  0.00    +0.000 F 
ATOM     14  F   UNL     1       7.084   7.918  17.192  0.00  0.00    +0.000 F 
ATOM     15  F   UNL     1       8.188   6.395  18.283  0.00  0.00    +0.000 F 
ENDBRANCH   3  12
BRANCH   1  17
ATOM     16  C   UNL     1       2.344   8.177  19.351  0.00  0.00    +0.000 C 
ATOM     17  N   UNL     1       2.346   7.217  18.479  0.00  0.00    +0.000 NA
BRANCH  16  27
ATOM     18  C   UNL     1       0.750   9.740  18.327  0.00  0.00    +0.000 A 
ATOM     19  C   UNL     1      -0.314  10.633  18.360  0.00  0.00    +0.000 A 
ATOM     20  C   UNL     1      -0.918  10.931  19.578  0.00  0.00    +0.000 A 
ATOM     21  C   UNL     1      -0.459  10.361  20.779  0.00  0.00    +0.000 A 
ATOM     22  C   UNL     1      -1.098  10.692  21.986  0.00  0.00    +0.000 A 
ATOM     23  C   UNL     1      -0.662  10.165  23.201  0.00  0.00    +0.000 A 
ATOM     24  C   UNL     1       0.428   9.311  23.225  0.00  0.00    +0.000 A 
ATOM     25  C   UNL     1       1.069   8.969  22.031  0.00  0.00    +0.000 A 
ATOM     26  C   UNL     1       0.638   9.462  20.769  0.00  0.00    +0.000 A 
ATOM     27  C   UNL     1       1.225   9.140  19.507  0.00  0.00    +0.000 A 
BRANCH  18  28
ATOM     28  O   UNL     1       1.326   9.442  17.120  0.00  0.00    +0.000 OA
ATOM     29  H   UNL     1       0.754   8.828  16.631  0.00  0.00    +0.000 HD
ENDBRANCH  18  28
ENDBRANCH  16  27
ENDBRANCH   1  17
TORSDOF 5
ENDMDL
MODEL 4
REMARK VINA RESULT:      -8.9      4.058      6.116
REMARK  Name = 
REMARK  5 active torsions:
REMARK  status: ('A' for Active; 'I' for Inactive)
REMARK    1  A    between atoms: O_1  and  C_2
REMARK    2  A    between atoms: C_11  and  C_12
REMARK    3  A    between atoms: N_13  and  C_14
REMARK    4  A    between atoms: C_16  and  C_17
REMARK    5  A    between atoms: C_23  and  N_24
REMARK                            x       y       z     vdW  Elec       q    Type
REMARK                         _______ _______ _______ _____ _____    ______ ____
ROOT
ATOM      1  C   UNL     1       3.248   5.678  19.222  0.00  0.00    +0.000 A 
ATOM      2  C   UNL     1       2.192   4.774  19.466  0.00  0.00    +0.000 A 
ATOM      3  C   UNL     1       2.356   3.390  19.375  0.00  0.00    +0.000 A 
ATOM      4  C   UNL     1       3.586   2.903  18.936  0.00  0.00    +0.000 A 
ATOM      5  C   UNL     1       4.631   3.788  18.643  0.00  0.00    +0.000 A 
ATOM      6  C   UNL     1       4.515   5.186  18.805  0.00  0.00    +0.000 A 
ENDROOT
BRANCH   6   7
ATOM      7  N   UNL     1       5.638   5.961  18.562  0.00  0.00    +0.000 N 
ATOM      8  C   UNL     1       5.869   6.768  17.371  0.00  0.00    +0.000 C 
ATOM      9  C   UNL     1       7.363   6.620  17.112  0.00  0.00    +0.000 C 
ATOM     10  C   UNL     1       7.951   6.485  18.507  0.00  0.00    +0.000 C 
ATOM     11  C   UNL     1       6.884   5.723  19.293  0.00  0.00    +0.000 C 
ENDBRANCH   6   7
BRANCH   3  12
ATOM     12  C   UNL     1       1.243   2.459  19.770  0.00  0.00    +0.000 C 
ATOM     13  F   UNL     1       0.060   2.726  19.147  0.00  0.00    +0.000 F 
ATOM     14  F   UNL     1       1.521   1.154  19.500  0.00  0.00    +0.000 F 
ATOM     15  F   UNL     1       0.973   2.515  21.105  0.00  0.00    +0.000 F 
ENDBRANCH   3  12
BRANCH   1  17
ATOM     16  C   UNL     1       1.770   7.447  19.602  0.00  0.00    +0.000 C 
ATOM     17  N   UNL     1       2.962   7.059  19.267  0.00  0.00    +0.000 NA
BRANCH  16  27
ATOM     18  C   UNL     1       1.644   9.635  18.491  0.00  0.00    +0.000 A 
ATOM     19  C   UNL     1       1.269  10.970  18.410  0.00  0.00    +0.000 A 
ATOM     20  C   UNL     1       0.591  11.555  19.476  0.00  0.00    +0.000 A 
ATOM     21  C   UNL     1       0.296  10.825  20.641  0.00  0.00    +0.000 A 
ATOM     22  C   UNL     1      -0.388  11.457  21.694  0.00  0.00    +0.000 A 
ATOM     23  C   UNL     1      -0.682  10.776  22.874  0.00  0.00    +0.000 A 
ATOM     24  C   UNL     1      -0.283   9.459  23.022  0.00  0.00    +0.000 A 
ATOM     25  C   UNL     1       0.394   8.817  21.982  0.00  0.00    +0.000 A 
ATOM     26  C   UNL     1       0.688   9.466  20.752  0.00  0.00    +0.000 A 
ATOM     27  C   UNL     1       1.352   8.871  19.636  0.00  0.00    +0.000 A 
BRANCH  18  28
ATOM     28  O   UNL     1       2.296   9.065  17.429  0.00  0.00    +0.000 OA
ATOM     29  H   UNL     1       2.012   9.495  16.605  0.00  0.00    +0.000 HD
ENDBRANCH  18  28
ENDBRANCH  16  27
ENDBRANCH   1  17
TORSDOF 5
ENDMDL
MODEL 5
REMARK VINA RESULT:      -8.8      1.138      1.729
REMARK  Name = 
REMARK  5 active torsions:
REMARK  status: ('A' for Active; 'I' for Inactive)
REMARK    1  A    between atoms: O_1  and  C_2
REMARK    2  A    between atoms: C_11  and  C_12
REMARK    3  A    between atoms: N_13  and  C_14
REMARK    4  A    between atoms: C_16  and  C_17
REMARK    5  A    between atoms: C_23  and  N_24
REMARK                            x       y       z     vdW  Elec       q    Type
REMARK                         _______ _______ _______ _____ _____    ______ ____
ROOT
ATOM      1  C   UNL     1       5.397   4.456  15.573  0.00  0.00    +0.000 A 
ATOM      2  C   UNL     1       4.858   3.975  14.361  0.00  0.00    +0.000 A 
ATOM      3  C   UNL     1       5.611   3.893  13.188  0.00  0.00    +0.000 A 
ATOM      4  C   UNL     1       6.911   4.395  13.207  0.00  0.00    +0.000 A 
ATOM      5  C   UNL     1       7.447   4.920  14.390  0.00  0.00    +0.000 A 
ATOM      6  C   UNL     1       6.733   4.939  15.609  0.00  0.00    +0.000 A 
ENDROOT
BRANCH   6   7
ATOM      7  N   UNL     1       7.389   5.409  16.735  0.00  0.00    +0.000 N 
ATOM      8  C   UNL     1       7.707   4.624  17.920  0.00  0.00    +0.000 C 
ATOM      9  C   UNL     1       7.510   5.601  19.072  0.00  0.00    +0.000 C 
ATOM     10  C   UNL     1       7.910   6.939  18.472  0.00  0.00    +0.000 C 
ATOM     11  C   UNL     1       7.465   6.844  17.012  0.00  0.00    +0.000 C 
ENDBRANCH   6   7
BRANCH   3  12
ATOM     12  C   UNL     1       5.039   3.254  11.952  0.00  0.00    +0.000 C 
ATOM     13  F   UNL     1       3.698   3.020  12.029  0.00  0.00    +0.000 F 
ATOM     14  F   UNL     1       5.224   4.004  10.832  0.00  0.00    +0.000 F 
ATOM     15  F   UNL     1       5.606   2.042  11.690  0.00  0.00    +0.000 F 
ENDBRANCH   3  12
BRANCH   1  17
ATOM     16  C   UNL     1       4.252   5.747  17.148  0.00  0.00    +0.000 C 
ATOM     17  N   UNL     1       4.533   4.569  16.684  0.00  0.00    +0.000 NA
BRANCH  16  27
ATOM     18  C   UNL     1       3.317   4.919  19.264  0.00  0.00    +0.000 A 
ATOM     19  C   UNL     1       2.564   5.041  20.424  0.00  0.00    +0.000 A 
ATOM     20  C   UNL     1       1.881   6.229  20.673  0.00  0.00    +0.000 A 
ATOM     21  C   UNL     1       1.923   7.299  19.762  0.00  0.00    +0.000 A 
ATOM     22  C   UNL     1       1.216   8.478  20.053  0.00  0.00    +0.000 A 
ATOM     23  C   UNL     1       1.214   9.554  19.167  0.00  0.00    +0.000 A 
ATOM     24  C   UNL     1       1.907   9.460  17.973  0.00  0.00    +0.000 A 
ATOM     25  C   UNL     1       2.618   8.295  17.673  0.00  0.00    +0.000 A 
ATOM     26  C   UNL     1       2.669   7.186  18.561  0.00  0.00    +0.000 A 
ATOM     27  C   UNL     1       3.393   5.975  18.337  0.00  0.00    +0.000 A 
BRANCH  18  28
ATOM     28  O   UNL     1       3.999   3.751  19.038  0.00  0.00    +0.000 OA
ATOM     29  H   UNL     1       3.366   3.029  18.891  0.00  0.00    +0.000 HD
ENDBRANCH  18  28
ENDBRANCH  16  27
ENDBRANCH   1  17
TORSDOF 5
ENDMDL
MODEL 6
REMARK VINA RESULT:      -8.8      1.307      2.407
REMARK  Name = 
REMARK  5 active torsions:
REMARK  status: ('A' for Active; 'I' for Inactive)
REMARK    1  A    between atoms: O_1  and  C_2
REMARK    2  A    between atoms: C_11  and  C_12
REMARK    3  A    between atoms: N_13  and  C_14
REMARK    4  A    between atoms: C_16  and  C_17
REMARK    5  A    between atoms: C_23  and  N_24
REMARK                            x       y       z     vdW  Elec       q    Type
REMARK                         _______ _______ _______ _____ _____    ______ ____
ROOT
ATOM      1  C   UNL     1       5.476   4.368  15.649  0.00  0.00    +0.000 A 
ATOM      2  C   UNL     1       4.933   3.876  14.442  0.00  0.00    +0.000 A 
ATOM      3  C   UNL     1       5.653   3.873  13.246  0.00  0.00    +0.000 A 
ATOM      4  C   UNL     1       6.914   4.465  13.237  0.00  0.00    +0.000 A 
ATOM      5  C   UNL     1       7.449   5.002  14.415  0.00  0.00    +0.000 A 
ATOM      6  C   UNL     1       6.775   4.944  15.654  0.00  0.00    +0.000 A 
ENDROOT
BRANCH   6   7
ATOM      7  N   UNL     1       7.433   5.436  16.771  0.00  0.00    +0.000 N 
ATOM      8  C   UNL     1       7.811   4.657  17.942  0.00  0.00    +0.000 C 
ATOM      9  C   UNL     1       7.592   5.616  19.106  0.00  0.00    +0.000 C 
ATOM     10  C   UNL     1       7.919   6.975  18.509  0.00  0.00    +0.000 C 
ATOM     11  C   UNL     1       7.449   6.871  17.058  0.00  0.00    +0.000 C 
ENDBRANCH   6   7
BRANCH   3  12
ATOM     12  C   UNL     1       5.087   3.220  12.013  0.00  0.00    +0.000 C 
ATOM     13  F   UNL     1       5.584   1.972  11.779  0.00  0.00    +0.000 F 
ATOM     14  F   UNL     1       3.735   3.082  12.059  0.00  0.00    +0.000 F 
ATOM     15  F   UNL     1       5.352   3.937  10.884  0.00  0.00    +0.000 F 
ENDBRANCH   3  12
BRANCH   1  17
ATOM     16  C   UNL     1       4.026   5.496  17.092  0.00  0.00    +0.000 C 
ATOM     17  N   UNL     1       4.642   4.396  16.787  0.00  0.00    +0.000 NA
BRANCH  16  27
ATOM     18  C   UNL     1       2.888   6.963  18.700  0.00  0.00    +0.000 A 
ATOM     19  C   UNL     1       2.068   7.213  19.793  0.00  0.00    +0.000 A 
ATOM     20  C   UNL     1       1.509   6.142  20.487  0.00  0.00    +0.000 A 
ATOM     21  C   UNL     1       1.775   4.813  20.115  0.00  0.00    +0.000 A 
ATOM     22  C   UNL     1       1.192   3.764  20.845  0.00  0.00    +0.000 A 
ATOM     23  C   UNL     1       1.447   2.432  20.522  0.00  0.00    +0.000 A 
ATOM     24  C   UNL     1       2.300   2.133  19.473  0.00  0.00    +0.000 A 
ATOM     25  C   UNL     1       2.882   3.166  18.736  0.00  0.00    +0.000 A 
ATOM     26  C   UNL     1       2.627   4.536  19.014  0.00  0.00    +0.000 A 
ATOM     27  C   UNL     1       3.164   5.645  18.291  0.00  0.00    +0.000 A 
BRANCH  18  28
ATOM     28  O   UNL     1       3.418   8.024  18.015  0.00  0.00    +0.000 OA
ATOM     29  H   UNL     1       2.940   8.142  17.178  0.00  0.00    +0.000 HD
ENDBRANCH  18  28
ENDBRANCH  16  27
ENDBRANCH   1  17
TORSDOF 5
ENDMDL
MODEL 7
REMARK VINA RESULT:      -8.2      3.242      5.692
REMARK  Name = 
REMARK  5 active torsions:
REMARK  status: ('A' for Active; 'I' for Inactive)
REMARK    1  A    between atoms: O_1  and  C_2
REMARK    2  A    between atoms: C_11  and  C_12
REMARK    3  A    between atoms: N_13  and  C_14
REMARK    4  A    between atoms: C_16  and  C_17
REMARK    5  A    between atoms: C_23  and  N_24
REMARK                            x       y       z     vdW  Elec       q    Type
REMARK                         _______ _______ _______ _____ _____    ______ ____
ROOT
ATOM      1  C   UNL     1       3.307   6.063  18.261  0.00  0.00    +0.000 A 
ATOM      2  C   UNL     1       4.159   6.315  17.165  0.00  0.00    +0.000 A 
ATOM      3  C   UNL     1       4.760   5.288  16.433  0.00  0.00    +0.000 A 
ATOM      4  C   UNL     1       4.579   3.978  16.872  0.00  0.00    +0.000 A 
ATOM      5  C   UNL     1       3.775   3.713  17.988  0.00  0.00    +0.000 A 
ATOM      6  C   UNL     1       3.091   4.727  18.694  0.00  0.00    +0.000 A 
ENDROOT
BRANCH   6   7
ATOM      7  N   UNL     1       2.260   4.342  19.734  0.00  0.00    +0.000 N 
ATOM      8  C   UNL     1       2.530   4.541  21.152  0.00  0.00    +0.000 C 
ATOM      9  C   UNL     1       1.978   3.283  21.810  0.00  0.00    +0.000 C 
ATOM     10  C   UNL     1       0.791   2.918  20.934  0.00  0.00    +0.000 C 
ATOM     11  C   UNL     1       1.220   3.333  19.527  0.00  0.00    +0.000 C 
ENDBRANCH   6   7
BRANCH   3  12
ATOM     12  C   UNL     1       5.555   5.594  15.193  0.00  0.00    +0.000 C 
ATOM     13  F   UNL     1       6.898   5.672  15.410  0.00  0.00    +0.000 F 
ATOM     14  F   UNL     1       5.388   4.664  14.213  0.00  0.00    +0.000 F 
ATOM     15  F   UNL     1       5.204   6.789  14.638  0.00  0.00    +0.000 F 
ENDBRANCH   3  12
BRANCH   1  17
ATOM     16  C   UNL     1       2.066   8.040  18.368  0.00  0.00    +0.000 C 
ATOM     17  N   UNL     1       2.809   7.170  18.980  0.00  0.00    +0.000 NA
BRANCH  16  27
ATOM     18  C   UNL     1       1.712  10.470  18.323  0.00  0.00    +0.000 A 
ATOM     19  C   UNL     1       1.222  11.667  18.830  0.00  0.00    +0.000 A 
ATOM     20  C   UNL     1       0.536  11.663  20.042  0.00  0.00    +0.000 A 
ATOM     21  C   UNL     1       0.348  10.476  20.771  0.00  0.00    +0.000 A 
ATOM     22  C   UNL     1      -0.349  10.520  21.990  0.00  0.00    +0.000 A 
ATOM     23  C   UNL     1      -0.539   9.370  22.754  0.00  0.00    +0.000 A 
ATOM     24  C   UNL     1      -0.023   8.163  22.315  0.00  0.00    +0.000 A 
ATOM     25  C   UNL     1       0.667   8.104  21.101  0.00  0.00    +0.000 A 
ATOM     26  C   UNL     1       0.859   9.247  20.279  0.00  0.00    +0.000 A 
ATOM     27  C   UNL     1       1.529   9.261  19.018  0.00  0.00    +0.000 A 
BRANCH  18  28
ATOM     28  O   UNL     1       2.371  10.483  17.121  0.00  0.00    +0.000 OA
ATOM     29  H   UNL     1       2.045  11.220  16.580  0.00  0.00    +0.000 HD
ENDBRANCH  18  28
ENDBRANCH  16  27
ENDBRANCH   1  17
TORSDOF 5
ENDMDL
MODEL 8
REMARK VINA RESULT:      -8.2      3.895      5.767
REMARK  Name = 
REMARK  5 active torsions:
REMARK  status: ('A' for Active; 'I' for Inactive)
REMARK    1  A    between atoms: O_1  and  C_2
REMARK    2  A    between atoms: C_11  and  C_12
REMARK    3  A    between atoms: N_13  and  C_14
REMARK    4  A    between atoms: C_16  and  C_17
REMARK    5  A    between atoms: C_23  and  N_24
REMARK                            x       y       z     vdW  Elec       q    Type
REMARK                         _______ _______ _______ _____ _____    ______ ____
ROOT
ATOM      1  C   UNL     1       3.361   5.435  18.662  0.00  0.00    +0.000 A 
ATOM      2  C   UNL     1       2.287   4.584  18.999  0.00  0.00    +0.000 A 
ATOM      3  C   UNL     1       2.352   3.198  18.840  0.00  0.00    +0.000 A 
ATOM      4  C   UNL     1       3.487   2.660  18.238  0.00  0.00    +0.000 A 
ATOM      5  C   UNL     1       4.544   3.495  17.852  0.00  0.00    +0.000 A 
ATOM      6  C   UNL     1       4.536   4.889  18.077  0.00  0.00    +0.000 A 
ENDROOT
BRANCH   6   7
ATOM      7  N   UNL     1       5.669   5.607  17.727  0.00  0.00    +0.000 N 
ATOM      8  C   UNL     1       7.021   5.338  18.196  0.00  0.00    +0.000 C 
ATOM      9  C   UNL     1       7.633   6.723  18.366  0.00  0.00    +0.000 C 
ATOM     10  C   UNL     1       6.967   7.539  17.271  0.00  0.00    +0.000 C 
ATOM     11  C   UNL     1       5.557   6.956  17.172  0.00  0.00    +0.000 C 
ENDBRANCH   6   7
BRANCH   3  12
ATOM     12  C   UNL     1       1.237   2.317  19.333  0.00  0.00    +0.000 C 
ATOM     13  F   UNL     1       0.714   2.715  20.528  0.00  0.00    +0.000 F 
ATOM     14  F   UNL     1       0.189   2.252  18.469  0.00  0.00    +0.000 F 
ATOM     15  F   UNL     1       1.644   1.029  19.524  0.00  0.00    +0.000 F 
ENDBRANCH   3  12
BRANCH   1  17
ATOM     16  C   UNL     1       1.997   7.276  19.118  0.00  0.00    +0.000 C 
ATOM     17  N   UNL     1       3.169   6.827  18.790  0.00  0.00    +0.000 NA
BRANCH  16  27
ATOM     18  C   UNL     1       2.053   9.533  18.149  0.00  0.00    +0.000 A 
ATOM     19  C   UNL     1       1.773  10.894  18.146  0.00  0.00    +0.000 A 
ATOM     20  C   UNL     1       1.108  11.456  19.233  0.00  0.00    +0.000 A 
ATOM     21  C   UNL     1       0.732  10.677  20.341  0.00  0.00    +0.000 A 
ATOM     22  C   UNL     1       0.064  11.288  21.416  0.00  0.00    +0.000 A 
ATOM     23  C   UNL     1      -0.308  10.556  22.543  0.00  0.00    +0.000 A 
ATOM     24  C   UNL     1      -0.005   9.207  22.614  0.00  0.00    +0.000 A 
ATOM     25  C   UNL     1       0.655   8.586  21.550  0.00  0.00    +0.000 A 
ATOM     26  C   UNL     1       1.026   9.290  20.372  0.00  0.00    +0.000 A 
ATOM     27  C   UNL     1       1.677   8.721  19.235  0.00  0.00    +0.000 A 
BRANCH  18  28
ATOM     28  O   UNL     1       2.693   8.987  17.067  0.00  0.00    +0.000 OA
ATOM     29  H   UNL     1       2.147   9.108  16.273  0.00  0.00    +0.000 HD
ENDBRANCH  18  28
ENDBRANCH  16  27
ENDBRANCH   1  17
TORSDOF 5
ENDMDL
MODEL 9
REMARK VINA RESULT:      -7.9      2.939      5.265
REMARK  Name = 
REMARK  5 active torsions:
REMARK  status: ('A' for Active; 'I' for Inactive)
REMARK    1  A    between atoms: O_1  and  C_2
REMARK    2  A    between atoms: C_11  and  C_12
REMARK    3  A    between atoms: N_13  and  C_14
REMARK    4  A    between atoms: C_16  and  C_17
REMARK    5  A    between atoms: C_23  and  N_24
REMARK                            x       y       z     vdW  Elec       q    Type
REMARK                         _______ _______ _______ _____ _____    ______ ____
ROOT
ATOM      1  C   UNL     1       3.518   5.220  18.288  0.00  0.00    +0.000 A 
ATOM      2  C   UNL     1       4.317   5.742  17.248  0.00  0.00    +0.000 A 
ATOM      3  C   UNL     1       4.966   4.923  16.321  0.00  0.00    +0.000 A 
ATOM      4  C   UNL     1       4.890   3.543  16.499  0.00  0.00    +0.000 A 
ATOM      5  C   UNL     1       4.142   3.008  17.555  0.00  0.00    +0.000 A 
ATOM      6  C   UNL     1       3.410   3.813  18.455  0.00  0.00    +0.000 A 
ENDROOT
BRANCH   6   7
ATOM      7  N   UNL     1       2.639   3.173  19.414  0.00  0.00    +0.000 N 
ATOM      8  C   UNL     1       1.195   2.997  19.360  0.00  0.00    +0.000 C 
ATOM      9  C   UNL     1       0.751   3.158  20.809  0.00  0.00    +0.000 C 
ATOM     10  C   UNL     1       1.921   2.596  21.600  0.00  0.00    +0.000 C 
ATOM     11  C   UNL     1       3.150   2.971  20.771  0.00  0.00    +0.000 C 
ENDBRANCH   6   7
BRANCH   3  12
ATOM     12  C   UNL     1       5.699   5.522  15.152  0.00  0.00    +0.000 C 
ATOM     13  F   UNL     1       7.033   5.696  15.375  0.00  0.00    +0.000 F 
ATOM     14  F   UNL     1       5.605   4.767  14.023  0.00  0.00    +0.000 F 
ATOM     15  F   UNL     1       5.220   6.754  14.819  0.00  0.00    +0.000 F 
ENDBRANCH   3  12
BRANCH   1  17
ATOM     16  C   UNL     1       2.345   7.179  18.781  0.00  0.00    +0.000 C 
ATOM     17  N   UNL     1       2.965   6.126  19.217  0.00  0.00    +0.000 NA
BRANCH  16  27
ATOM     18  C   UNL     1       1.311   7.778  20.927  0.00  0.00    +0.000 A 
ATOM     19  C   UNL     1       0.780   8.673  21.847  0.00  0.00    +0.000 A 
ATOM     20  C   UNL     1       0.705  10.025  21.518  0.00  0.00    +0.000 A 
ATOM     21  C   UNL     1       1.138  10.496  20.267  0.00  0.00    +0.000 A 
ATOM     22  C   UNL     1       1.042  11.868  19.977  0.00  0.00    +0.000 A 
ATOM     23  C   UNL     1       1.440  12.374  18.741  0.00  0.00    +0.000 A 
ATOM     24  C   UNL     1       1.928  11.512  17.773  0.00  0.00    +0.000 A 
ATOM     25  C   UNL     1       2.033  10.146  18.049  0.00  0.00    +0.000 A 
ATOM     26  C   UNL     1       1.665   9.594  19.306  0.00  0.00    +0.000 A 
ATOM     27  C   UNL     1       1.768   8.217  19.672  0.00  0.00    +0.000 A 
BRANCH  18  28
ATOM     28  O   UNL     1       1.395   6.453  21.268  0.00  0.00    +0.000 OA
ATOM     29  H   UNL     1       1.110   5.906  20.517  0.00  0.00    +0.000 HD
ENDBRANCH  18  28
ENDBRANCH  16  27
ENDBRANCH   1  17
TORSDOF 5
ENDMDL
