MODEL 1
REMARK VINA RESULT:      -5.5      0.000      0.000
REMARK  Name = 
REMARK  10 active torsions:
REMARK  status: ('A' for Active; 'I' for Inactive)
REMARK    1  A    between atoms: C_1  and  O_2
REMARK    2  A    between atoms: O_2  and  C_3
REMARK    3  A    between atoms: C_3  and  C_4
REMARK    4  A    between atoms: C_4  and  C_5
REMARK    5  A    between atoms: C_5  and  N_6
REMARK    6  A    between atoms: C_7  and  O_9
REMARK    7  A    between atoms: O_9  and  C_10
REMARK    8  A    between atoms: C_10  and  C_11
REMARK    9  A    between atoms: C_11  and  C_12
REMARK   10  A    between atoms: C_12  and  C_13
REMARK                            x       y       z     vdW  Elec       q    Type
REMARK                         _______ _______ _______ _____ _____    ______ ____
ROOT
ATOM      1  O   UNL     1       4.385   5.546  18.105  0.00  0.00    +0.000 OA
ENDROOT
BRANCH   1   3
ATOM      2  N   UNL     1       2.344   4.556  18.106  0.00  0.00    +0.000 N 
ATOM      3  C   UNL     1       3.253   5.274  18.809  0.00  0.00    +0.000 C 
ATOM      4  O   UNL     1       2.983   5.747  19.906  0.00  0.00    +0.000 OA
ATOM      5  H   UNL     1       1.436   4.551  18.546  0.00  0.00    +0.000 HD
BRANCH   2   6
ATOM      6  C   UNL     1       2.647   3.488  17.177  0.00  0.00    +0.000 C 
BRANCH   6   7
ATOM      7  C   UNL     1       2.530   2.154  17.915  0.00  0.00    +0.000 C 
BRANCH   7   8
ATOM      8  C   UNL     1       1.482   2.189  19.014  0.00  0.00    +0.000 C 
BRANCH   8  10
ATOM      9  C   UNL     1       1.279   2.850  21.267  0.00  0.00    +0.000 C 
ATOM     10  O   UNL     1       2.140   2.320  20.270  0.00  0.00    +0.000 OA
ENDBRANCH   8  10
ENDBRANCH   7   8
ENDBRANCH   6   7
ENDBRANCH   2   6
ENDBRANCH   1   3
BRANCH   1  11
ATOM     11  C   UNL     1       5.569   5.462  18.907  0.00  0.00    +0.000 C 
BRANCH  11  12
ATOM     12  C   UNL     1       6.809   5.913  18.153  0.00  0.00    +0.000 C 
BRANCH  12  13
ATOM     13  C   UNL     1       7.487   4.702  17.509  0.00  0.00    +0.000 C 
BRANCH  13  14
ATOM     14  C   UNL     1       7.049   4.485  16.108  0.00  0.00    +0.000 A 
ATOM     15  C   UNL     1       6.155   3.558  15.616  0.00  0.00    +0.000 A 
ATOM     16  N   UNL     1       6.105   3.793  14.271  0.00  0.00    +0.000 N 
ATOM     17  C   UNL     1       6.954   4.828  14.001  0.00  0.00    +0.000 A 
ATOM     18  N   UNL     1       7.540   5.264  15.089  0.00  0.00    +0.000 NA
ATOM     19  H   UNL     1       5.536   3.296  13.587  0.00  0.00    +0.000 HD
ENDBRANCH  13  14
ENDBRANCH  12  13
ENDBRANCH  11  12
ENDBRANCH   1  11
TORSDOF 9
ENDMDL
MODEL 2
REMARK VINA RESULT:      -5.3      2.212      5.802
REMARK  Name = 
REMARK  10 active torsions:
REMARK  status: ('A' for Active; 'I' for Inactive)
REMARK    1  A    between atoms: C_1  and  O_2
REMARK    2  A    between atoms: O_2  and  C_3
REMARK    3  A    between atoms: C_3  and  C_4
REMARK    4  A    between atoms: C_4  and  C_5
REMARK    5  A    between atoms: C_5  and  N_6
REMARK    6  A    between atoms: C_7  and  O_9
REMARK    7  A    between atoms: O_9  and  C_10
REMARK    8  A    between atoms: C_10  and  C_11
REMARK    9  A    between atoms: C_11  and  C_12
REMARK   10  A    between atoms: C_12  and  C_13
REMARK                            x       y       z     vdW  Elec       q    Type
REMARK                         _______ _______ _______ _____ _____    ______ ____
ROOT
ATOM      1  O   UNL     1       6.142   4.225  18.589  0.00  0.00    +0.000 OA
ENDROOT
BRANCH   1   3
ATOM      2  N   UNL     1       7.617   5.618  17.573  0.00  0.00    +0.000 N 
ATOM      3  C   UNL     1       7.117   5.161  18.747  0.00  0.00    +0.000 C 
ATOM      4  O   UNL     1       7.625   5.465  19.818  0.00  0.00    +0.000 OA
ATOM      5  H   UNL     1       8.476   6.133  17.696  0.00  0.00    +0.000 HD
BRANCH   2   6
ATOM      6  C   UNL     1       6.854   5.860  16.367  0.00  0.00    +0.000 C 
BRANCH   6   7
ATOM      7  C   UNL     1       7.195   4.771  15.349  0.00  0.00    +0.000 C 
BRANCH   7   8
ATOM      8  C   UNL     1       5.976   4.297  14.576  0.00  0.00    +0.000 C 
BRANCH   8  10
ATOM      9  C   UNL     1       5.384   3.442  12.462  0.00  0.00    +0.000 C 
ATOM     10  O   UNL     1       6.413   3.572  13.431  0.00  0.00    +0.000 OA
ENDBRANCH   8  10
ENDBRANCH   7   8
ENDBRANCH   6   7
ENDBRANCH   2   6
ENDBRANCH   1   3
BRANCH   1  11
ATOM     11  C   UNL     1       4.956   4.530  19.332  0.00  0.00    +0.000 C 
BRANCH  11  12
ATOM     12  C   UNL     1       4.017   5.447  18.567  0.00  0.00    +0.000 C 
BRANCH  12  13
ATOM     13  C   UNL     1       3.313   4.656  17.463  0.00  0.00    +0.000 C 
BRANCH  13  14
ATOM     14  C   UNL     1       2.469   3.561  18.001  0.00  0.00    +0.000 A 
ATOM     15  C   UNL     1       2.627   2.198  17.860  0.00  0.00    +0.000 A 
ATOM     16  N   UNL     1       1.589   1.647  18.556  0.00  0.00    +0.000 N 
ATOM     17  C   UNL     1       0.853   2.671  19.079  0.00  0.00    +0.000 A 
ATOM     18  N   UNL     1       1.357   3.837  18.758  0.00  0.00    +0.000 NA
ATOM     19  H   UNL     1       1.395   0.653  18.674  0.00  0.00    +0.000 HD
ENDBRANCH  13  14
ENDBRANCH  12  13
ENDBRANCH  11  12
ENDBRANCH   1  11
TORSDOF 9
ENDMDL
MODEL 3
REMARK VINA RESULT:      -5.3      2.307      6.262
REMARK  Name = 
REMARK  10 active torsions:
REMARK  status: ('A' for Active; 'I' for Inactive)
REMARK    1  A    between atoms: C_1  and  O_2
REMARK    2  A    between atoms: O_2  and  C_3
REMARK    3  A    between atoms: C_3  and  C_4
REMARK    4  A    between atoms: C_4  and  C_5
REMARK    5  A    between atoms: C_5  and  N_6
REMARK    6  A    between atoms: C_7  and  O_9
REMARK    7  A    between atoms: O_9  and  C_10
REMARK    8  A    between atoms: C_10  and  C_11
REMARK    9  A    between atoms: C_11  and  C_12
REMARK   10  A    between atoms: C_12  and  C_13
REMARK                            x       y       z     vdW  Elec       q    Type
REMARK                         _______ _______ _______ _____ _____    ______ ____
ROOT
ATOM      1  O   UNL     1       4.430   4.474  18.079  0.00  0.00    +0.000 OA
ENDROOT
BRANCH   1   3
ATOM      2  N   UNL     1       6.423   4.492  19.164  0.00  0.00    +0.000 N 
ATOM      3  C   UNL     1       5.210   3.902  19.036  0.00  0.00    +0.000 C 
ATOM      4  O   UNL     1       4.940   2.865  19.628  0.00  0.00    +0.000 OA
ATOM      5  H   UNL     1       7.066   3.935  19.705  0.00  0.00    +0.000 HD
BRANCH   2   6
ATOM      6  C   UNL     1       6.687   5.912  19.058  0.00  0.00    +0.000 C 
BRANCH   6   7
ATOM      7  C   UNL     1       7.606   6.147  17.858  0.00  0.00    +0.000 C 
BRANCH   7   8
ATOM      8  C   UNL     1       6.910   5.888  16.534  0.00  0.00    +0.000 C 
BRANCH   8  10
ATOM      9  C   UNL     1       6.678   4.279  14.828  0.00  0.00    +0.000 C 
ATOM     10  O   UNL     1       7.383   4.654  16.001  0.00  0.00    +0.000 OA
ENDBRANCH   8  10
ENDBRANCH   7   8
ENDBRANCH   6   7
ENDBRANCH   2   6
ENDBRANCH   1   3
BRANCH   1  11
ATOM     11  C   UNL     1       3.550   3.536  17.448  0.00  0.00    +0.000 C 
BRANCH  11  12
ATOM     12  C   UNL     1       2.144   4.087  17.285  0.00  0.00    +0.000 C 
BRANCH  12  13
ATOM     13  C   UNL     1       1.193   3.356  18.234  0.00  0.00    +0.000 C 
BRANCH  13  14
ATOM     14  C   UNL     1       1.597   3.490  19.656  0.00  0.00    +0.000 A 
ATOM     15  C   UNL     1       1.862   4.636  20.374  0.00  0.00    +0.000 A 
ATOM     16  N   UNL     1       2.177   4.202  21.631  0.00  0.00    +0.000 N 
ATOM     17  C   UNL     1       2.097   2.839  21.629  0.00  0.00    +0.000 A 
ATOM     18  N   UNL     1       1.753   2.380  20.450  0.00  0.00    +0.000 NA
ATOM     19  H   UNL     1       2.422   4.783  22.432  0.00  0.00    +0.000 HD
ENDBRANCH  13  14
ENDBRANCH  12  13
ENDBRANCH  11  12
ENDBRANCH   1  11
TORSDOF 9
ENDMDL
MODEL 4
REMARK VINA RESULT:      -5.3      2.396      6.277
REMARK  Name = 
REMARK  10 active torsions:
REMARK  status: ('A' for Active; 'I' for Inactive)
REMARK    1  A    between atoms: C_1  and  O_2
REMARK    2  A    between atoms: O_2  and  C_3
REMARK    3  A    between atoms: C_3  and  C_4
REMARK    4  A    between atoms: C_4  and  C_5
REMARK    5  A    between atoms: C_5  and  N_6
REMARK    6  A    between atoms: C_7  and  O_9
REMARK    7  A    between atoms: O_9  and  C_10
REMARK    8  A    between atoms: C_10  and  C_11
REMARK    9  A    between atoms: C_11  and  C_12
REMARK   10  A    between atoms: C_12  and  C_13
REMARK                            x       y       z     vdW  Elec       q    Type
REMARK                         _______ _______ _______ _____ _____    ______ ____
ROOT
ATOM      1  O   UNL     1       4.467   3.484  17.651  0.00  0.00    +0.000 OA
ENDROOT
BRANCH   1   3
ATOM      2  N   UNL     1       5.601   5.138  18.712  0.00  0.00    +0.000 N 
ATOM      3  C   UNL     1       5.099   3.881  18.788  0.00  0.00    +0.000 C 
ATOM      4  O   UNL     1       5.348   3.152  19.740  0.00  0.00    +0.000 OA
ATOM      5  H   UNL     1       6.249   5.339  19.458  0.00  0.00    +0.000 HD
BRANCH   2   6
ATOM      6  C   UNL     1       4.971   6.259  18.048  0.00  0.00    +0.000 C 
BRANCH   6   7
ATOM      7  C   UNL     1       5.740   6.555  16.759  0.00  0.00    +0.000 C 
BRANCH   7   8
ATOM      8  C   UNL     1       7.233   6.316  16.906  0.00  0.00    +0.000 C 
BRANCH   8  10
ATOM      9  C   UNL     1       6.836   4.791  15.155  0.00  0.00    +0.000 C 
ATOM     10  O   UNL     1       7.549   5.041  16.357  0.00  0.00    +0.000 OA
ENDBRANCH   8  10
ENDBRANCH   7   8
ENDBRANCH   6   7
ENDBRANCH   2   6
ENDBRANCH   1   3
BRANCH   1  11
ATOM     11  C   UNL     1       3.488   2.465  17.889  0.00  0.00    +0.000 C 
BRANCH  11  12
ATOM     12  C   UNL     1       2.085   2.918  17.526  0.00  0.00    +0.000 C 
BRANCH  12  13
ATOM     13  C   UNL     1       1.662   4.068  18.442  0.00  0.00    +0.000 C 
BRANCH  13  14
ATOM     14  C   UNL     1       1.748   3.708  19.879  0.00  0.00    +0.000 A 
ATOM     15  C   UNL     1       2.368   4.389  20.905  0.00  0.00    +0.000 A 
ATOM     16  N   UNL     1       2.139   3.635  22.021  0.00  0.00    +0.000 N 
ATOM     17  C   UNL     1       1.408   2.547  21.640  0.00  0.00    +0.000 A 
ATOM     18  N   UNL     1       1.160   2.561  20.353  0.00  0.00    +0.000 NA
ATOM     19  H   UNL     1       2.448   3.842  22.970  0.00  0.00    +0.000 HD
ENDBRANCH  13  14
ENDBRANCH  12  13
ENDBRANCH  11  12
ENDBRANCH   1  11
TORSDOF 9
ENDMDL
MODEL 5
REMARK VINA RESULT:      -5.3      1.422      1.643
REMARK  Name = 
REMARK  10 active torsions:
REMARK  status: ('A' for Active; 'I' for Inactive)
REMARK    1  A    between atoms: C_1  and  O_2
REMARK    2  A    between atoms: O_2  and  C_3
REMARK    3  A    between atoms: C_3  and  C_4
REMARK    4  A    between atoms: C_4  and  C_5
REMARK    5  A    between atoms: C_5  and  N_6
REMARK    6  A    between atoms: C_7  and  O_9
REMARK    7  A    between atoms: O_9  and  C_10
REMARK    8  A    between atoms: C_10  and  C_11
REMARK    9  A    between atoms: C_11  and  C_12
REMARK   10  A    between atoms: C_12  and  C_13
REMARK                            x       y       z     vdW  Elec       q    Type
REMARK                         _______ _______ _______ _____ _____    ______ ____
ROOT
ATOM      1  O   UNL     1       4.063   4.788  17.960  0.00  0.00    +0.000 OA
ENDROOT
BRANCH   1   3
ATOM      2  N   UNL     1       3.878   2.742  18.922  0.00  0.00    +0.000 N 
ATOM      3  C   UNL     1       4.684   3.799  18.658  0.00  0.00    +0.000 C 
ATOM      4  O   UNL     1       5.802   3.888  19.149  0.00  0.00    +0.000 OA
ATOM      5  H   UNL     1       4.270   2.125  19.618  0.00  0.00    +0.000 HD
BRANCH   2   6
ATOM      6  C   UNL     1       2.878   2.199  18.028  0.00  0.00    +0.000 C 
BRANCH   6   7
ATOM      7  C   UNL     1       1.545   2.127  18.776  0.00  0.00    +0.000 C 
BRANCH   7   8
ATOM      8  C   UNL     1       1.165   3.454  19.410  0.00  0.00    +0.000 C 
BRANCH   8  10
ATOM      9  C   UNL     1       1.638   2.641  21.569  0.00  0.00    +0.000 C 
ATOM     10  O   UNL     1       0.655   3.208  20.717  0.00  0.00    +0.000 OA
ENDBRANCH   8  10
ENDBRANCH   7   8
ENDBRANCH   6   7
ENDBRANCH   2   6
ENDBRANCH   1   3
BRANCH   1  11
ATOM     11  C   UNL     1       4.711   6.058  18.103  0.00  0.00    +0.000 C 
BRANCH  11  12
ATOM     12  C   UNL     1       5.231   6.591  16.779  0.00  0.00    +0.000 C 
BRANCH  12  13
ATOM     13  C   UNL     1       6.628   6.027  16.511  0.00  0.00    +0.000 C 
BRANCH  13  14
ATOM     14  C   UNL     1       6.653   5.108  15.346  0.00  0.00    +0.000 A 
ATOM     15  C   UNL     1       6.013   3.897  15.187  0.00  0.00    +0.000 A 
ATOM     16  N   UNL     1       6.361   3.473  13.935  0.00  0.00    +0.000 N 
ATOM     17  C   UNL     1       7.183   4.420  13.394  0.00  0.00    +0.000 A 
ATOM     18  N   UNL     1       7.380   5.416  14.223  0.00  0.00    +0.000 NA
ATOM     19  H   UNL     1       6.062   2.613  13.479  0.00  0.00    +0.000 HD
ENDBRANCH  13  14
ENDBRANCH  12  13
ENDBRANCH  11  12
ENDBRANCH   1  11
TORSDOF 9
ENDMDL
MODEL 6
REMARK VINA RESULT:      -5.2      2.165      5.239
REMARK  Name = 
REMARK  10 active torsions:
REMARK  status: ('A' for Active; 'I' for Inactive)
REMARK    1  A    between atoms: C_1  and  O_2
REMARK    2  A    between atoms: O_2  and  C_3
REMARK    3  A    between atoms: C_3  and  C_4
REMARK    4  A    between atoms: C_4  and  C_5
REMARK    5  A    between atoms: C_5  and  N_6
REMARK    6  A    between atoms: C_7  and  O_9
REMARK    7  A    between atoms: O_9  and  C_10
REMARK    8  A    between atoms: C_10  and  C_11
REMARK    9  A    between atoms: C_11  and  C_12
REMARK   10  A    between atoms: C_12  and  C_13
REMARK                            x       y       z     vdW  Elec       q    Type
REMARK                         _______ _______ _______ _____ _____    ______ ____
ROOT
ATOM      1  O   UNL     1       3.662   5.903  19.007  0.00  0.00    +0.000 OA
ENDROOT
BRANCH   1   3
ATOM      2  N   UNL     1       4.586   6.104  16.945  0.00  0.00    +0.000 N 
ATOM      3  C   UNL     1       3.744   6.636  17.865  0.00  0.00    +0.000 C 
ATOM      4  O   UNL     1       3.249   7.746  17.711  0.00  0.00    +0.000 OA
ATOM      5  H   UNL     1       4.810   6.755  16.208  0.00  0.00    +0.000 HD
BRANCH   2   6
ATOM      6  C   UNL     1       4.753   4.693  16.670  0.00  0.00    +0.000 C 
BRANCH   6   7
ATOM      7  C   UNL     1       6.124   4.483  16.026  0.00  0.00    +0.000 C 
BRANCH   7   8
ATOM      8  C   UNL     1       7.254   4.524  17.041  0.00  0.00    +0.000 C 
BRANCH   8  10
ATOM      9  C   UNL     1       7.742   5.928  18.869  0.00  0.00    +0.000 C 
ATOM     10  O   UNL     1       7.419   5.866  17.488  0.00  0.00    +0.000 OA
ENDBRANCH   8  10
ENDBRANCH   7   8
ENDBRANCH   6   7
ENDBRANCH   2   6
ENDBRANCH   1   3
BRANCH   1  11
ATOM     11  C   UNL     1       2.310   5.609  19.381  0.00  0.00    +0.000 C 
BRANCH  11  12
ATOM     12  C   UNL     1       2.212   5.031  20.782  0.00  0.00    +0.000 C 
BRANCH  12  13
ATOM     13  C   UNL     1       1.807   3.558  20.702  0.00  0.00    +0.000 C 
BRANCH  13  14
ATOM     14  C   UNL     1       2.777   2.744  19.927  0.00  0.00    +0.000 A 
ATOM     15  C   UNL     1       4.099   2.474  20.212  0.00  0.00    +0.000 A 
ATOM     16  N   UNL     1       4.526   1.675  19.188  0.00  0.00    +0.000 N 
ATOM     17  C   UNL     1       3.472   1.496  18.339  0.00  0.00    +0.000 A 
ATOM     18  N   UNL     1       2.405   2.132  18.756  0.00  0.00    +0.000 NA
ATOM     19  H   UNL     1       5.456   1.276  19.075  0.00  0.00    +0.000 HD
ENDBRANCH  13  14
ENDBRANCH  12  13
ENDBRANCH  11  12
ENDBRANCH   1  11
TORSDOF 9
ENDMDL
MODEL 7
REMARK VINA RESULT:      -5.2      1.825      2.744
REMARK  Name = 
REMARK  10 active torsions:
REMARK  status: ('A' for Active; 'I' for Inactive)
REMARK    1  A    between atoms: C_1  and  O_2
REMARK    2  A    between atoms: O_2  and  C_3
REMARK    3  A    between atoms: C_3  and  C_4
REMARK    4  A    between atoms: C_4  and  C_5
REMARK    5  A    between atoms: C_5  and  N_6
REMARK    6  A    between atoms: C_7  and  O_9
REMARK    7  A    between atoms: O_9  and  C_10
REMARK    8  A    between atoms: C_10  and  C_11
REMARK    9  A    between atoms: C_11  and  C_12
REMARK   10  A    between atoms: C_12  and  C_13
REMARK                            x       y       z     vdW  Elec       q    Type
REMARK                         _______ _______ _______ _____ _____    ______ ____
ROOT
ATOM      1  O   UNL     1       3.196   3.219  17.534  0.00  0.00    +0.000 OA
ENDROOT
BRANCH   1   3
ATOM      2  N   UNL     1       2.095   1.802  18.921  0.00  0.00    +0.000 N 
ATOM      3  C   UNL     1       3.101   1.955  18.025  0.00  0.00    +0.000 C 
ATOM      4  O   UNL     1       3.917   1.064  17.824  0.00  0.00    +0.000 OA
ATOM      5  H   UNL     1       2.169   0.939  19.438  0.00  0.00    +0.000 HD
BRANCH   2   6
ATOM      6  C   UNL     1       0.793   2.429  18.844  0.00  0.00    +0.000 C 
BRANCH   6   7
ATOM      7  C   UNL     1       0.604   3.309  20.080  0.00  0.00    +0.000 C 
BRANCH   7   8
ATOM      8  C   UNL     1       1.318   2.755  21.301  0.00  0.00    +0.000 C 
BRANCH   8  10
ATOM      9  C   UNL     1       2.251   4.896  20.992  0.00  0.00    +0.000 C 
ATOM     10  O   UNL     1       2.357   3.655  21.672  0.00  0.00    +0.000 OA
ENDBRANCH   8  10
ENDBRANCH   7   8
ENDBRANCH   6   7
ENDBRANCH   2   6
ENDBRANCH   1   3
BRANCH   1  11
ATOM     11  C   UNL     1       4.401   3.881  17.938  0.00  0.00    +0.000 C 
BRANCH  11  12
ATOM     12  C   UNL     1       4.203   5.376  18.123  0.00  0.00    +0.000 C 
BRANCH  12  13
ATOM     13  C   UNL     1       4.460   6.096  16.798  0.00  0.00    +0.000 C 
BRANCH  13  14
ATOM     14  C   UNL     1       5.623   5.535  16.066  0.00  0.00    +0.000 A 
ATOM     15  C   UNL     1       6.964   5.630  16.371  0.00  0.00    +0.000 A 
ATOM     16  N   UNL     1       7.603   4.933  15.385  0.00  0.00    +0.000 N 
ATOM     17  C   UNL     1       6.648   4.453  14.535  0.00  0.00    +0.000 A 
ATOM     18  N   UNL     1       5.444   4.803  14.918  0.00  0.00    +0.000 NA
ATOM     19  H   UNL     1       8.607   4.786  15.295  0.00  0.00    +0.000 HD
ENDBRANCH  13  14
ENDBRANCH  12  13
ENDBRANCH  11  12
ENDBRANCH   1  11
TORSDOF 9
ENDMDL
MODEL 8
REMARK VINA RESULT:      -5.2      2.381      5.532
REMARK  Name = 
REMARK  10 active torsions:
REMARK  status: ('A' for Active; 'I' for Inactive)
REMARK    1  A    between atoms: C_1  and  O_2
REMARK    2  A    between atoms: O_2  and  C_3
REMARK    3  A    between atoms: C_3  and  C_4
REMARK    4  A    between atoms: C_4  and  C_5
REMARK    5  A    between atoms: C_5  and  N_6
REMARK    6  A    between atoms: C_7  and  O_9
REMARK    7  A    between atoms: O_9  and  C_10
REMARK    8  A    between atoms: C_10  and  C_11
REMARK    9  A    between atoms: C_11  and  C_12
REMARK   10  A    between atoms: C_12  and  C_13
REMARK                            x       y       z     vdW  Elec       q    Type
REMARK                         _______ _______ _______ _____ _____    ______ ____
ROOT
ATOM      1  O   UNL     1       5.160   6.218  17.959  0.00  0.00    +0.000 OA
ENDROOT
BRANCH   1   3
ATOM      2  N   UNL     1       6.453   4.388  17.604  0.00  0.00    +0.000 N 
ATOM      3  C   UNL     1       5.962   5.268  18.511  0.00  0.00    +0.000 C 
ATOM      4  O   UNL     1       6.119   5.099  19.713  0.00  0.00    +0.000 OA
ATOM      5  H   UNL     1       6.855   3.572  18.040  0.00  0.00    +0.000 HD
BRANCH   2   6
ATOM      6  C   UNL     1       6.878   4.711  16.259  0.00  0.00    +0.000 C 
BRANCH   6   7
ATOM      7  C   UNL     1       6.243   3.707  15.294  0.00  0.00    +0.000 C 
BRANCH   7   8
ATOM      8  C   UNL     1       6.049   4.283  13.902  0.00  0.00    +0.000 C 
BRANCH   8  10
ATOM      9  C   UNL     1       5.205   3.254  11.958  0.00  0.00    +0.000 C 
ATOM     10  O   UNL     1       6.223   3.241  12.947  0.00  0.00    +0.000 OA
ENDBRANCH   8  10
ENDBRANCH   7   8
ENDBRANCH   6   7
ENDBRANCH   2   6
ENDBRANCH   1   3
BRANCH   1  11
ATOM     11  C   UNL     1       3.973   5.669  17.374  0.00  0.00    +0.000 C 
BRANCH  11  12
ATOM     12  C   UNL     1       2.774   5.772  18.301  0.00  0.00    +0.000 C 
BRANCH  12  13
ATOM     13  C   UNL     1       2.020   4.441  18.315  0.00  0.00    +0.000 C 
BRANCH  13  14
ATOM     14  C   UNL     1       2.895   3.298  18.678  0.00  0.00    +0.000 A 
ATOM     15  C   UNL     1       3.293   2.233  17.898  0.00  0.00    +0.000 A 
ATOM     16  N   UNL     1       4.096   1.481  18.708  0.00  0.00    +0.000 N 
ATOM     17  C   UNL     1       4.153   2.102  19.923  0.00  0.00    +0.000 A 
ATOM     18  N   UNL     1       3.435   3.198  19.936  0.00  0.00    +0.000 NA
ATOM     19  H   UNL     1       4.575   0.617  18.458  0.00  0.00    +0.000 HD
ENDBRANCH  13  14
ENDBRANCH  12  13
ENDBRANCH  11  12
ENDBRANCH   1  11
TORSDOF 9
ENDMDL
MODEL 9
REMARK VINA RESULT:      -5.2      2.042      5.390
REMARK  Name = 
REMARK  10 active torsions:
REMARK  status: ('A' for Active; 'I' for Inactive)
REMARK    1  A    between atoms: C_1  and  O_2
REMARK    2  A    between atoms: O_2  and  C_3
REMARK    3  A    between atoms: C_3  and  C_4
REMARK    4  A    between atoms: C_4  and  C_5
REMARK    5  A    between atoms: C_5  and  N_6
REMARK    6  A    between atoms: C_7  and  O_9
REMARK    7  A    between atoms: O_9  and  C_10
REMARK    8  A    between atoms: C_10  and  C_11
REMARK    9  A    between atoms: C_11  and  C_12
REMARK   10  A    between atoms: C_12  and  C_13
REMARK                            x       y       z     vdW  Elec       q    Type
REMARK                         _______ _______ _______ _____ _____    ______ ____
ROOT
ATOM      1  O   UNL     1       3.841   5.845  19.462  0.00  0.00    +0.000 OA
ENDROOT
BRANCH   1   3
ATOM      2  N   UNL     1       5.498   5.893  17.914  0.00  0.00    +0.000 N 
ATOM      3  C   UNL     1       4.210   6.203  18.203  0.00  0.00    +0.000 C 
ATOM      4  O   UNL     1       3.530   6.877  17.440  0.00  0.00    +0.000 OA
ATOM      5  H   UNL     1       5.825   6.353  17.077  0.00  0.00    +0.000 HD
BRANCH   2   6
ATOM      6  C   UNL     1       6.195   4.699  18.341  0.00  0.00    +0.000 C 
BRANCH   6   7
ATOM      7  C   UNL     1       7.496   4.584  17.544  0.00  0.00    +0.000 C 
BRANCH   7   8
ATOM      8  C   UNL     1       7.277   4.749  16.050  0.00  0.00    +0.000 C 
BRANCH   8  10
ATOM      9  C   UNL     1       6.014   3.928  14.239  0.00  0.00    +0.000 C 
ATOM     10  O   UNL     1       6.241   3.863  15.639  0.00  0.00    +0.000 OA
ENDBRANCH   8  10
ENDBRANCH   7   8
ENDBRANCH   6   7
ENDBRANCH   2   6
ENDBRANCH   1   3
BRANCH   1  11
ATOM     11  C   UNL     1       2.438   6.015  19.696  0.00  0.00    +0.000 C 
BRANCH  11  12
ATOM     12  C   UNL     1       1.918   5.088  20.782  0.00  0.00    +0.000 C 
BRANCH  12  13
ATOM     13  C   UNL     1       1.361   3.813  20.146  0.00  0.00    +0.000 C 
BRANCH  13  14
ATOM     14  C   UNL     1       2.418   2.989  19.510  0.00  0.00    +0.000 A 
ATOM     15  C   UNL     1       3.562   2.465  20.074  0.00  0.00    +0.000 A 
ATOM     16  N   UNL     1       4.177   1.784  19.061  0.00  0.00    +0.000 N 
ATOM     17  C   UNL     1       3.403   1.919  17.944  0.00  0.00    +0.000 A 
ATOM     18  N   UNL     1       2.338   2.644  18.183  0.00  0.00    +0.000 NA
ATOM     19  H   UNL     1       5.050   1.262  19.121  0.00  0.00    +0.000 HD
ENDBRANCH  13  14
ENDBRANCH  12  13
ENDBRANCH  11  12
ENDBRANCH   1  11
TORSDOF 9
ENDMDL
