MODEL 1
REMARK VINA RESULT:      -8.5      0.000      0.000
REMARK  Name = 
REMARK  8 active torsions:
REMARK  status: ('A' for Active; 'I' for Inactive)
REMARK    1  A    between atoms: S_2  and  C_4
REMARK    2  A    between atoms: S_2  and  N_17
REMARK    3  A    between atoms: C_7  and  O_8
REMARK    4  A    between atoms: O_8  and  C_9
REMARK    5  A    between atoms: N_17  and  C_18
REMARK    6  A    between atoms: N_17  and  C_25
REMARK    7  A    between atoms: C_18  and  C_19
REMARK    8  A    between atoms: N_29  and  O_30
REMARK                            x       y       z     vdW  Elec       q    Type
REMARK                         _______ _______ _______ _____ _____    ______ ____
ROOT
ATOM      1  N   UNL     1       5.630   4.687  17.130  0.00  0.00    +0.000 N 
ENDROOT
BRANCH   1   2
ATOM      2  C   UNL     1       4.307   4.803  17.715  0.00  0.00    +0.000 A 
ATOM      3  C   UNL     1       3.780   6.041  17.637  0.00  0.00    +0.000 A 
ATOM      4  C   UNL     1       2.426   6.328  18.047  0.00  0.00    +0.000 A 
ATOM      5  C   UNL     1       1.596   5.313  18.299  0.00  0.00    +0.000 A 
ATOM      6  N   UNL     1       2.080   4.037  18.345  0.00  0.00    +0.000 N 
ATOM      7  C   UNL     1       3.423   3.672  18.238  0.00  0.00    +0.000 A 
ATOM      8  S   UNL     1       3.940   2.160  18.792  0.00  0.00    +0.000 S 
BRANCH   6   9
ATOM      9  O   UNL     1       1.082   3.072  18.569  0.00  0.00    +0.000 OA
ATOM     10  H   UNL     1       0.343   3.625  18.879  0.00  0.00    +0.000 HD
ENDBRANCH   6   9
ENDBRANCH   1   2
BRANCH   1  12
ATOM     11  O   UNL     1       8.014   4.065  17.882  0.00  0.00    +0.000 OA
ATOM     12  S   UNL     1       6.899   4.890  18.298  0.00  0.00    +0.000 S 
ATOM     13  O   UNL     1       6.366   4.808  19.644  0.00  0.00    +0.000 OA
BRANCH  12  14
ATOM     14  C   UNL     1       7.431   6.591  18.118  0.00  0.00    +0.000 A 
ATOM     15  C   UNL     1       8.441   7.141  18.907  0.00  0.00    +0.000 A 
ATOM     16  C   UNL     1       8.726   8.502  18.830  0.00  0.00    +0.000 A 
ATOM     17  C   UNL     1       8.047   9.310  17.923  0.00  0.00    +0.000 A 
ATOM     18  C   UNL     1       7.069   8.754  17.092  0.00  0.00    +0.000 A 
ATOM     19  C   UNL     1       6.771   7.388  17.177  0.00  0.00    +0.000 A 
BRANCH  17  20
ATOM     20  O   UNL     1       8.356  10.646  18.004  0.00  0.00    +0.000 OA
BRANCH  20  21
ATOM     21  C   UNL     1       9.475  11.057  18.681  0.00  0.00    +0.000 A 
ATOM     22  C   UNL     1      10.602  11.315  17.889  0.00  0.00    +0.000 A 
ATOM     23  C   UNL     1      11.780  11.776  18.473  0.00  0.00    +0.000 A 
ATOM     24  C   UNL     1      11.831  11.979  19.857  0.00  0.00    +0.000 A 
ATOM     25  C   UNL     1      10.703  11.753  20.636  0.00  0.00    +0.000 A 
ATOM     26  C   UNL     1       9.512  11.322  20.049  0.00  0.00    +0.000 A 
ENDBRANCH  20  21
ENDBRANCH  17  20
ENDBRANCH  12  14
ENDBRANCH   1  12
BRANCH   1  27
ATOM     27  C   UNL     1       5.938   3.632  16.115  0.00  0.00    +0.000 C 
BRANCH  27  28
ATOM     28  C   UNL     1       6.334   4.121  14.730  0.00  0.00    +0.000 A 
ATOM     29  C   UNL     1       7.346   5.067  14.515  0.00  0.00    +0.000 A 
ATOM     30  C   UNL     1       7.817   5.337  13.226  0.00  0.00    +0.000 A 
ATOM     31  C   UNL     1       7.271   4.678  12.129  0.00  0.00    +0.000 A 
ATOM     32  C   UNL     1       6.245   3.758  12.318  0.00  0.00    +0.000 A 
ATOM     33  C   UNL     1       5.781   3.477  13.607  0.00  0.00    +0.000 A 
ENDBRANCH  27  28
ENDBRANCH   1  27
TORSDOF 8
ENDMDL
MODEL 2
REMARK VINA RESULT:      -8.5      6.959     10.525
REMARK  Name = 
REMARK  8 active torsions:
REMARK  status: ('A' for Active; 'I' for Inactive)
REMARK    1  A    between atoms: S_2  and  C_4
REMARK    2  A    between atoms: S_2  and  N_17
REMARK    3  A    between atoms: C_7  and  O_8
REMARK    4  A    between atoms: O_8  and  C_9
REMARK    5  A    between atoms: N_17  and  C_18
REMARK    6  A    between atoms: N_17  and  C_25
REMARK    7  A    between atoms: C_18  and  C_19
REMARK    8  A    between atoms: N_29  and  O_30
REMARK                            x       y       z     vdW  Elec       q    Type
REMARK                         _______ _______ _______ _____ _____    ______ ____
ROOT
ATOM      1  N   UNL     1      -1.226  11.728  19.707  0.00  0.00    +0.000 N 
ENDROOT
BRANCH   1   2
ATOM      2  C   UNL     1      -1.863  12.390  20.831  0.00  0.00    +0.000 A 
ATOM      3  C   UNL     1      -2.433  13.571  20.520  0.00  0.00    +0.000 A 
ATOM      4  C   UNL     1      -3.223  14.317  21.470  0.00  0.00    +0.000 A 
ATOM      5  C   UNL     1      -3.590  13.730  22.611  0.00  0.00    +0.000 A 
ATOM      6  N   UNL     1      -3.069  12.513  22.945  0.00  0.00    +0.000 N 
ATOM      7  C   UNL     1      -2.085  11.825  22.234  0.00  0.00    +0.000 A 
ATOM      8  S   UNL     1      -1.188  10.604  22.984  0.00  0.00    +0.000 S 
BRANCH   6   9
ATOM      9  O   UNL     1      -3.588  11.998  24.147  0.00  0.00    +0.000 OA
ATOM     10  H   UNL     1      -2.802  12.017  24.722  0.00  0.00    +0.000 HD
ENDBRANCH   6   9
ENDBRANCH   1   2
BRANCH   1  12
ATOM     11  O   UNL     1       0.876  12.374  21.049  0.00  0.00    +0.000 OA
ATOM     12  S   UNL     1       0.505  11.854  19.749  0.00  0.00    +0.000 S 
ATOM     13  O   UNL     1       0.999  12.462  18.529  0.00  0.00    +0.000 OA
BRANCH  12  14
ATOM     14  C   UNL     1       1.097  10.164  19.691  0.00  0.00    +0.000 A 
ATOM     15  C   UNL     1       1.127   9.348  20.822  0.00  0.00    +0.000 A 
ATOM     16  C   UNL     1       1.723   8.091  20.761  0.00  0.00    +0.000 A 
ATOM     17  C   UNL     1       2.240   7.617  19.558  0.00  0.00    +0.000 A 
ATOM     18  C   UNL     1       2.166   8.410  18.409  0.00  0.00    +0.000 A 
ATOM     19  C   UNL     1       1.579   9.680  18.470  0.00  0.00    +0.000 A 
BRANCH  17  20
ATOM     20  O   UNL     1       2.878   6.404  19.648  0.00  0.00    +0.000 OA
BRANCH  20  21
ATOM     21  C   UNL     1       2.202   5.245  19.367  0.00  0.00    +0.000 A 
ATOM     22  C   UNL     1       1.617   4.602  20.467  0.00  0.00    +0.000 A 
ATOM     23  C   UNL     1       0.873   3.438  20.286  0.00  0.00    +0.000 A 
ATOM     24  C   UNL     1       0.715   2.912  18.998  0.00  0.00    +0.000 A 
ATOM     25  C   UNL     1       1.270   3.569  17.906  0.00  0.00    +0.000 A 
ATOM     26  C   UNL     1       1.987   4.753  18.080  0.00  0.00    +0.000 A 
ENDBRANCH  20  21
ENDBRANCH  17  20
ENDBRANCH  12  14
ENDBRANCH   1  12
BRANCH   1  27
ATOM     27  C   UNL     1      -1.700  10.394  19.224  0.00  0.00    +0.000 C 
BRANCH  27  28
ATOM     28  C   UNL     1      -2.532  10.391  17.951  0.00  0.00    +0.000 A 
ATOM     29  C   UNL     1      -3.739  11.092  17.826  0.00  0.00    +0.000 A 
ATOM     30  C   UNL     1      -4.367  11.231  16.584  0.00  0.00    +0.000 A 
ATOM     31  C   UNL     1      -3.806  10.652  15.449  0.00  0.00    +0.000 A 
ATOM     32  C   UNL     1      -2.625   9.925  15.557  0.00  0.00    +0.000 A 
ATOM     33  C   UNL     1      -1.989   9.797  16.796  0.00  0.00    +0.000 A 
ENDBRANCH  27  28
ENDBRANCH   1  27
TORSDOF 8
ENDMDL
MODEL 3
REMARK VINA RESULT:      -8.5      6.465     10.256
REMARK  Name = 
REMARK  8 active torsions:
REMARK  status: ('A' for Active; 'I' for Inactive)
REMARK    1  A    between atoms: S_2  and  C_4
REMARK    2  A    between atoms: S_2  and  N_17
REMARK    3  A    between atoms: C_7  and  O_8
REMARK    4  A    between atoms: O_8  and  C_9
REMARK    5  A    between atoms: N_17  and  C_18
REMARK    6  A    between atoms: N_17  and  C_25
REMARK    7  A    between atoms: C_18  and  C_19
REMARK    8  A    between atoms: N_29  and  O_30
REMARK                            x       y       z     vdW  Elec       q    Type
REMARK                         _______ _______ _______ _____ _____    ______ ____
ROOT
ATOM      1  N   UNL     1      -0.285  11.306  19.568  0.00  0.00    +0.000 N 
ENDROOT
BRANCH   1   2
ATOM      2  C   UNL     1       0.393  12.588  19.505  0.00  0.00    +0.000 A 
ATOM      3  C   UNL     1       1.359  12.652  18.568  0.00  0.00    +0.000 A 
ATOM      4  C   UNL     1       2.058  13.878  18.267  0.00  0.00    +0.000 A 
ATOM      5  C   UNL     1       1.593  15.028  18.760  0.00  0.00    +0.000 A 
ATOM      6  N   UNL     1       0.584  15.012  19.680  0.00  0.00    +0.000 N 
ATOM      7  C   UNL     1       0.021  13.869  20.251  0.00  0.00    +0.000 A 
ATOM      8  S   UNL     1      -0.846  13.980  21.699  0.00  0.00    +0.000 S 
BRANCH   6   9
ATOM      9  O   UNL     1       0.166  16.297  20.068  0.00  0.00    +0.000 OA
ATOM     10  H   UNL     1       0.441  16.831  19.302  0.00  0.00    +0.000 HD
ENDBRANCH   6   9
ENDBRANCH   1   2
BRANCH   1  12
ATOM     11  O   UNL     1      -0.720   9.561  21.412  0.00  0.00    +0.000 OA
ATOM     12  S   UNL     1       0.382  10.254  20.777  0.00  0.00    +0.000 S 
ATOM     13  O   UNL     1       1.380  10.953  21.561  0.00  0.00    +0.000 OA
BRANCH  12  14
ATOM     14  C   UNL     1       1.301   9.017  19.863  0.00  0.00    +0.000 A 
ATOM     15  C   UNL     1       1.565   9.144  18.499  0.00  0.00    +0.000 A 
ATOM     16  C   UNL     1       2.160   8.096  17.802  0.00  0.00    +0.000 A 
ATOM     17  C   UNL     1       2.549   6.938  18.472  0.00  0.00    +0.000 A 
ATOM     18  C   UNL     1       2.334   6.827  19.849  0.00  0.00    +0.000 A 
ATOM     19  C   UNL     1       1.725   7.874  20.551  0.00  0.00    +0.000 A 
BRANCH  17  20
ATOM     20  O   UNL     1       3.043   5.947  17.661  0.00  0.00    +0.000 OA
BRANCH  20  21
ATOM     21  C   UNL     1       2.869   4.629  17.996  0.00  0.00    +0.000 A 
ATOM     22  C   UNL     1       4.000   3.981  18.512  0.00  0.00    +0.000 A 
ATOM     23  C   UNL     1       3.921   2.651  18.921  0.00  0.00    +0.000 A 
ATOM     24  C   UNL     1       2.705   1.966  18.812  0.00  0.00    +0.000 A 
ATOM     25  C   UNL     1       1.578   2.620  18.329  0.00  0.00    +0.000 A 
ATOM     26  C   UNL     1       1.646   3.961  17.949  0.00  0.00    +0.000 A 
ENDBRANCH  20  21
ENDBRANCH  17  20
ENDBRANCH  12  14
ENDBRANCH   1  12
BRANCH   1  27
ATOM     27  C   UNL     1      -1.775  11.213  19.474  0.00  0.00    +0.000 C 
BRANCH  27  28
ATOM     28  C   UNL     1      -2.356  11.034  18.080  0.00  0.00    +0.000 A 
ATOM     29  C   UNL     1      -1.816  10.151  17.135  0.00  0.00    +0.000 A 
ATOM     30  C   UNL     1      -2.494   9.866  15.945  0.00  0.00    +0.000 A 
ATOM     31  C   UNL     1      -3.715  10.475  15.673  0.00  0.00    +0.000 A 
ATOM     32  C   UNL     1      -4.254  11.378  16.584  0.00  0.00    +0.000 A 
ATOM     33  C   UNL     1      -3.584  11.654  17.780  0.00  0.00    +0.000 A 
ENDBRANCH  27  28
ENDBRANCH   1  27
TORSDOF 8
ENDMDL
MODEL 4
REMARK VINA RESULT:      -8.4      6.324      9.426
REMARK  Name = 
REMARK  8 active torsions:
REMARK  status: ('A' for Active; 'I' for Inactive)
REMARK    1  A    between atoms: S_2  and  C_4
REMARK    2  A    between atoms: S_2  and  N_17
REMARK    3  A    between atoms: C_7  and  O_8
REMARK    4  A    between atoms: O_8  and  C_9
REMARK    5  A    between atoms: N_17  and  C_18
REMARK    6  A    between atoms: N_17  and  C_25
REMARK    7  A    between atoms: C_18  and  C_19
REMARK    8  A    between atoms: N_29  and  O_30
REMARK                            x       y       z     vdW  Elec       q    Type
REMARK                         _______ _______ _______ _____ _____    ______ ____
ROOT
ATOM      1  N   UNL     1      -0.092  11.468  19.690  0.00  0.00    +0.000 N 
ENDROOT
BRANCH   1   2
ATOM      2  C   UNL     1       0.777  12.624  19.560  0.00  0.00    +0.000 A 
ATOM      3  C   UNL     1       1.644  12.544  18.531  0.00  0.00    +0.000 A 
ATOM      4  C   UNL     1       2.501  13.645  18.161  0.00  0.00    +0.000 A 
ATOM      5  C   UNL     1       2.281  14.847  18.698  0.00  0.00    +0.000 A 
ATOM      6  N   UNL     1       1.379  14.981  19.715  0.00  0.00    +0.000 N 
ATOM      7  C   UNL     1       0.696  13.936  20.339  0.00  0.00    +0.000 A 
ATOM      8  S   UNL     1       0.006  14.163  21.866  0.00  0.00    +0.000 S 
BRANCH   6   9
ATOM      9  O   UNL     1       1.217  16.311  20.142  0.00  0.00    +0.000 OA
ATOM     10  H   UNL     1       0.555  16.639  19.510  0.00  0.00    +0.000 HD
ENDBRANCH   6   9
ENDBRANCH   1   2
BRANCH   1  12
ATOM     11  O   UNL     1      -0.695   9.763  21.524  0.00  0.00    +0.000 OA
ATOM     12  S   UNL     1       0.469  10.339  20.883  0.00  0.00    +0.000 S 
ATOM     13  O   UNL     1       1.545  10.919  21.662  0.00  0.00    +0.000 OA
BRANCH  12  14
ATOM     14  C   UNL     1       1.240   9.018  19.949  0.00  0.00    +0.000 A 
ATOM     15  C   UNL     1       1.584   7.799  20.532  0.00  0.00    +0.000 A 
ATOM     16  C   UNL     1       2.305   6.855  19.806  0.00  0.00    +0.000 A 
ATOM     17  C   UNL     1       2.636   7.098  18.475  0.00  0.00    +0.000 A 
ATOM     18  C   UNL     1       2.248   8.297  17.869  0.00  0.00    +0.000 A 
ATOM     19  C   UNL     1       1.534   9.253  18.602  0.00  0.00    +0.000 A 
BRANCH  17  20
ATOM     20  O   UNL     1       3.421   6.131  17.896  0.00  0.00    +0.000 OA
BRANCH  20  21
ATOM     21  C   UNL     1       4.786   6.195  18.001  0.00  0.00    +0.000 A 
ATOM     22  C   UNL     1       5.355   5.394  19.001  0.00  0.00    +0.000 A 
ATOM     23  C   UNL     1       6.738   5.354  19.166  0.00  0.00    +0.000 A 
ATOM     24  C   UNL     1       7.557   6.120  18.327  0.00  0.00    +0.000 A 
ATOM     25  C   UNL     1       6.992   6.888  17.316  0.00  0.00    +0.000 A 
ATOM     26  C   UNL     1       5.610   6.904  17.127  0.00  0.00    +0.000 A 
ENDBRANCH  20  21
ENDBRANCH  17  20
ENDBRANCH  12  14
ENDBRANCH   1  12
BRANCH   1  27
ATOM     27  C   UNL     1      -1.581  11.615  19.683  0.00  0.00    +0.000 C 
BRANCH  27  28
ATOM     28  C   UNL     1      -2.307  11.097  18.452  0.00  0.00    +0.000 A 
ATOM     29  C   UNL     1      -3.572  11.557  18.061  0.00  0.00    +0.000 A 
ATOM     30  C   UNL     1      -4.114  11.208  16.820  0.00  0.00    +0.000 A 
ATOM     31  C   UNL     1      -3.407  10.376  15.957  0.00  0.00    +0.000 A 
ATOM     32  C   UNL     1      -2.164   9.883  16.339  0.00  0.00    +0.000 A 
ATOM     33  C   UNL     1      -1.614  10.242  17.574  0.00  0.00    +0.000 A 
ENDBRANCH  27  28
ENDBRANCH   1  27
TORSDOF 8
ENDMDL
MODEL 5
REMARK VINA RESULT:      -8.4      6.425     10.240
REMARK  Name = 
REMARK  8 active torsions:
REMARK  status: ('A' for Active; 'I' for Inactive)
REMARK    1  A    between atoms: S_2  and  C_4
REMARK    2  A    between atoms: S_2  and  N_17
REMARK    3  A    between atoms: C_7  and  O_8
REMARK    4  A    between atoms: O_8  and  C_9
REMARK    5  A    between atoms: N_17  and  C_18
REMARK    6  A    between atoms: N_17  and  C_25
REMARK    7  A    between atoms: C_18  and  C_19
REMARK    8  A    between atoms: N_29  and  O_30
REMARK                            x       y       z     vdW  Elec       q    Type
REMARK                         _______ _______ _______ _____ _____    ______ ____
ROOT
ATOM      1  N   UNL     1      -0.168  11.550  19.709  0.00  0.00    +0.000 N 
ENDROOT
BRANCH   1   2
ATOM      2  C   UNL     1       0.676  12.723  19.575  0.00  0.00    +0.000 A 
ATOM      3  C   UNL     1       1.526  12.671  18.532  0.00  0.00    +0.000 A 
ATOM      4  C   UNL     1       2.355  13.792  18.158  0.00  0.00    +0.000 A 
ATOM      5  C   UNL     1       2.121  14.984  18.710  0.00  0.00    +0.000 A 
ATOM      6  N   UNL     1       1.233  15.090  19.742  0.00  0.00    +0.000 N 
ATOM      7  C   UNL     1       0.582  14.027  20.368  0.00  0.00    +0.000 A 
ATOM      8  S   UNL     1      -0.087  14.226  21.909  0.00  0.00    +0.000 S 
BRANCH   6   9
ATOM      9  O   UNL     1       1.052  16.413  20.185  0.00  0.00    +0.000 OA
ATOM     10  H   UNL     1       0.326  16.713  19.611  0.00  0.00    +0.000 HD
ENDBRANCH   6   9
ENDBRANCH   1   2
BRANCH   1  12
ATOM     11  O   UNL     1      -0.705   9.829  21.549  0.00  0.00    +0.000 OA
ATOM     12  S   UNL     1       0.436  10.421  20.881  0.00  0.00    +0.000 S 
ATOM     13  O   UNL     1       1.525  11.009  21.636  0.00  0.00    +0.000 OA
BRANCH  12  14
ATOM     14  C   UNL     1       1.197   9.114  19.922  0.00  0.00    +0.000 A 
ATOM     15  C   UNL     1       1.649   7.930  20.505  0.00  0.00    +0.000 A 
ATOM     16  C   UNL     1       2.358   7.003  19.746  0.00  0.00    +0.000 A 
ATOM     17  C   UNL     1       2.570   7.223  18.387  0.00  0.00    +0.000 A 
ATOM     18  C   UNL     1       2.073   8.384  17.786  0.00  0.00    +0.000 A 
ATOM     19  C   UNL     1       1.371   9.324  18.549  0.00  0.00    +0.000 A 
BRANCH  17  20
ATOM     20  O   UNL     1       3.355   6.281  17.771  0.00  0.00    +0.000 OA
BRANCH  20  21
ATOM     21  C   UNL     1       3.003   4.957  17.805  0.00  0.00    +0.000 A 
ATOM     22  C   UNL     1       4.068   4.045  17.792  0.00  0.00    +0.000 A 
ATOM     23  C   UNL     1       3.820   2.676  17.864  0.00  0.00    +0.000 A 
ATOM     24  C   UNL     1       2.500   2.216  17.948  0.00  0.00    +0.000 A 
ATOM     25  C   UNL     1       1.448   3.123  17.992  0.00  0.00    +0.000 A 
ATOM     26  C   UNL     1       1.695   4.496  17.953  0.00  0.00    +0.000 A 
ENDBRANCH  20  21
ENDBRANCH  17  20
ENDBRANCH  12  14
ENDBRANCH   1  12
BRANCH   1  27
ATOM     27  C   UNL     1      -1.659  11.667  19.729  0.00  0.00    +0.000 C 
BRANCH  27  28
ATOM     28  C   UNL     1      -2.395  11.157  18.500  0.00  0.00    +0.000 A 
ATOM     29  C   UNL     1      -3.670  11.609  18.131  0.00  0.00    +0.000 A 
ATOM     30  C   UNL     1      -4.224  11.270  16.892  0.00  0.00    +0.000 A 
ATOM     31  C   UNL     1      -3.519  10.457  16.010  0.00  0.00    +0.000 A 
ATOM     32  C   UNL     1      -2.266   9.971  16.370  0.00  0.00    +0.000 A 
ATOM     33  C   UNL     1      -1.705  10.320  17.603  0.00  0.00    +0.000 A 
ENDBRANCH  27  28
ENDBRANCH   1  27
TORSDOF 8
ENDMDL
MODEL 6
REMARK VINA RESULT:      -8.4      3.918      7.358
REMARK  Name = 
REMARK  8 active torsions:
REMARK  status: ('A' for Active; 'I' for Inactive)
REMARK    1  A    between atoms: S_2  and  C_4
REMARK    2  A    between atoms: S_2  and  N_17
REMARK    3  A    between atoms: C_7  and  O_8
REMARK    4  A    between atoms: O_8  and  C_9
REMARK    5  A    between atoms: N_17  and  C_18
REMARK    6  A    between atoms: N_17  and  C_25
REMARK    7  A    between atoms: C_18  and  C_19
REMARK    8  A    between atoms: N_29  and  O_30
REMARK                            x       y       z     vdW  Elec       q    Type
REMARK                         _______ _______ _______ _____ _____    ______ ____
ROOT
ATOM      1  N   UNL     1       3.969   5.343  19.215  0.00  0.00    +0.000 N 
ENDROOT
BRANCH   1   2
ATOM      2  C   UNL     1       3.043   4.312  19.647  0.00  0.00    +0.000 A 
ATOM      3  C   UNL     1       2.802   4.312  20.973  0.00  0.00    +0.000 A 
ATOM      4  C   UNL     1       1.815   3.448  21.575  0.00  0.00    +0.000 A 
ATOM      5  C   UNL     1       0.959   2.793  20.787  0.00  0.00    +0.000 A 
ATOM      6  N   UNL     1       1.140   2.803  19.433  0.00  0.00    +0.000 N 
ATOM      7  C   UNL     1       2.221   3.376  18.761  0.00  0.00    +0.000 A 
ATOM      8  S   UNL     1       2.584   2.907  17.177  0.00  0.00    +0.000 S 
BRANCH   6   9
ATOM      9  O   UNL     1       0.133   2.115  18.734  0.00  0.00    +0.000 OA
ATOM     10  H   UNL     1       0.614   1.328  18.424  0.00  0.00    +0.000 HD
ENDBRANCH   6   9
ENDBRANCH   1   2
BRANCH   1  12
ATOM     11  O   UNL     1       5.595   3.354  19.414  0.00  0.00    +0.000 OA
ATOM     12  S   UNL     1       5.588   4.747  19.015  0.00  0.00    +0.000 S 
ATOM     13  O   UNL     1       6.545   5.689  19.560  0.00  0.00    +0.000 OA
BRANCH  12  14
ATOM     14  C   UNL     1       5.877   4.770  17.247  0.00  0.00    +0.000 A 
ATOM     15  C   UNL     1       5.792   3.618  16.465  0.00  0.00    +0.000 A 
ATOM     16  C   UNL     1       6.161   3.655  15.122  0.00  0.00    +0.000 A 
ATOM     17  C   UNL     1       6.559   4.854  14.538  0.00  0.00    +0.000 A 
ATOM     18  C   UNL     1       6.596   6.023  15.304  0.00  0.00    +0.000 A 
ATOM     19  C   UNL     1       6.239   5.986  16.658  0.00  0.00    +0.000 A 
BRANCH  17  20
ATOM     20  O   UNL     1       6.979   4.743  13.235  0.00  0.00    +0.000 OA
BRANCH  20  21
ATOM     21  C   UNL     1       6.585   3.677  12.470  0.00  0.00    +0.000 A 
ATOM     22  C   UNL     1       5.206   3.566  12.248  0.00  0.00    +0.000 A 
ATOM     23  C   UNL     1       4.703   2.541  11.450  0.00  0.00    +0.000 A 
ATOM     24  C   UNL     1       5.585   1.619  10.872  0.00  0.00    +0.000 A 
ATOM     25  C   UNL     1       6.954   1.750  11.068  0.00  0.00    +0.000 A 
ATOM     26  C   UNL     1       7.463   2.795  11.839  0.00  0.00    +0.000 A 
ENDBRANCH  20  21
ENDBRANCH  17  20
ENDBRANCH  12  14
ENDBRANCH   1  12
BRANCH   1  27
ATOM     27  C   UNL     1       3.584   6.342  18.171  0.00  0.00    +0.000 C 
BRANCH  27  28
ATOM     28  C   UNL     1       2.584   7.408  18.590  0.00  0.00    +0.000 A 
ATOM     29  C   UNL     1       2.099   7.527  19.900  0.00  0.00    +0.000 A 
ATOM     30  C   UNL     1       1.343   8.637  20.290  0.00  0.00    +0.000 A 
ATOM     31  C   UNL     1       1.043   9.638  19.370  0.00  0.00    +0.000 A 
ATOM     32  C   UNL     1       1.487   9.523  18.057  0.00  0.00    +0.000 A 
ATOM     33  C   UNL     1       2.255   8.420  17.669  0.00  0.00    +0.000 A 
ENDBRANCH  27  28
ENDBRANCH   1  27
TORSDOF 8
ENDMDL
MODEL 7
REMARK VINA RESULT:      -8.4      0.341      1.248
REMARK  Name = 
REMARK  8 active torsions:
REMARK  status: ('A' for Active; 'I' for Inactive)
REMARK    1  A    between atoms: S_2  and  C_4
REMARK    2  A    between atoms: S_2  and  N_17
REMARK    3  A    between atoms: C_7  and  O_8
REMARK    4  A    between atoms: O_8  and  C_9
REMARK    5  A    between atoms: N_17  and  C_18
REMARK    6  A    between atoms: N_17  and  C_25
REMARK    7  A    between atoms: C_18  and  C_19
REMARK    8  A    between atoms: N_29  and  O_30
REMARK                            x       y       z     vdW  Elec       q    Type
REMARK                         _______ _______ _______ _____ _____    ______ ____
ROOT
ATOM      1  N   UNL     1       5.679   4.613  16.857  0.00  0.00    +0.000 N 
ENDROOT
BRANCH   1   2
ATOM      2  C   UNL     1       4.353   4.817  17.411  0.00  0.00    +0.000 A 
ATOM      3  C   UNL     1       3.970   6.109  17.452  0.00  0.00    +0.000 A 
ATOM      4  C   UNL     1       2.639   6.503  17.849  0.00  0.00    +0.000 A 
ATOM      5  C   UNL     1       1.692   5.569  17.963  0.00  0.00    +0.000 A 
ATOM      6  N   UNL     1       2.030   4.249  17.884  0.00  0.00    +0.000 N 
ATOM      7  C   UNL     1       3.328   3.745  17.779  0.00  0.00    +0.000 A 
ATOM      8  S   UNL     1       3.651   2.134  18.180  0.00  0.00    +0.000 S 
BRANCH   6   9
ATOM      9  O   UNL     1       0.923   3.386  17.970  0.00  0.00    +0.000 OA
ATOM     10  H   UNL     1       0.999   3.062  18.884  0.00  0.00    +0.000 HD
ENDBRANCH   6   9
ENDBRANCH   1   2
BRANCH   1  12
ATOM     11  O   UNL     1       8.103   4.073  17.543  0.00  0.00    +0.000 OA
ATOM     12  S   UNL     1       6.932   4.758  18.051  0.00  0.00    +0.000 S 
ATOM     13  O   UNL     1       6.409   4.470  19.371  0.00  0.00    +0.000 OA
BRANCH  12  14
ATOM     14  C   UNL     1       7.340   6.501  18.089  0.00  0.00    +0.000 A 
ATOM     15  C   UNL     1       6.749   7.422  17.224  0.00  0.00    +0.000 A 
ATOM     16  C   UNL     1       7.197   8.741  17.194  0.00  0.00    +0.000 A 
ATOM     17  C   UNL     1       8.195   9.163  18.068  0.00  0.00    +0.000 A 
ATOM     18  C   UNL     1       8.754   8.256  18.974  0.00  0.00    +0.000 A 
ATOM     19  C   UNL     1       8.315   6.927  18.998  0.00  0.00    +0.000 A 
BRANCH  17  20
ATOM     20  O   UNL     1       8.608  10.459  17.881  0.00  0.00    +0.000 OA
BRANCH  20  21
ATOM     21  C   UNL     1       9.633  10.973  18.632  0.00  0.00    +0.000 A 
ATOM     22  C   UNL     1      10.806  11.279  17.929  0.00  0.00    +0.000 A 
ATOM     23  C   UNL     1      11.894  11.845  18.591  0.00  0.00    +0.000 A 
ATOM     24  C   UNL     1      11.809  12.103  19.964  0.00  0.00    +0.000 A 
ATOM     25  C   UNL     1      10.634  11.828  20.653  0.00  0.00    +0.000 A 
ATOM     26  C   UNL     1       9.532  11.292  19.986  0.00  0.00    +0.000 A 
ENDBRANCH  20  21
ENDBRANCH  17  20
ENDBRANCH  12  14
ENDBRANCH   1  12
BRANCH   1  27
ATOM     27  C   UNL     1       5.945   3.525  15.865  0.00  0.00    +0.000 C 
BRANCH  27  28
ATOM     28  C   UNL     1       6.533   3.955  14.530  0.00  0.00    +0.000 A 
ATOM     29  C   UNL     1       6.098   3.437  13.302  0.00  0.00    +0.000 A 
ATOM     30  C   UNL     1       6.517   4.002  12.093  0.00  0.00    +0.000 A 
ATOM     31  C   UNL     1       7.392   5.083  12.092  0.00  0.00    +0.000 A 
ATOM     32  C   UNL     1       7.860   5.593  13.299  0.00  0.00    +0.000 A 
ATOM     33  C   UNL     1       7.432   5.038  14.510  0.00  0.00    +0.000 A 
ENDBRANCH  27  28
ENDBRANCH   1  27
TORSDOF 8
ENDMDL
MODEL 8
REMARK VINA RESULT:      -8.3      7.011     10.673
REMARK  Name = 
REMARK  8 active torsions:
REMARK  status: ('A' for Active; 'I' for Inactive)
REMARK    1  A    between atoms: S_2  and  C_4
REMARK    2  A    between atoms: S_2  and  N_17
REMARK    3  A    between atoms: C_7  and  O_8
REMARK    4  A    between atoms: O_8  and  C_9
REMARK    5  A    between atoms: N_17  and  C_18
REMARK    6  A    between atoms: N_17  and  C_25
REMARK    7  A    between atoms: C_18  and  C_19
REMARK    8  A    between atoms: N_29  and  O_30
REMARK                            x       y       z     vdW  Elec       q    Type
REMARK                         _______ _______ _______ _____ _____    ______ ____
ROOT
ATOM      1  N   UNL     1      -0.672  12.184  19.631  0.00  0.00    +0.000 N 
ENDROOT
BRANCH   1   2
ATOM      2  C   UNL     1      -0.205  13.529  19.351  0.00  0.00    +0.000 A 
ATOM      3  C   UNL     1      -1.085  14.495  19.682  0.00  0.00    +0.000 A 
ATOM      4  C   UNL     1      -0.754  15.898  19.599  0.00  0.00    +0.000 A 
ATOM      5  C   UNL     1       0.518  16.254  19.406  0.00  0.00    +0.000 A 
ATOM      6  N   UNL     1       1.451  15.302  19.111  0.00  0.00    +0.000 N 
ATOM      7  C   UNL     1       1.192  13.948  18.894  0.00  0.00    +0.000 A 
ATOM      8  S   UNL     1       2.315  12.988  18.071  0.00  0.00    +0.000 S 
BRANCH   6   9
ATOM      9  O   UNL     1       2.753  15.820  18.988  0.00  0.00    +0.000 OA
ATOM     10  H   UNL     1       2.983  15.992  19.917  0.00  0.00    +0.000 HD
ENDBRANCH   6   9
ENDBRANCH   1   2
BRANCH   1  12
ATOM     11  O   UNL     1      -1.088  11.232  21.989  0.00  0.00    +0.000 OA
ATOM     12  S   UNL     1       0.007  11.529  21.088  0.00  0.00    +0.000 S 
ATOM     13  O   UNL     1       1.140  12.323  21.520  0.00  0.00    +0.000 OA
BRANCH  12  14
ATOM     14  C   UNL     1       0.709   9.952  20.607  0.00  0.00    +0.000 A 
ATOM     15  C   UNL     1       0.881   8.907  21.515  0.00  0.00    +0.000 A 
ATOM     16  C   UNL     1       1.558   7.752  21.132  0.00  0.00    +0.000 A 
ATOM     17  C   UNL     1       2.014   7.608  19.824  0.00  0.00    +0.000 A 
ATOM     18  C   UNL     1       1.798   8.631  18.895  0.00  0.00    +0.000 A 
ATOM     19  C   UNL     1       1.130   9.799  19.281  0.00  0.00    +0.000 A 
BRANCH  17  20
ATOM     20  O   UNL     1       2.739   6.464  19.594  0.00  0.00    +0.000 OA
BRANCH  20  21
ATOM     21  C   UNL     1       2.106   5.255  19.480  0.00  0.00    +0.000 A 
ATOM     22  C   UNL     1       1.986   4.753  18.177  0.00  0.00    +0.000 A 
ATOM     23  C   UNL     1       1.394   3.511  17.954  0.00  0.00    +0.000 A 
ATOM     24  C   UNL     1       0.917   2.768  19.041  0.00  0.00    +0.000 A 
ATOM     25  C   UNL     1       1.065   3.253  20.334  0.00  0.00    +0.000 A 
ATOM     26  C   UNL     1       1.687   4.481  20.563  0.00  0.00    +0.000 A 
ENDBRANCH  20  21
ENDBRANCH  17  20
ENDBRANCH  12  14
ENDBRANCH   1  12
BRANCH   1  27
ATOM     27  C   UNL     1      -2.108  11.808  19.439  0.00  0.00    +0.000 C 
BRANCH  27  28
ATOM     28  C   UNL     1      -2.494  11.293  18.060  0.00  0.00    +0.000 A 
ATOM     29  C   UNL     1      -1.733  10.349  17.357  0.00  0.00    +0.000 A 
ATOM     30  C   UNL     1      -2.223   9.753  16.191  0.00  0.00    +0.000 A 
ATOM     31  C   UNL     1      -3.476  10.107  15.698  0.00  0.00    +0.000 A 
ATOM     32  C   UNL     1      -4.233  11.065  16.364  0.00  0.00    +0.000 A 
ATOM     33  C   UNL     1      -3.750  11.652  17.537  0.00  0.00    +0.000 A 
ENDBRANCH  27  28
ENDBRANCH   1  27
TORSDOF 8
ENDMDL
MODEL 9
REMARK VINA RESULT:      -8.3      6.993     10.603
REMARK  Name = 
REMARK  8 active torsions:
REMARK  status: ('A' for Active; 'I' for Inactive)
REMARK    1  A    between atoms: S_2  and  C_4
REMARK    2  A    between atoms: S_2  and  N_17
REMARK    3  A    between atoms: C_7  and  O_8
REMARK    4  A    between atoms: O_8  and  C_9
REMARK    5  A    between atoms: N_17  and  C_18
REMARK    6  A    between atoms: N_17  and  C_25
REMARK    7  A    between atoms: C_18  and  C_19
REMARK    8  A    between atoms: N_29  and  O_30
REMARK                            x       y       z     vdW  Elec       q    Type
REMARK                         _______ _______ _______ _____ _____    ______ ____
ROOT
ATOM      1  N   UNL     1      -0.682  12.100  19.558  0.00  0.00    +0.000 N 
ENDROOT
BRANCH   1   2
ATOM      2  C   UNL     1      -0.066  13.348  19.147  0.00  0.00    +0.000 A 
ATOM      3  C   UNL     1      -0.841  14.433  19.344  0.00  0.00    +0.000 A 
ATOM      4  C   UNL     1      -0.359  15.774  19.118  0.00  0.00    +0.000 A 
ATOM      5  C   UNL     1       0.948  15.970  18.926  0.00  0.00    +0.000 A 
ATOM      6  N   UNL     1       1.778  14.897  18.765  0.00  0.00    +0.000 N 
ATOM      7  C   UNL     1       1.377  13.563  18.689  0.00  0.00    +0.000 A 
ATOM      8  S   UNL     1       2.403  12.403  18.010  0.00  0.00    +0.000 S 
BRANCH   6   9
ATOM      9  O   UNL     1       3.129  15.257  18.625  0.00  0.00    +0.000 OA
ATOM     10  H   UNL     1       3.165  16.085  19.136  0.00  0.00    +0.000 HD
ENDBRANCH   6   9
ENDBRANCH   1   2
BRANCH   1  12
ATOM     11  O   UNL     1      -1.145  11.201  21.927  0.00  0.00    +0.000 OA
ATOM     12  S   UNL     1      -0.031  11.491  21.048  0.00  0.00    +0.000 S 
ATOM     13  O   UNL     1       1.078  12.312  21.489  0.00  0.00    +0.000 OA
BRANCH  12  14
ATOM     14  C   UNL     1       0.705   9.914  20.625  0.00  0.00    +0.000 A 
ATOM     15  C   UNL     1       0.950   8.928  21.581  0.00  0.00    +0.000 A 
ATOM     16  C   UNL     1       1.650   7.775  21.233  0.00  0.00    +0.000 A 
ATOM     17  C   UNL     1       2.058   7.572  19.917  0.00  0.00    +0.000 A 
ATOM     18  C   UNL     1       1.770   8.534  18.944  0.00  0.00    +0.000 A 
ATOM     19  C   UNL     1       1.078   9.700  19.293  0.00  0.00    +0.000 A 
BRANCH  17  20
ATOM     20  O   UNL     1       2.813   6.443  19.720  0.00  0.00    +0.000 OA
BRANCH  20  21
ATOM     21  C   UNL     1       2.206   5.242  19.459  0.00  0.00    +0.000 A 
ATOM     22  C   UNL     1       1.756   4.534  20.581  0.00  0.00    +0.000 A 
ATOM     23  C   UNL     1       1.088   3.320  20.424  0.00  0.00    +0.000 A 
ATOM     24  C   UNL     1       0.873   2.812  19.138  0.00  0.00    +0.000 A 
ATOM     25  C   UNL     1       1.293   3.531  18.025  0.00  0.00    +0.000 A 
ATOM     26  C   UNL     1       1.932   4.762  18.179  0.00  0.00    +0.000 A 
ENDBRANCH  20  21
ENDBRANCH  17  20
ENDBRANCH  12  14
ENDBRANCH   1  12
BRANCH   1  27
ATOM     27  C   UNL     1      -2.158  11.890  19.439  0.00  0.00    +0.000 C 
BRANCH  27  28
ATOM     28  C   UNL     1      -2.645  11.209  18.169  0.00  0.00    +0.000 A 
ATOM     29  C   UNL     1      -3.833  11.569  17.517  0.00  0.00    +0.000 A 
ATOM     30  C   UNL     1      -4.141  11.063  16.250  0.00  0.00    +0.000 A 
ATOM     31  C   UNL     1      -3.275  10.173  15.623  0.00  0.00    +0.000 A 
ATOM     32  C   UNL     1      -2.107   9.778  16.267  0.00  0.00    +0.000 A 
ATOM     33  C   UNL     1      -1.790  10.293  17.528  0.00  0.00    +0.000 A 
ENDBRANCH  27  28
ENDBRANCH   1  27
TORSDOF 8
ENDMDL
