MODEL 1
REMARK VINA RESULT:      -7.8      0.000      0.000
REMARK  Name = 
REMARK  3 active torsions:
REMARK  status: ('A' for Active; 'I' for Inactive)
REMARK    1  A    between atoms: C_1  and  S_2
REMARK    2  A    between atoms: S_2  and  C_3
REMARK    3  A    between atoms: N_11  and  C_12
REMARK                            x       y       z     vdW  Elec       q    Type
REMARK                         _______ _______ _______ _____ _____    ______ ____
ROOT
ATOM      1  C   UNL     1       2.331   8.388  18.469  0.00  0.00    +0.000 A 
ATOM      2  C   UNL     1       2.049   7.427  19.462  0.00  0.00    +0.000 A 
ATOM      3  C   UNL     1       2.616   6.143  19.431  0.00  0.00    +0.000 A 
ATOM      4  C   UNL     1       3.475   5.825  18.391  0.00  0.00    +0.000 A 
ATOM      5  C   UNL     1       3.762   6.787  17.422  0.00  0.00    +0.000 A 
ATOM      6  C   UNL     1       3.208   8.054  17.426  0.00  0.00    +0.000 A 
ATOM      7  C   UNL     1       4.706   6.213  16.458  0.00  0.00    +0.000 C 
ATOM      8  O   UNL     1       5.141   6.794  15.487  0.00  0.00    +0.000 OA
ATOM      9  N   UNL     1       4.955   4.914  16.867  0.00  0.00    +0.000 N 
ATOM     10  C   UNL     1       5.864   4.024  16.173  0.00  0.00    +0.000 C 
ATOM     11  C   UNL     1       4.221   4.552  18.090  0.00  0.00    +0.000 C 
ATOM     12  C   UNL     1       3.306   3.342  17.891  0.00  0.00    +0.000 C 
ATOM     13  C   UNL     1       4.030   2.268  18.646  0.00  0.00    +0.000 C 
ATOM     14  O   UNL     1       3.923   1.067  18.452  0.00  0.00    +0.000 OA
ATOM     15  N   UNL     1       4.842   2.843  19.566  0.00  0.00    +0.000 N 
ATOM     16  C   UNL     1       5.144   4.130  19.236  0.00  0.00    +0.000 C 
ATOM     17  O   UNL     1       6.061   4.764  19.730  0.00  0.00    +0.000 OA
ATOM     18  H   UNL     1       5.438   2.302  20.174  0.00  0.00    +0.000 HD
ENDROOT
BRANCH   1  20
ATOM     19  C   UNL     1       0.481  10.065  19.812  0.00  0.00    +0.000 C 
ATOM     20  S   UNL     1       1.645  10.042  18.424  0.00  0.00    +0.000 S 
ENDBRANCH   1  20
TORSDOF 1
ENDMDL
MODEL 2
REMARK VINA RESULT:      -7.7      3.090      4.477
REMARK  Name = 
REMARK  3 active torsions:
REMARK  status: ('A' for Active; 'I' for Inactive)
REMARK    1  A    between atoms: C_1  and  S_2
REMARK    2  A    between atoms: S_2  and  C_3
REMARK    3  A    between atoms: N_11  and  C_12
REMARK                            x       y       z     vdW  Elec       q    Type
REMARK                         _______ _______ _______ _____ _____    ______ ____
ROOT
ATOM      1  C   UNL     1       2.212   3.102  18.544  0.00  0.00    +0.000 A 
ATOM      2  C   UNL     1       3.139   2.303  17.842  0.00  0.00    +0.000 A 
ATOM      3  C   UNL     1       4.265   2.857  17.213  0.00  0.00    +0.000 A 
ATOM      4  C   UNL     1       4.459   4.227  17.293  0.00  0.00    +0.000 A 
ATOM      5  C   UNL     1       3.548   5.007  18.003  0.00  0.00    +0.000 A 
ATOM      6  C   UNL     1       2.426   4.486  18.621  0.00  0.00    +0.000 A 
ATOM      7  C   UNL     1       3.991   6.404  17.957  0.00  0.00    +0.000 C 
ATOM      8  O   UNL     1       3.405   7.333  18.471  0.00  0.00    +0.000 OA
ATOM      9  N   UNL     1       5.156   6.429  17.209  0.00  0.00    +0.000 N 
ATOM     10  C   UNL     1       5.911   7.640  16.957  0.00  0.00    +0.000 C 
ATOM     11  C   UNL     1       5.552   5.096  16.728  0.00  0.00    +0.000 C 
ATOM     12  C   UNL     1       5.659   5.028  15.204  0.00  0.00    +0.000 C 
ATOM     13  C   UNL     1       7.141   4.959  14.991  0.00  0.00    +0.000 C 
ATOM     14  O   UNL     1       7.729   5.294  13.975  0.00  0.00    +0.000 OA
ATOM     15  N   UNL     1       7.729   4.488  16.116  0.00  0.00    +0.000 N 
ATOM     16  C   UNL     1       6.942   4.677  17.212  0.00  0.00    +0.000 C 
ATOM     17  O   UNL     1       7.344   4.605  18.361  0.00  0.00    +0.000 OA
ATOM     18  H   UNL     1       8.729   4.379  16.198  0.00  0.00    +0.000 HD
ENDROOT
BRANCH   1  20
ATOM     19  C   UNL     1       1.071   2.784  21.119  0.00  0.00    +0.000 C 
ATOM     20  S   UNL     1       0.745   2.483  19.364  0.00  0.00    +0.000 S 
ENDBRANCH   1  20
TORSDOF 1
ENDMDL
MODEL 3
REMARK VINA RESULT:      -7.2      1.726      3.236
REMARK  Name = 
REMARK  3 active torsions:
REMARK  status: ('A' for Active; 'I' for Inactive)
REMARK    1  A    between atoms: C_1  and  S_2
REMARK    2  A    between atoms: S_2  and  C_3
REMARK    3  A    between atoms: N_11  and  C_12
REMARK                            x       y       z     vdW  Elec       q    Type
REMARK                         _______ _______ _______ _____ _____    ______ ____
ROOT
ATOM      1  C   UNL     1       2.089   8.286  18.609  0.00  0.00    +0.000 A 
ATOM      2  C   UNL     1       3.072   8.375  17.601  0.00  0.00    +0.000 A 
ATOM      3  C   UNL     1       4.036   7.372  17.418  0.00  0.00    +0.000 A 
ATOM      4  C   UNL     1       4.009   6.269  18.257  0.00  0.00    +0.000 A 
ATOM      5  C   UNL     1       3.024   6.180  19.240  0.00  0.00    +0.000 A 
ATOM      6  C   UNL     1       2.071   7.160  19.445  0.00  0.00    +0.000 A 
ATOM      7  C   UNL     1       3.199   4.919  19.966  0.00  0.00    +0.000 C 
ATOM      8  O   UNL     1       2.507   4.552  20.891  0.00  0.00    +0.000 OA
ATOM      9  N   UNL     1       4.295   4.284  19.407  0.00  0.00    +0.000 N 
ATOM     10  C   UNL     1       4.772   2.989  19.847  0.00  0.00    +0.000 C 
ATOM     11  C   UNL     1       4.898   5.055  18.307  0.00  0.00    +0.000 C 
ATOM     12  C   UNL     1       6.370   5.386  18.559  0.00  0.00    +0.000 C 
ATOM     13  C   UNL     1       7.071   4.476  17.595  0.00  0.00    +0.000 C 
ATOM     14  O   UNL     1       8.222   4.081  17.699  0.00  0.00    +0.000 OA
ATOM     15  N   UNL     1       6.216   4.140  16.600  0.00  0.00    +0.000 N 
ATOM     16  C   UNL     1       4.917   4.287  16.983  0.00  0.00    +0.000 C 
ATOM     17  O   UNL     1       3.971   3.795  16.391  0.00  0.00    +0.000 OA
ATOM     18  H   UNL     1       6.477   3.517  15.850  0.00  0.00    +0.000 HD
ENDROOT
BRANCH   1  20
ATOM     19  C   UNL     1       0.482   9.348  20.689  0.00  0.00    +0.000 C 
ATOM     20  S   UNL     1       0.831   9.522  18.920  0.00  0.00    +0.000 S 
ENDBRANCH   1  20
TORSDOF 1
ENDMDL
MODEL 4
REMARK VINA RESULT:      -7.1      3.042      4.835
REMARK  Name = 
REMARK  3 active torsions:
REMARK  status: ('A' for Active; 'I' for Inactive)
REMARK    1  A    between atoms: C_1  and  S_2
REMARK    2  A    between atoms: S_2  and  C_3
REMARK    3  A    between atoms: N_11  and  C_12
REMARK                            x       y       z     vdW  Elec       q    Type
REMARK                         _______ _______ _______ _____ _____    ______ ____
ROOT
ATOM      1  C   UNL     1       5.663   4.704  15.702  0.00  0.00    +0.000 A 
ATOM      2  C   UNL     1       5.349   3.447  16.261  0.00  0.00    +0.000 A 
ATOM      3  C   UNL     1       4.462   3.319  17.341  0.00  0.00    +0.000 A 
ATOM      4  C   UNL     1       3.885   4.466  17.862  0.00  0.00    +0.000 A 
ATOM      5  C   UNL     1       4.186   5.703  17.293  0.00  0.00    +0.000 A 
ATOM      6  C   UNL     1       5.065   5.855  16.236  0.00  0.00    +0.000 A 
ATOM      7  C   UNL     1       3.433   6.741  18.003  0.00  0.00    +0.000 C 
ATOM      8  O   UNL     1       3.487   7.926  17.755  0.00  0.00    +0.000 OA
ATOM      9  N   UNL     1       2.704   6.101  18.991  0.00  0.00    +0.000 N 
ATOM     10  C   UNL     1       1.812   6.797  19.896  0.00  0.00    +0.000 C 
ATOM     11  C   UNL     1       2.915   4.644  19.000  0.00  0.00    +0.000 C 
ATOM     12  C   UNL     1       3.447   4.135  20.340  0.00  0.00    +0.000 C 
ATOM     13  C   UNL     1       2.253   3.429  20.909  0.00  0.00    +0.000 C 
ATOM     14  O   UNL     1       2.051   3.218  22.095  0.00  0.00    +0.000 OA
ATOM     15  N   UNL     1       1.419   3.083  19.900  0.00  0.00    +0.000 N 
ATOM     16  C   UNL     1       1.620   3.854  18.795  0.00  0.00    +0.000 C 
ATOM     17  O   UNL     1       0.831   3.940  17.869  0.00  0.00    +0.000 OA
ATOM     18  H   UNL     1       0.541   2.612  20.061  0.00  0.00    +0.000 HD
ENDROOT
BRANCH   1  20
ATOM     19  C   UNL     1       6.242   3.764  13.091  0.00  0.00    +0.000 C 
ATOM     20  S   UNL     1       6.790   4.961  14.335  0.00  0.00    +0.000 S 
ENDBRANCH   1  20
TORSDOF 1
ENDMDL
MODEL 5
REMARK VINA RESULT:      -6.8      1.894      3.435
REMARK  Name = 
REMARK  3 active torsions:
REMARK  status: ('A' for Active; 'I' for Inactive)
REMARK    1  A    between atoms: C_1  and  S_2
REMARK    2  A    between atoms: S_2  and  C_3
REMARK    3  A    between atoms: N_11  and  C_12
REMARK                            x       y       z     vdW  Elec       q    Type
REMARK                         _______ _______ _______ _____ _____    ______ ____
ROOT
ATOM      1  C   UNL     1       1.427   8.136  19.990  0.00  0.00    +0.000 A 
ATOM      2  C   UNL     1       2.032   8.302  18.726  0.00  0.00    +0.000 A 
ATOM      3  C   UNL     1       2.833   7.302  18.153  0.00  0.00    +0.000 A 
ATOM      4  C   UNL     1       3.026   6.125  18.859  0.00  0.00    +0.000 A 
ATOM      5  C   UNL     1       2.411   5.962  20.100  0.00  0.00    +0.000 A 
ATOM      6  C   UNL     1       1.626   6.937  20.689  0.00  0.00    +0.000 A 
ATOM      7  C   UNL     1       2.750   4.634  20.621  0.00  0.00    +0.000 C 
ATOM      8  O   UNL     1       2.380   4.194  21.687  0.00  0.00    +0.000 OA
ATOM      9  N   UNL     1       3.572   4.035  19.680  0.00  0.00    +0.000 N 
ATOM     10  C   UNL     1       4.101   2.694  19.829  0.00  0.00    +0.000 C 
ATOM     11  C   UNL     1       3.821   4.894  18.512  0.00  0.00    +0.000 C 
ATOM     12  C   UNL     1       5.310   5.172  18.293  0.00  0.00    +0.000 C 
ATOM     13  C   UNL     1       5.612   4.344  17.080  0.00  0.00    +0.000 C 
ATOM     14  O   UNL     1       6.713   3.919  16.766  0.00  0.00    +0.000 OA
ATOM     15  N   UNL     1       4.464   4.121  16.397  0.00  0.00    +0.000 N 
ATOM     16  C   UNL     1       3.369   4.256  17.196  0.00  0.00    +0.000 C 
ATOM     17  O   UNL     1       2.259   3.841  16.909  0.00  0.00    +0.000 OA
ATOM     18  H   UNL     1       4.435   3.568  15.554  0.00  0.00    +0.000 HD
ENDROOT
BRANCH   1  20
ATOM     19  C   UNL     1      -0.204  10.388  19.437  0.00  0.00    +0.000 C 
ATOM     20  S   UNL     1       0.402   9.361  20.800  0.00  0.00    +0.000 S 
ENDBRANCH   1  20
TORSDOF 1
ENDMDL
MODEL 6
REMARK VINA RESULT:      -6.1      4.660      7.673
REMARK  Name = 
REMARK  3 active torsions:
REMARK  status: ('A' for Active; 'I' for Inactive)
REMARK    1  A    between atoms: C_1  and  S_2
REMARK    2  A    between atoms: S_2  and  C_3
REMARK    3  A    between atoms: N_11  and  C_12
REMARK                            x       y       z     vdW  Elec       q    Type
REMARK                         _______ _______ _______ _____ _____    ______ ____
ROOT
ATOM      1  C   UNL     1       2.735   6.949  19.114  0.00  0.00    +0.000 A 
ATOM      2  C   UNL     1       2.443   7.631  17.914  0.00  0.00    +0.000 A 
ATOM      3  C   UNL     1       1.609   8.759  17.889  0.00  0.00    +0.000 A 
ATOM      4  C   UNL     1       1.065   9.205  19.083  0.00  0.00    +0.000 A 
ATOM      5  C   UNL     1       1.372   8.536  20.267  0.00  0.00    +0.000 A 
ATOM      6  C   UNL     1       2.183   7.417  20.315  0.00  0.00    +0.000 A 
ATOM      7  C   UNL     1       0.699   9.217  21.378  0.00  0.00    +0.000 C 
ATOM      8  O   UNL     1       0.757   8.870  22.538  0.00  0.00    +0.000 OA
ATOM      9  N   UNL     1      -0.007  10.274  20.830  0.00  0.00    +0.000 N 
ATOM     10  C   UNL     1      -0.789  11.201  21.622  0.00  0.00    +0.000 C 
ATOM     11  C   UNL     1       0.149  10.365  19.369  0.00  0.00    +0.000 C 
ATOM     12  C   UNL     1      -1.188  10.284  18.629  0.00  0.00    +0.000 C 
ATOM     13  C   UNL     1      -1.380  11.695  18.162  0.00  0.00    +0.000 C 
ATOM     14  O   UNL     1      -2.451  12.215  17.891  0.00  0.00    +0.000 OA
ATOM     15  N   UNL     1      -0.176  12.313  18.109  0.00  0.00    +0.000 N 
ATOM     16  C   UNL     1       0.738  11.703  18.915  0.00  0.00    +0.000 C 
ATOM     17  O   UNL     1       1.790  12.213  19.264  0.00  0.00    +0.000 OA
ATOM     18  H   UNL     1      -0.075  13.279  17.837  0.00  0.00    +0.000 HD
ENDROOT
BRANCH   1  20
ATOM     19  C   UNL     1       4.285   5.184  17.527  0.00  0.00    +0.000 C 
ATOM     20  S   UNL     1       3.777   5.497  19.237  0.00  0.00    +0.000 S 
ENDBRANCH   1  20
TORSDOF 1
ENDMDL
MODEL 7
REMARK VINA RESULT:      -6.0      3.198      4.552
REMARK  Name = 
REMARK  3 active torsions:
REMARK  status: ('A' for Active; 'I' for Inactive)
REMARK    1  A    between atoms: C_1  and  S_2
REMARK    2  A    between atoms: S_2  and  C_3
REMARK    3  A    between atoms: N_11  and  C_12
REMARK                            x       y       z     vdW  Elec       q    Type
REMARK                         _______ _______ _______ _____ _____    ______ ____
ROOT
ATOM      1  C   UNL     1       5.850   5.592  17.499  0.00  0.00    +0.000 A 
ATOM      2  C   UNL     1       5.762   4.223  17.830  0.00  0.00    +0.000 A 
ATOM      3  C   UNL     1       4.699   3.714  18.591  0.00  0.00    +0.000 A 
ATOM      4  C   UNL     1       3.714   4.589  19.020  0.00  0.00    +0.000 A 
ATOM      5  C   UNL     1       3.799   5.938  18.674  0.00  0.00    +0.000 A 
ATOM      6  C   UNL     1       4.842   6.464  17.934  0.00  0.00    +0.000 A 
ATOM      7  C   UNL     1       2.633   6.637  19.223  0.00  0.00    +0.000 C 
ATOM      8  O   UNL     1       2.421   7.825  19.106  0.00  0.00    +0.000 OA
ATOM      9  N   UNL     1       1.880   5.690  19.897  0.00  0.00    +0.000 N 
ATOM     10  C   UNL     1       0.630   5.997  20.561  0.00  0.00    +0.000 C 
ATOM     11  C   UNL     1       2.474   4.345  19.839  0.00  0.00    +0.000 C 
ATOM     12  C   UNL     1       2.763   3.768  21.226  0.00  0.00    +0.000 C 
ATOM     13  C   UNL     1       1.705   2.715  21.360  0.00  0.00    +0.000 C 
ATOM     14  O   UNL     1       1.271   2.273  22.413  0.00  0.00    +0.000 OA
ATOM     15  N   UNL     1       1.287   2.346  20.126  0.00  0.00    +0.000 N 
ATOM     16  C   UNL     1       1.545   3.310  19.199  0.00  0.00    +0.000 C 
ATOM     17  O   UNL     1       1.027   3.352  18.095  0.00  0.00    +0.000 OA
ATOM     18  H   UNL     1       0.562   1.659  19.983  0.00  0.00    +0.000 HD
ENDROOT
BRANCH   1  20
ATOM     19  C   UNL     1       7.669   7.766  17.531  0.00  0.00    +0.000 C 
ATOM     20  S   UNL     1       7.175   6.329  16.545  0.00  0.00    +0.000 S 
ENDBRANCH   1  20
TORSDOF 1
ENDMDL
MODEL 8
REMARK VINA RESULT:      -5.7      3.031      5.276
REMARK  Name = 
REMARK  3 active torsions:
REMARK  status: ('A' for Active; 'I' for Inactive)
REMARK    1  A    between atoms: C_1  and  S_2
REMARK    2  A    between atoms: S_2  and  C_3
REMARK    3  A    between atoms: N_11  and  C_12
REMARK                            x       y       z     vdW  Elec       q    Type
REMARK                         _______ _______ _______ _____ _____    ______ ____
ROOT
ATOM      1  C   UNL     1       5.761   4.391  14.597  0.00  0.00    +0.000 A 
ATOM      2  C   UNL     1       5.649   5.721  15.056  0.00  0.00    +0.000 A 
ATOM      3  C   UNL     1       4.983   6.037  16.250  0.00  0.00    +0.000 A 
ATOM      4  C   UNL     1       4.426   5.005  16.989  0.00  0.00    +0.000 A 
ATOM      5  C   UNL     1       4.555   3.692  16.537  0.00  0.00    +0.000 A 
ATOM      6  C   UNL     1       5.198   3.358  15.359  0.00  0.00    +0.000 A 
ATOM      7  C   UNL     1       3.908   2.799  17.502  0.00  0.00    +0.000 C 
ATOM      8  O   UNL     1       3.837   1.594  17.390  0.00  0.00    +0.000 OA
ATOM      9  N   UNL     1       3.394   3.601  18.507  0.00  0.00    +0.000 N 
ATOM     10  C   UNL     1       2.695   3.076  19.662  0.00  0.00    +0.000 C 
ATOM     11  C   UNL     1       3.661   5.031  18.285  0.00  0.00    +0.000 C 
ATOM     12  C   UNL     1       2.380   5.866  18.222  0.00  0.00    +0.000 C 
ATOM     13  C   UNL     1       2.418   6.607  19.524  0.00  0.00    +0.000 C 
ATOM     14  O   UNL     1       1.449   7.070  20.106  0.00  0.00    +0.000 OA
ATOM     15  N   UNL     1       3.696   6.661  19.967  0.00  0.00    +0.000 N 
ATOM     16  C   UNL     1       4.459   5.672  19.423  0.00  0.00    +0.000 C 
ATOM     17  O   UNL     1       5.545   5.329  19.860  0.00  0.00    +0.000 OA
ATOM     18  H   UNL     1       3.948   7.101  20.840  0.00  0.00    +0.000 HD
ENDROOT
BRANCH   1  20
ATOM     19  C   UNL     1       5.241   3.238  12.060  0.00  0.00    +0.000 C 
ATOM     20  S   UNL     1       6.581   3.899  13.083  0.00  0.00    +0.000 S 
ENDBRANCH   1  20
TORSDOF 1
ENDMDL
MODEL 9
REMARK VINA RESULT:      -5.7      2.287      3.515
REMARK  Name = 
REMARK  3 active torsions:
REMARK  status: ('A' for Active; 'I' for Inactive)
REMARK    1  A    between atoms: C_1  and  S_2
REMARK    2  A    between atoms: S_2  and  C_3
REMARK    3  A    between atoms: N_11  and  C_12
REMARK                            x       y       z     vdW  Elec       q    Type
REMARK                         _______ _______ _______ _____ _____    ______ ____
ROOT
ATOM      1  C   UNL     1       2.996   7.478  17.973  0.00  0.00    +0.000 A 
ATOM      2  C   UNL     1       4.018   6.676  17.421  0.00  0.00    +0.000 A 
ATOM      3  C   UNL     1       4.186   5.334  17.793  0.00  0.00    +0.000 A 
ATOM      4  C   UNL     1       3.318   4.793  18.729  0.00  0.00    +0.000 A 
ATOM      5  C   UNL     1       2.300   5.587  19.257  0.00  0.00    +0.000 A 
ATOM      6  C   UNL     1       2.121   6.915  18.913  0.00  0.00    +0.000 A 
ATOM      7  C   UNL     1       1.514   4.779  20.194  0.00  0.00    +0.000 C 
ATOM      8  O   UNL     1       0.564   5.185  20.829  0.00  0.00    +0.000 OA
ATOM      9  N   UNL     1       2.088   3.519  20.214  0.00  0.00    +0.000 N 
ATOM     10  C   UNL     1       1.573   2.426  21.013  0.00  0.00    +0.000 C 
ATOM     11  C   UNL     1       3.251   3.410  19.319  0.00  0.00    +0.000 C 
ATOM     12  C   UNL     1       4.526   2.999  20.058  0.00  0.00    +0.000 C 
ATOM     13  C   UNL     1       4.715   1.583  19.605  0.00  0.00    +0.000 C 
ATOM     14  O   UNL     1       5.335   0.721  20.208  0.00  0.00    +0.000 OA
ATOM     15  N   UNL     1       4.069   1.403  18.428  0.00  0.00    +0.000 N 
ATOM     16  C   UNL     1       3.081   2.326  18.251  0.00  0.00    +0.000 C 
ATOM     17  O   UNL     1       2.184   2.217  17.433  0.00  0.00    +0.000 OA
ATOM     18  H   UNL     1       4.050   0.514  17.952  0.00  0.00    +0.000 HD
ENDROOT
BRANCH   1  20
ATOM     19  C   UNL     1       1.080   9.547  18.260  0.00  0.00    +0.000 C 
ATOM     20  S   UNL     1       2.716   9.199  17.565  0.00  0.00    +0.000 S 
ENDBRANCH   1  20
TORSDOF 1
ENDMDL
