MODEL 1
REMARK VINA RESULT:      -7.4      0.000      0.000
REMARK  Name = 
REMARK  4 active torsions:
REMARK  status: ('A' for Active; 'I' for Inactive)
REMARK    1  A    between atoms: C_1  and  C_2
REMARK    2  A    between atoms: C_7  and  O_8
REMARK    3  A    between atoms: O_8  and  C_9
REMARK    4  A    between atoms: C_9  and  C_10
REMARK                            x       y       z     vdW  Elec       q    Type
REMARK                         _______ _______ _______ _____ _____    ______ ____
ROOT
ATOM      1  C   UNL     1       2.210   5.679  19.244  0.00  0.00    +0.000 C 
ATOM      2  O   UNL     1       2.016   6.317  20.284  0.00  0.00    +0.000 OA
ATOM      3  N   UNL     1       1.681   4.395  19.054  0.00  0.00    +0.000 N 
ATOM      4  C   UNL     1       0.848   3.822  20.108  0.00  0.00    +0.000 C 
ATOM      5  C   UNL     1       1.476   2.645  20.856  0.00  0.00    +0.000 C 
ATOM      6  C   UNL     1       2.926   2.865  21.291  0.00  0.00    +0.000 C 
ATOM      7  C   UNL     1       3.973   2.197  20.389  0.00  0.00    +0.000 C 
ATOM      8  C   UNL     1       4.117   2.741  18.967  0.00  0.00    +0.000 C 
ATOM      9  C   UNL     1       2.933   2.450  18.042  0.00  0.00    +0.000 C 
ATOM     10  C   UNL     1       1.910   3.578  17.864  0.00  0.00    +0.000 C 
ENDROOT
BRANCH   1  11
ATOM     11  C   UNL     1       3.079   6.287  18.134  0.00  0.00    +0.000 C 
BRANCH  11  12
ATOM     12  O   UNL     1       4.447   6.290  18.520  0.00  0.00    +0.000 OA
BRANCH  12  19
ATOM     13  C   UNL     1       7.378   5.645  19.226  0.00  0.00    +0.000 C 
ATOM     14  C   UNL     1       6.676   5.371  17.928  0.00  0.00    +0.000 A 
ATOM     15  C   UNL     1       7.405   4.667  16.948  0.00  0.00    +0.000 A 
ATOM     16  C   UNL     1       6.837   4.323  15.722  0.00  0.00    +0.000 A 
ATOM     17  C   UNL     1       5.527   4.696  15.444  0.00  0.00    +0.000 A 
ATOM     18  C   UNL     1       4.789   5.391  16.403  0.00  0.00    +0.000 A 
ATOM     19  C   UNL     1       5.348   5.736  17.646  0.00  0.00    +0.000 A 
ENDBRANCH  12  19
ENDBRANCH  11  12
ENDBRANCH   1  11
TORSDOF 3
ENDMDL
MODEL 2
REMARK VINA RESULT:      -7.0      1.953      3.283
REMARK  Name = 
REMARK  4 active torsions:
REMARK  status: ('A' for Active; 'I' for Inactive)
REMARK    1  A    between atoms: C_1  and  C_2
REMARK    2  A    between atoms: C_7  and  O_8
REMARK    3  A    between atoms: O_8  and  C_9
REMARK    4  A    between atoms: C_9  and  C_10
REMARK                            x       y       z     vdW  Elec       q    Type
REMARK                         _______ _______ _______ _____ _____    ______ ____
ROOT
ATOM      1  C   UNL     1       3.948   2.841  18.092  0.00  0.00    +0.000 C 
ATOM      2  O   UNL     1       3.763   1.634  17.898  0.00  0.00    +0.000 OA
ATOM      3  N   UNL     1       4.016   3.381  19.383  0.00  0.00    +0.000 N 
ATOM      4  C   UNL     1       3.903   2.476  20.524  0.00  0.00    +0.000 C 
ATOM      5  C   UNL     1       2.615   2.621  21.335  0.00  0.00    +0.000 C 
ATOM      6  C   UNL     1       1.337   2.692  20.498  0.00  0.00    +0.000 C 
ATOM      7  C   UNL     1       0.778   4.108  20.303  0.00  0.00    +0.000 C 
ATOM      8  C   UNL     1       1.610   5.077  19.463  0.00  0.00    +0.000 C 
ATOM      9  C   UNL     1       2.918   5.534  20.112  0.00  0.00    +0.000 C 
ATOM     10  C   UNL     1       4.193   4.803  19.672  0.00  0.00    +0.000 C 
ENDROOT
BRANCH   1  11
ATOM     11  C   UNL     1       4.074   3.789  16.891  0.00  0.00    +0.000 C 
BRANCH  11  12
ATOM     12  O   UNL     1       5.422   3.848  16.444  0.00  0.00    +0.000 OA
BRANCH  12  19
ATOM     13  C   UNL     1       5.005   6.787  15.612  0.00  0.00    +0.000 C 
ATOM     14  C   UNL     1       6.011   6.256  16.590  0.00  0.00    +0.000 A 
ATOM     15  C   UNL     1       6.799   7.206  17.271  0.00  0.00    +0.000 A 
ATOM     16  C   UNL     1       7.735   6.825  18.231  0.00  0.00    +0.000 A 
ATOM     17  C   UNL     1       7.915   5.477  18.518  0.00  0.00    +0.000 A 
ATOM     18  C   UNL     1       7.141   4.522  17.856  0.00  0.00    +0.000 A 
ATOM     19  C   UNL     1       6.188   4.894  16.893  0.00  0.00    +0.000 A 
ENDBRANCH  12  19
ENDBRANCH  11  12
ENDBRANCH   1  11
TORSDOF 3
ENDMDL
MODEL 3
REMARK VINA RESULT:      -6.8      0.995      1.507
REMARK  Name = 
REMARK  4 active torsions:
REMARK  status: ('A' for Active; 'I' for Inactive)
REMARK    1  A    between atoms: C_1  and  C_2
REMARK    2  A    between atoms: C_7  and  O_8
REMARK    3  A    between atoms: O_8  and  C_9
REMARK    4  A    between atoms: C_9  and  C_10
REMARK                            x       y       z     vdW  Elec       q    Type
REMARK                         _______ _______ _______ _____ _____    ______ ____
ROOT
ATOM      1  C   UNL     1       3.082   5.513  18.701  0.00  0.00    +0.000 C 
ATOM      2  O   UNL     1       2.208   6.379  18.812  0.00  0.00    +0.000 OA
ATOM      3  N   UNL     1       2.777   4.198  18.324  0.00  0.00    +0.000 N 
ATOM      4  C   UNL     1       1.387   3.866  18.018  0.00  0.00    +0.000 C 
ATOM      5  C   UNL     1       0.708   2.943  19.031  0.00  0.00    +0.000 C 
ATOM      6  C   UNL     1       0.923   3.333  20.494  0.00  0.00    +0.000 C 
ATOM      7  C   UNL     1       1.995   2.512  21.225  0.00  0.00    +0.000 C 
ATOM      8  C   UNL     1       3.443   2.692  20.766  0.00  0.00    +0.000 C 
ATOM      9  C   UNL     1       3.755   2.124  19.379  0.00  0.00    +0.000 C 
ATOM     10  C   UNL     1       3.761   3.123  18.216  0.00  0.00    +0.000 C 
ENDROOT
BRANCH   1  11
ATOM     11  C   UNL     1       4.542   5.866  19.016  0.00  0.00    +0.000 C 
BRANCH  11  12
ATOM     12  O   UNL     1       5.105   6.635  17.962  0.00  0.00    +0.000 OA
BRANCH  12  19
ATOM     13  C   UNL     1       7.729   5.085  18.427  0.00  0.00    +0.000 C 
ATOM     14  C   UNL     1       6.954   5.191  17.148  0.00  0.00    +0.000 A 
ATOM     15  C   UNL     1       7.424   4.433  16.055  0.00  0.00    +0.000 A 
ATOM     16  C   UNL     1       6.756   4.426  14.831  0.00  0.00    +0.000 A 
ATOM     17  C   UNL     1       5.609   5.194  14.670  0.00  0.00    +0.000 A 
ATOM     18  C   UNL     1       5.127   5.948  15.741  0.00  0.00    +0.000 A 
ATOM     19  C   UNL     1       5.786   5.957  16.983  0.00  0.00    +0.000 A 
ENDBRANCH  12  19
ENDBRANCH  11  12
ENDBRANCH   1  11
TORSDOF 3
ENDMDL
MODEL 4
REMARK VINA RESULT:      -6.7      0.731      1.699
REMARK  Name = 
REMARK  4 active torsions:
REMARK  status: ('A' for Active; 'I' for Inactive)
REMARK    1  A    between atoms: C_1  and  C_2
REMARK    2  A    between atoms: C_7  and  O_8
REMARK    3  A    between atoms: O_8  and  C_9
REMARK    4  A    between atoms: C_9  and  C_10
REMARK                            x       y       z     vdW  Elec       q    Type
REMARK                         _______ _______ _______ _____ _____    ______ ____
ROOT
ATOM      1  C   UNL     1       2.183   5.601  19.123  0.00  0.00    +0.000 C 
ATOM      2  O   UNL     1       2.301   6.249  20.169  0.00  0.00    +0.000 OA
ATOM      3  N   UNL     1       1.570   4.341  19.099  0.00  0.00    +0.000 N 
ATOM      4  C   UNL     1       1.026   3.806  20.345  0.00  0.00    +0.000 C 
ATOM      5  C   UNL     1       1.782   2.605  20.914  0.00  0.00    +0.000 C 
ATOM      6  C   UNL     1       3.303   2.762  20.943  0.00  0.00    +0.000 C 
ATOM      7  C   UNL     1       4.042   2.047  19.803  0.00  0.00    +0.000 C 
ATOM      8  C   UNL     1       3.822   2.582  18.387  0.00  0.00    +0.000 C 
ATOM      9  C   UNL     1       2.423   2.341  17.816  0.00  0.00    +0.000 C 
ATOM     10  C   UNL     1       1.438   3.513  17.902  0.00  0.00    +0.000 C 
ENDROOT
BRANCH   1  11
ATOM     11  C   UNL     1       2.748   6.169  17.814  0.00  0.00    +0.000 C 
BRANCH  11  12
ATOM     12  O   UNL     1       4.009   6.783  18.042  0.00  0.00    +0.000 OA
BRANCH  12  19
ATOM     13  C   UNL     1       5.217   6.108  15.287  0.00  0.00    +0.000 C 
ATOM     14  C   UNL     1       5.752   5.716  16.632  0.00  0.00    +0.000 A 
ATOM     15  C   UNL     1       6.987   5.035  16.652  0.00  0.00    +0.000 A 
ATOM     16  C   UNL     1       7.596   4.660  17.848  0.00  0.00    +0.000 A 
ATOM     17  C   UNL     1       6.969   4.944  19.056  0.00  0.00    +0.000 A 
ATOM     18  C   UNL     1       5.747   5.619  19.057  0.00  0.00    +0.000 A 
ATOM     19  C   UNL     1       5.128   6.011  17.857  0.00  0.00    +0.000 A 
ENDBRANCH  12  19
ENDBRANCH  11  12
ENDBRANCH   1  11
TORSDOF 3
ENDMDL
MODEL 5
REMARK VINA RESULT:      -6.6      3.451      6.228
REMARK  Name = 
REMARK  4 active torsions:
REMARK  status: ('A' for Active; 'I' for Inactive)
REMARK    1  A    between atoms: C_1  and  C_2
REMARK    2  A    between atoms: C_7  and  O_8
REMARK    3  A    between atoms: O_8  and  C_9
REMARK    4  A    between atoms: C_9  and  C_10
REMARK                            x       y       z     vdW  Elec       q    Type
REMARK                         _______ _______ _______ _____ _____    ______ ____
ROOT
ATOM      1  C   UNL     1       2.675   6.041  19.655  0.00  0.00    +0.000 C 
ATOM      2  O   UNL     1       3.120   6.492  18.593  0.00  0.00    +0.000 OA
ATOM      3  N   UNL     1       3.069   4.791  20.151  0.00  0.00    +0.000 N 
ATOM      4  C   UNL     1       4.064   4.027  19.402  0.00  0.00    +0.000 C 
ATOM      5  C   UNL     1       3.530   2.761  18.729  0.00  0.00    +0.000 C 
ATOM      6  C   UNL     1       2.219   2.949  17.965  0.00  0.00    +0.000 C 
ATOM      7  C   UNL     1       0.967   2.471  18.715  0.00  0.00    +0.000 C 
ATOM      8  C   UNL     1       0.568   3.247  19.970  0.00  0.00    +0.000 C 
ATOM      9  C   UNL     1       1.514   3.078  21.161  0.00  0.00    +0.000 C 
ATOM     10  C   UNL     1       2.548   4.190  21.377  0.00  0.00    +0.000 C 
ENDROOT
BRANCH   1  11
ATOM     11  C   UNL     1       1.635   6.850  20.444  0.00  0.00    +0.000 C 
BRANCH  11  12
ATOM     12  O   UNL     1       1.679   8.219  20.065  0.00  0.00    +0.000 OA
BRANCH  12  19
ATOM     13  C   UNL     1       0.016  10.542  18.905  0.00  0.00    +0.000 C 
ATOM     14  C   UNL     1       0.138  10.145  20.347  0.00  0.00    +0.000 A 
ATOM     15  C   UNL     1      -0.657  10.855  21.271  0.00  0.00    +0.000 A 
ATOM     16  C   UNL     1      -0.652  10.542  22.629  0.00  0.00    +0.000 A 
ATOM     17  C   UNL     1       0.165   9.520  23.096  0.00  0.00    +0.000 A 
ATOM     18  C   UNL     1       0.957   8.805  22.196  0.00  0.00    +0.000 A 
ATOM     19  C   UNL     1       0.955   9.104  20.823  0.00  0.00    +0.000 A 
ENDBRANCH  12  19
ENDBRANCH  11  12
ENDBRANCH   1  11
TORSDOF 3
ENDMDL
MODEL 6
REMARK VINA RESULT:      -6.5      2.045      5.343
REMARK  Name = 
REMARK  4 active torsions:
REMARK  status: ('A' for Active; 'I' for Inactive)
REMARK    1  A    between atoms: C_1  and  C_2
REMARK    2  A    between atoms: C_7  and  O_8
REMARK    3  A    between atoms: O_8  and  C_9
REMARK    4  A    between atoms: C_9  and  C_10
REMARK                            x       y       z     vdW  Elec       q    Type
REMARK                         _______ _______ _______ _____ _____    ______ ____
ROOT
ATOM      1  C   UNL     1       4.787   4.122  16.211  0.00  0.00    +0.000 C 
ATOM      2  O   UNL     1       5.610   3.522  15.511  0.00  0.00    +0.000 OA
ATOM      3  N   UNL     1       4.966   5.463  16.577  0.00  0.00    +0.000 N 
ATOM      4  C   UNL     1       6.144   6.171  16.080  0.00  0.00    +0.000 C 
ATOM      5  C   UNL     1       7.186   6.514  17.145  0.00  0.00    +0.000 C 
ATOM      6  C   UNL     1       7.533   5.365  18.093  0.00  0.00    +0.000 C 
ATOM      7  C   UNL     1       6.846   5.437  19.464  0.00  0.00    +0.000 C 
ATOM      8  C   UNL     1       5.328   5.255  19.493  0.00  0.00    +0.000 C 
ATOM      9  C   UNL     1       4.529   6.406  18.878  0.00  0.00    +0.000 C 
ATOM     10  C   UNL     1       4.049   6.212  17.435  0.00  0.00    +0.000 C 
ENDROOT
BRANCH   1  11
ATOM     11  C   UNL     1       3.547   3.379  16.726  0.00  0.00    +0.000 C 
BRANCH  11  12
ATOM     12  O   UNL     1       3.877   2.585  17.857  0.00  0.00    +0.000 OA
BRANCH  12  19
ATOM     13  C   UNL     1       4.735   1.804  20.713  0.00  0.00    +0.000 C 
ATOM     14  C   UNL     1       3.429   2.413  20.293  0.00  0.00    +0.000 A 
ATOM     15  C   UNL     1       2.523   2.745  21.321  0.00  0.00    +0.000 A 
ATOM     16  C   UNL     1       1.299   3.353  21.046  0.00  0.00    +0.000 A 
ATOM     17  C   UNL     1       0.948   3.625  19.729  0.00  0.00    +0.000 A 
ATOM     18  C   UNL     1       1.834   3.306  18.699  0.00  0.00    +0.000 A 
ATOM     19  C   UNL     1       3.075   2.701  18.963  0.00  0.00    +0.000 A 
ENDBRANCH  12  19
ENDBRANCH  11  12
ENDBRANCH   1  11
TORSDOF 3
ENDMDL
MODEL 7
REMARK VINA RESULT:      -6.5      1.786      3.399
REMARK  Name = 
REMARK  4 active torsions:
REMARK  status: ('A' for Active; 'I' for Inactive)
REMARK    1  A    between atoms: C_1  and  C_2
REMARK    2  A    between atoms: C_7  and  O_8
REMARK    3  A    between atoms: O_8  and  C_9
REMARK    4  A    between atoms: C_9  and  C_10
REMARK                            x       y       z     vdW  Elec       q    Type
REMARK                         _______ _______ _______ _____ _____    ______ ____
ROOT
ATOM      1  C   UNL     1       4.287   2.903  19.805  0.00  0.00    +0.000 C 
ATOM      2  O   UNL     1       4.370   1.712  19.488  0.00  0.00    +0.000 OA
ATOM      3  N   UNL     1       3.097   3.455  20.300  0.00  0.00    +0.000 N 
ATOM      4  C   UNL     1       1.943   2.577  20.479  0.00  0.00    +0.000 C 
ATOM      5  C   UNL     1       0.786   2.832  19.512  0.00  0.00    +0.000 C 
ATOM      6  C   UNL     1       1.199   2.988  18.048  0.00  0.00    +0.000 C 
ATOM      7  C   UNL     1       1.267   4.440  17.553  0.00  0.00    +0.000 C 
ATOM      8  C   UNL     1       2.355   5.330  18.154  0.00  0.00    +0.000 C 
ATOM      9  C   UNL     1       2.150   5.696  19.626  0.00  0.00    +0.000 C 
ATOM     10  C   UNL     1       2.928   4.863  20.653  0.00  0.00    +0.000 C 
ENDROOT
BRANCH   1  11
ATOM     11  C   UNL     1       5.503   3.822  19.624  0.00  0.00    +0.000 C 
BRANCH  11  12
ATOM     12  O   UNL     1       5.617   4.235  18.269  0.00  0.00    +0.000 OA
BRANCH  12  19
ATOM     13  C   UNL     1       5.079   6.216  15.968  0.00  0.00    +0.000 C 
ATOM     14  C   UNL     1       6.150   6.311  17.015  0.00  0.00    +0.000 A 
ATOM     15  C   UNL     1       6.949   7.472  17.002  0.00  0.00    +0.000 A 
ATOM     16  C   UNL     1       7.946   7.682  17.954  0.00  0.00    +0.000 A 
ATOM     17  C   UNL     1       8.176   6.721  18.931  0.00  0.00    +0.000 A 
ATOM     18  C   UNL     1       7.393   5.566  18.961  0.00  0.00    +0.000 A 
ATOM     19  C   UNL     1       6.379   5.347  18.012  0.00  0.00    +0.000 A 
ENDBRANCH  12  19
ENDBRANCH  11  12
ENDBRANCH   1  11
TORSDOF 3
ENDMDL
MODEL 8
REMARK VINA RESULT:      -6.5      1.181      1.541
REMARK  Name = 
REMARK  4 active torsions:
REMARK  status: ('A' for Active; 'I' for Inactive)
REMARK    1  A    between atoms: C_1  and  C_2
REMARK    2  A    between atoms: C_7  and  O_8
REMARK    3  A    between atoms: O_8  and  C_9
REMARK    4  A    between atoms: C_9  and  C_10
REMARK                            x       y       z     vdW  Elec       q    Type
REMARK                         _______ _______ _______ _____ _____    ______ ____
ROOT
ATOM      1  C   UNL     1       3.697   5.732  19.170  0.00  0.00    +0.000 C 
ATOM      2  O   UNL     1       4.696   5.809  19.892  0.00  0.00    +0.000 OA
ATOM      3  N   UNL     1       2.632   4.871  19.470  0.00  0.00    +0.000 N 
ATOM      4  C   UNL     1       2.701   4.077  20.694  0.00  0.00    +0.000 C 
ATOM      5  C   UNL     1       2.880   2.574  20.477  0.00  0.00    +0.000 C 
ATOM      6  C   UNL     1       3.957   2.200  19.458  0.00  0.00    +0.000 C 
ATOM      7  C   UNL     1       3.421   1.825  18.069  0.00  0.00    +0.000 C 
ATOM      8  C   UNL     1       2.766   2.939  17.252  0.00  0.00    +0.000 C 
ATOM      9  C   UNL     1       1.419   3.428  17.791  0.00  0.00    +0.000 C 
ATOM     10  C   UNL     1       1.444   4.709  18.633  0.00  0.00    +0.000 C 
ENDROOT
BRANCH   1  11
ATOM     11  C   UNL     1       3.623   6.573  17.888  0.00  0.00    +0.000 C 
BRANCH  11  12
ATOM     12  O   UNL     1       4.920   7.008  17.503  0.00  0.00    +0.000 OA
BRANCH  12  19
ATOM     13  C   UNL     1       7.664   5.896  18.362  0.00  0.00    +0.000 C 
ATOM     14  C   UNL     1       6.903   5.566  17.112  0.00  0.00    +0.000 A 
ATOM     15  C   UNL     1       7.457   4.576  16.274  0.00  0.00    +0.000 A 
ATOM     16  C   UNL     1       6.813   4.163  15.109  0.00  0.00    +0.000 A 
ATOM     17  C   UNL     1       5.604   4.747  14.748  0.00  0.00    +0.000 A 
ATOM     18  C   UNL     1       5.039   5.726  15.567  0.00  0.00    +0.000 A 
ATOM     19  C   UNL     1       5.675   6.145  16.749  0.00  0.00    +0.000 A 
ENDBRANCH  12  19
ENDBRANCH  11  12
ENDBRANCH   1  11
TORSDOF 3
ENDMDL
MODEL 9
REMARK VINA RESULT:      -6.4      1.942      5.844
REMARK  Name = 
REMARK  4 active torsions:
REMARK  status: ('A' for Active; 'I' for Inactive)
REMARK    1  A    between atoms: C_1  and  C_2
REMARK    2  A    between atoms: C_7  and  O_8
REMARK    3  A    between atoms: O_8  and  C_9
REMARK    4  A    between atoms: C_9  and  C_10
REMARK                            x       y       z     vdW  Elec       q    Type
REMARK                         _______ _______ _______ _____ _____    ______ ____
ROOT
ATOM      1  C   UNL     1       5.990   4.727  19.064  0.00  0.00    +0.000 C 
ATOM      2  O   UNL     1       5.547   5.472  19.945  0.00  0.00    +0.000 OA
ATOM      3  N   UNL     1       6.944   5.165  18.135  0.00  0.00    +0.000 N 
ATOM      4  C   UNL     1       7.449   6.531  18.246  0.00  0.00    +0.000 C 
ATOM      5  C   UNL     1       7.011   7.473  17.124  0.00  0.00    +0.000 C 
ATOM      6  C   UNL     1       5.521   7.411  16.783  0.00  0.00    +0.000 C 
ATOM      7  C   UNL     1       5.185   6.583  15.534  0.00  0.00    +0.000 C 
ATOM      8  C   UNL     1       5.425   5.075  15.613  0.00  0.00    +0.000 C 
ATOM      9  C   UNL     1       6.896   4.657  15.662  0.00  0.00    +0.000 C 
ATOM     10  C   UNL     1       7.472   4.343  17.048  0.00  0.00    +0.000 C 
ENDROOT
BRANCH   1  11
ATOM     11  C   UNL     1       5.463   3.290  18.953  0.00  0.00    +0.000 C 
BRANCH  11  12
ATOM     12  O   UNL     1       4.157   3.280  18.393  0.00  0.00    +0.000 OA
BRANCH  12  19
ATOM     13  C   UNL     1       1.395   4.458  17.694  0.00  0.00    +0.000 C 
ATOM     14  C   UNL     1       1.805   3.811  18.984  0.00  0.00    +0.000 A 
ATOM     15  C   UNL     1       0.799   3.643  19.959  0.00  0.00    +0.000 A 
ATOM     16  C   UNL     1       1.060   3.017  21.176  0.00  0.00    +0.000 A 
ATOM     17  C   UNL     1       2.344   2.560  21.452  0.00  0.00    +0.000 A 
ATOM     18  C   UNL     1       3.351   2.714  20.499  0.00  0.00    +0.000 A 
ATOM     19  C   UNL     1       3.098   3.336  19.264  0.00  0.00    +0.000 A 
ENDBRANCH  12  19
ENDBRANCH  11  12
ENDBRANCH   1  11
TORSDOF 3
ENDMDL
