MODEL 1
REMARK VINA RESULT:      -8.3      0.000      0.000
REMARK  Name = 
REMARK  4 active torsions:
REMARK  status: ('A' for Active; 'I' for Inactive)
REMARK    1  A    between atoms: C_2  and  C_3
REMARK    2  A    between atoms: N_5  and  C_6
REMARK    3  A    between atoms: C_6  and  C_7
REMARK    4  A    between atoms: C_12  and  N_13
REMARK                            x       y       z     vdW  Elec       q    Type
REMARK                         _______ _______ _______ _____ _____    ______ ____
ROOT
ATOM      1  C   UNL     1       5.452   4.977  16.361  0.00  0.00    +0.000 A 
ATOM      2  C   UNL     1       4.983   3.683  16.478  0.00  0.00    +0.000 A 
ATOM      3  N   UNL     1       3.778   3.710  17.136  0.00  0.00    +0.000 N 
ATOM      4  C   UNL     1       3.435   5.017  17.428  0.00  0.00    +0.000 A 
ATOM      5  C   UNL     1       2.307   5.556  18.069  0.00  0.00    +0.000 A 
ATOM      6  C   UNL     1       2.239   6.941  18.237  0.00  0.00    +0.000 A 
ATOM      7  C   UNL     1       3.264   7.767  17.791  0.00  0.00    +0.000 A 
ATOM      8  C   UNL     1       4.386   7.226  17.153  0.00  0.00    +0.000 A 
ATOM      9  C   UNL     1       4.475   5.829  16.961  0.00  0.00    +0.000 A 
ENDROOT
BRANCH   1  11
ATOM     10  O   UNL     1       7.501   6.152  16.228  0.00  0.00    +0.000 OA
ATOM     11  C   UNL     1       6.708   5.352  15.739  0.00  0.00    +0.000 C 
ENDBRANCH   1  11
BRANCH   3  12
ATOM     12  C   UNL     1       3.027   2.516  17.534  0.00  0.00    +0.000 C 
BRANCH  12  13
ATOM     13  C   UNL     1       2.477   2.636  18.938  0.00  0.00    +0.000 A 
ATOM     14  C   UNL     1       1.085   2.759  19.117  0.00  0.00    +0.000 A 
ATOM     15  C   UNL     1       0.526   2.923  20.386  0.00  0.00    +0.000 A 
ATOM     16  C   UNL     1       1.338   2.953  21.517  0.00  0.00    +0.000 A 
ATOM     17  C   UNL     1       2.712   2.797  21.382  0.00  0.00    +0.000 A 
ATOM     18  C   UNL     1       3.269   2.633  20.102  0.00  0.00    +0.000 A 
BRANCH  18  19
ATOM     19  N   UNL     1       4.706   2.424  20.042  0.00  0.00    +0.000 N 
ATOM     20  O   UNL     1       5.412   3.418  19.824  0.00  0.00    +0.000 OA
ATOM     21  O   UNL     1       5.117   1.268  20.202  0.00  0.00    +0.000 OA
ENDBRANCH  18  19
ENDBRANCH  12  13
ENDBRANCH   3  12
TORSDOF 4
ENDMDL
MODEL 2
REMARK VINA RESULT:      -8.1      2.124      3.284
REMARK  Name = 
REMARK  4 active torsions:
REMARK  status: ('A' for Active; 'I' for Inactive)
REMARK    1  A    between atoms: C_2  and  C_3
REMARK    2  A    between atoms: N_5  and  C_6
REMARK    3  A    between atoms: C_6  and  C_7
REMARK    4  A    between atoms: C_12  and  N_13
REMARK                            x       y       z     vdW  Elec       q    Type
REMARK                         _______ _______ _______ _____ _____    ______ ____
ROOT
ATOM      1  C   UNL     1       6.609   5.445  18.639  0.00  0.00    +0.000 A 
ATOM      2  C   UNL     1       5.319   5.537  19.124  0.00  0.00    +0.000 A 
ATOM      3  N   UNL     1       4.444   5.274  18.099  0.00  0.00    +0.000 N 
ATOM      4  C   UNL     1       5.149   4.981  16.946  0.00  0.00    +0.000 A 
ATOM      5  C   UNL     1       4.712   4.636  15.657  0.00  0.00    +0.000 A 
ATOM      6  C   UNL     1       5.675   4.403  14.671  0.00  0.00    +0.000 A 
ATOM      7  C   UNL     1       7.031   4.517  14.953  0.00  0.00    +0.000 A 
ATOM      8  C   UNL     1       7.462   4.861  16.239  0.00  0.00    +0.000 A 
ATOM      9  C   UNL     1       6.510   5.092  17.258  0.00  0.00    +0.000 A 
ENDROOT
BRANCH   1  11
ATOM     10  O   UNL     1       7.983   5.232  20.553  0.00  0.00    +0.000 OA
ATOM     11  C   UNL     1       7.809   5.675  19.421  0.00  0.00    +0.000 C 
ENDBRANCH   1  11
BRANCH   3  12
ATOM     12  C   UNL     1       2.986   5.379  18.209  0.00  0.00    +0.000 C 
BRANCH  12  13
ATOM     13  C   UNL     1       2.424   4.405  19.220  0.00  0.00    +0.000 A 
ATOM     14  C   UNL     1       1.949   4.897  20.451  0.00  0.00    +0.000 A 
ATOM     15  C   UNL     1       1.466   4.039  21.441  0.00  0.00    +0.000 A 
ATOM     16  C   UNL     1       1.426   2.664  21.226  0.00  0.00    +0.000 A 
ATOM     17  C   UNL     1       1.851   2.145  20.008  0.00  0.00    +0.000 A 
ATOM     18  C   UNL     1       2.337   3.014  19.017  0.00  0.00    +0.000 A 
BRANCH  18  19
ATOM     19  N   UNL     1       2.715   2.407  17.751  0.00  0.00    +0.000 N 
ATOM     20  O   UNL     1       3.675   1.625  17.765  0.00  0.00    +0.000 OA
ATOM     21  O   UNL     1       2.058   2.725  16.753  0.00  0.00    +0.000 OA
ENDBRANCH  18  19
ENDBRANCH  12  13
ENDBRANCH   3  12
TORSDOF 4
ENDMDL
MODEL 3
REMARK VINA RESULT:      -8.0      2.399      3.502
REMARK  Name = 
REMARK  4 active torsions:
REMARK  status: ('A' for Active; 'I' for Inactive)
REMARK    1  A    between atoms: C_2  and  C_3
REMARK    2  A    between atoms: N_5  and  C_6
REMARK    3  A    between atoms: C_6  and  C_7
REMARK    4  A    between atoms: C_12  and  N_13
REMARK                            x       y       z     vdW  Elec       q    Type
REMARK                         _______ _______ _______ _____ _____    ______ ____
ROOT
ATOM      1  C   UNL     1       6.522   4.955  18.360  0.00  0.00    +0.000 A 
ATOM      2  C   UNL     1       5.525   4.128  18.837  0.00  0.00    +0.000 A 
ATOM      3  N   UNL     1       4.915   3.514  17.771  0.00  0.00    +0.000 N 
ATOM      4  C   UNL     1       5.522   3.910  16.594  0.00  0.00    +0.000 A 
ATOM      5  C   UNL     1       5.273   3.554  15.259  0.00  0.00    +0.000 A 
ATOM      6  C   UNL     1       6.057   4.137  14.260  0.00  0.00    +0.000 A 
ATOM      7  C   UNL     1       7.054   5.052  14.575  0.00  0.00    +0.000 A 
ATOM      8  C   UNL     1       7.299   5.404  15.906  0.00  0.00    +0.000 A 
ATOM      9  C   UNL     1       6.528   4.822  16.938  0.00  0.00    +0.000 A 
ENDROOT
BRANCH   1  11
ATOM     10  O   UNL     1       7.789   5.456  20.295  0.00  0.00    +0.000 OA
ATOM     11  C   UNL     1       7.378   5.787  19.186  0.00  0.00    +0.000 C 
ENDBRANCH   1  11
BRANCH   3  12
ATOM     12  C   UNL     1       3.742   2.642  17.880  0.00  0.00    +0.000 C 
BRANCH  12  13
ATOM     13  C   UNL     1       2.905   2.967  19.096  0.00  0.00    +0.000 A 
ATOM     14  C   UNL     1       3.148   2.272  20.297  0.00  0.00    +0.000 A 
ATOM     15  C   UNL     1       2.372   2.496  21.437  0.00  0.00    +0.000 A 
ATOM     16  C   UNL     1       1.342   3.432  21.419  0.00  0.00    +0.000 A 
ATOM     17  C   UNL     1       1.098   4.164  20.262  0.00  0.00    +0.000 A 
ATOM     18  C   UNL     1       1.881   3.933  19.118  0.00  0.00    +0.000 A 
BRANCH  18  19
ATOM     19  N   UNL     1       1.604   4.771  17.963  0.00  0.00    +0.000 N 
ATOM     20  O   UNL     1       2.133   5.890  17.936  0.00  0.00    +0.000 OA
ATOM     21  O   UNL     1       0.851   4.308  17.096  0.00  0.00    +0.000 OA
ENDBRANCH  18  19
ENDBRANCH  12  13
ENDBRANCH   3  12
TORSDOF 4
ENDMDL
MODEL 4
REMARK VINA RESULT:      -8.0      2.379      5.547
REMARK  Name = 
REMARK  4 active torsions:
REMARK  status: ('A' for Active; 'I' for Inactive)
REMARK    1  A    between atoms: C_2  and  C_3
REMARK    2  A    between atoms: N_5  and  C_6
REMARK    3  A    between atoms: C_6  and  C_7
REMARK    4  A    between atoms: C_12  and  N_13
REMARK                            x       y       z     vdW  Elec       q    Type
REMARK                         _______ _______ _______ _____ _____    ______ ____
ROOT
ATOM      1  C   UNL     1       2.556   3.270  20.291  0.00  0.00    +0.000 A 
ATOM      2  C   UNL     1       3.542   2.954  19.377  0.00  0.00    +0.000 A 
ATOM      3  N   UNL     1       3.900   4.097  18.705  0.00  0.00    +0.000 N 
ATOM      4  C   UNL     1       3.175   5.170  19.187  0.00  0.00    +0.000 A 
ATOM      5  C   UNL     1       3.192   6.530  18.838  0.00  0.00    +0.000 A 
ATOM      6  C   UNL     1       2.320   7.396  19.503  0.00  0.00    +0.000 A 
ATOM      7  C   UNL     1       1.453   6.926  20.482  0.00  0.00    +0.000 A 
ATOM      8  C   UNL     1       1.440   5.570  20.827  0.00  0.00    +0.000 A 
ATOM      9  C   UNL     1       2.317   4.674  20.177  0.00  0.00    +0.000 A 
ENDROOT
BRANCH   1  11
ATOM     10  O   UNL     1       1.567   2.582  22.327  0.00  0.00    +0.000 OA
ATOM     11  C   UNL     1       1.910   2.320  21.178  0.00  0.00    +0.000 C 
ENDBRANCH   1  11
BRANCH   3  12
ATOM     12  C   UNL     1       4.847   4.135  17.586  0.00  0.00    +0.000 C 
BRANCH  12  13
ATOM     13  C   UNL     1       5.990   5.090  17.844  0.00  0.00    +0.000 A 
ATOM     14  C   UNL     1       6.682   5.012  19.068  0.00  0.00    +0.000 A 
ATOM     15  C   UNL     1       7.712   5.902  19.380  0.00  0.00    +0.000 A 
ATOM     16  C   UNL     1       8.095   6.886  18.473  0.00  0.00    +0.000 A 
ATOM     17  C   UNL     1       7.459   6.969  17.240  0.00  0.00    +0.000 A 
ATOM     18  C   UNL     1       6.423   6.072  16.932  0.00  0.00    +0.000 A 
BRANCH  18  19
ATOM     19  N   UNL     1       5.840   6.184  15.605  0.00  0.00    +0.000 N 
ATOM     20  O   UNL     1       4.907   6.986  15.464  0.00  0.00    +0.000 OA
ATOM     21  O   UNL     1       6.312   5.464  14.717  0.00  0.00    +0.000 OA
ENDBRANCH  18  19
ENDBRANCH  12  13
ENDBRANCH   3  12
TORSDOF 4
ENDMDL
MODEL 5
REMARK VINA RESULT:      -7.9      1.828      5.513
REMARK  Name = 
REMARK  4 active torsions:
REMARK  status: ('A' for Active; 'I' for Inactive)
REMARK    1  A    between atoms: C_2  and  C_3
REMARK    2  A    between atoms: N_5  and  C_6
REMARK    3  A    between atoms: C_6  and  C_7
REMARK    4  A    between atoms: C_12  and  N_13
REMARK                            x       y       z     vdW  Elec       q    Type
REMARK                         _______ _______ _______ _____ _____    ______ ____
ROOT
ATOM      1  C   UNL     1       4.539   2.552  20.086  0.00  0.00    +0.000 A 
ATOM      2  C   UNL     1       5.215   3.530  19.383  0.00  0.00    +0.000 A 
ATOM      3  N   UNL     1       4.341   4.549  19.096  0.00  0.00    +0.000 N 
ATOM      4  C   UNL     1       3.098   4.263  19.628  0.00  0.00    +0.000 A 
ATOM      5  C   UNL     1       1.897   4.990  19.615  0.00  0.00    +0.000 A 
ATOM      6  C   UNL     1       0.777   4.432  20.238  0.00  0.00    +0.000 A 
ATOM      7  C   UNL     1       0.846   3.185  20.849  0.00  0.00    +0.000 A 
ATOM      8  C   UNL     1       2.045   2.464  20.859  0.00  0.00    +0.000 A 
ATOM      9  C   UNL     1       3.195   3.010  20.246  0.00  0.00    +0.000 A 
ENDROOT
BRANCH   1  11
ATOM     10  O   UNL     1       5.755   1.200  21.599  0.00  0.00    +0.000 OA
ATOM     11  C   UNL     1       5.123   1.308  20.552  0.00  0.00    +0.000 C 
ENDBRANCH   1  11
BRANCH   3  12
ATOM     12  C   UNL     1       4.674   5.715  18.272  0.00  0.00    +0.000 C 
BRANCH  12  13
ATOM     13  C   UNL     1       5.413   5.325  17.011  0.00  0.00    +0.000 A 
ATOM     14  C   UNL     1       4.774   4.485  16.078  0.00  0.00    +0.000 A 
ATOM     15  C   UNL     1       5.427   4.052  14.922  0.00  0.00    +0.000 A 
ATOM     16  C   UNL     1       6.731   4.458  14.652  0.00  0.00    +0.000 A 
ATOM     17  C   UNL     1       7.379   5.317  15.532  0.00  0.00    +0.000 A 
ATOM     18  C   UNL     1       6.718   5.748  16.694  0.00  0.00    +0.000 A 
BRANCH  18  19
ATOM     19  N   UNL     1       7.437   6.686  17.541  0.00  0.00    +0.000 N 
ATOM     20  O   UNL     1       7.554   7.847  17.126  0.00  0.00    +0.000 OA
ATOM     21  O   UNL     1       7.890   6.252  18.608  0.00  0.00    +0.000 OA
ENDBRANCH  18  19
ENDBRANCH  12  13
ENDBRANCH   3  12
TORSDOF 4
ENDMDL
MODEL 6
REMARK VINA RESULT:      -7.8      1.984      3.117
REMARK  Name = 
REMARK  4 active torsions:
REMARK  status: ('A' for Active; 'I' for Inactive)
REMARK    1  A    between atoms: C_2  and  C_3
REMARK    2  A    between atoms: N_5  and  C_6
REMARK    3  A    between atoms: C_6  and  C_7
REMARK    4  A    between atoms: C_12  and  N_13
REMARK                            x       y       z     vdW  Elec       q    Type
REMARK                         _______ _______ _______ _____ _____    ______ ____
ROOT
ATOM      1  C   UNL     1       6.588   5.636  18.161  0.00  0.00    +0.000 A 
ATOM      2  C   UNL     1       5.305   5.566  18.668  0.00  0.00    +0.000 A 
ATOM      3  N   UNL     1       4.462   5.135  17.673  0.00  0.00    +0.000 N 
ATOM      4  C   UNL     1       5.184   4.894  16.520  0.00  0.00    +0.000 A 
ATOM      5  C   UNL     1       4.782   4.433  15.256  0.00  0.00    +0.000 A 
ATOM      6  C   UNL     1       5.753   4.295  14.261  0.00  0.00    +0.000 A 
ATOM      7  C   UNL     1       7.083   4.612  14.510  0.00  0.00    +0.000 A 
ATOM      8  C   UNL     1       7.479   5.071  15.770  0.00  0.00    +0.000 A 
ATOM      9  C   UNL     1       6.520   5.211  16.798  0.00  0.00    +0.000 A 
ENDROOT
BRANCH   1  11
ATOM     10  O   UNL     1       8.361   7.112  18.684  0.00  0.00    +0.000 OA
ATOM     11  C   UNL     1       7.754   6.068  18.907  0.00  0.00    +0.000 C 
ENDBRANCH   1  11
BRANCH   3  12
ATOM     12  C   UNL     1       3.006   5.037  17.810  0.00  0.00    +0.000 C 
BRANCH  12  13
ATOM     13  C   UNL     1       2.603   4.328  19.083  0.00  0.00    +0.000 A 
ATOM     14  C   UNL     1       2.227   5.096  20.203  0.00  0.00    +0.000 A 
ATOM     15  C   UNL     1       1.895   4.496  21.419  0.00  0.00    +0.000 A 
ATOM     16  C   UNL     1       1.911   3.110  21.551  0.00  0.00    +0.000 A 
ATOM     17  C   UNL     1       2.240   2.319  20.457  0.00  0.00    +0.000 A 
ATOM     18  C   UNL     1       2.575   2.928  19.236  0.00  0.00    +0.000 A 
BRANCH  18  19
ATOM     19  N   UNL     1       2.858   2.038  18.122  0.00  0.00    +0.000 N 
ATOM     20  O   UNL     1       2.129   2.131  17.125  0.00  0.00    +0.000 OA
ATOM     21  O   UNL     1       3.799   1.246  18.256  0.00  0.00    +0.000 OA
ENDBRANCH  18  19
ENDBRANCH  12  13
ENDBRANCH   3  12
TORSDOF 4
ENDMDL
MODEL 7
REMARK VINA RESULT:      -7.7      2.286      5.523
REMARK  Name = 
REMARK  4 active torsions:
REMARK  status: ('A' for Active; 'I' for Inactive)
REMARK    1  A    between atoms: C_2  and  C_3
REMARK    2  A    between atoms: N_5  and  C_6
REMARK    3  A    between atoms: C_6  and  C_7
REMARK    4  A    between atoms: C_12  and  N_13
REMARK                            x       y       z     vdW  Elec       q    Type
REMARK                         _______ _______ _______ _____ _____    ______ ____
ROOT
ATOM      1  C   UNL     1       2.758   6.414  19.460  0.00  0.00    +0.000 A 
ATOM      2  C   UNL     1       4.032   6.269  18.947  0.00  0.00    +0.000 A 
ATOM      3  N   UNL     1       4.402   4.951  19.055  0.00  0.00    +0.000 N 
ATOM      4  C   UNL     1       3.369   4.220  19.610  0.00  0.00    +0.000 A 
ATOM      5  C   UNL     1       3.259   2.851  19.905  0.00  0.00    +0.000 A 
ATOM      6  C   UNL     1       2.074   2.392  20.488  0.00  0.00    +0.000 A 
ATOM      7  C   UNL     1       1.033   3.266  20.776  0.00  0.00    +0.000 A 
ATOM      8  C   UNL     1       1.147   4.628  20.481  0.00  0.00    +0.000 A 
ATOM      9  C   UNL     1       2.330   5.118  19.883  0.00  0.00    +0.000 A 
ENDROOT
BRANCH   1  11
ATOM     10  O   UNL     1       1.921   8.453  18.599  0.00  0.00    +0.000 OA
ATOM     11  C   UNL     1       2.031   7.667  19.536  0.00  0.00    +0.000 C 
ENDBRANCH   1  11
BRANCH   3  12
ATOM     12  C   UNL     1       5.729   4.434  18.708  0.00  0.00    +0.000 C 
BRANCH  12  13
ATOM     13  C   UNL     1       6.028   4.586  17.233  0.00  0.00    +0.000 A 
ATOM     14  C   UNL     1       5.457   3.675  16.324  0.00  0.00    +0.000 A 
ATOM     15  C   UNL     1       5.739   3.736  14.957  0.00  0.00    +0.000 A 
ATOM     16  C   UNL     1       6.586   4.720  14.454  0.00  0.00    +0.000 A 
ATOM     17  C   UNL     1       7.138   5.659  15.317  0.00  0.00    +0.000 A 
ATOM     18  C   UNL     1       6.851   5.591  16.691  0.00  0.00    +0.000 A 
BRANCH  18  19
ATOM     19  N   UNL     1       7.422   6.636  17.525  0.00  0.00    +0.000 N 
ATOM     20  O   UNL     1       8.001   6.280  18.560  0.00  0.00    +0.000 OA
ATOM     21  O   UNL     1       7.278   7.805  17.145  0.00  0.00    +0.000 OA
ENDBRANCH  18  19
ENDBRANCH  12  13
ENDBRANCH   3  12
TORSDOF 4
ENDMDL
MODEL 8
REMARK VINA RESULT:      -7.7      2.431      3.752
REMARK  Name = 
REMARK  4 active torsions:
REMARK  status: ('A' for Active; 'I' for Inactive)
REMARK    1  A    between atoms: C_2  and  C_3
REMARK    2  A    between atoms: N_5  and  C_6
REMARK    3  A    between atoms: C_6  and  C_7
REMARK    4  A    between atoms: C_12  and  N_13
REMARK                            x       y       z     vdW  Elec       q    Type
REMARK                         _______ _______ _______ _____ _____    ______ ____
ROOT
ATOM      1  C   UNL     1       6.839   5.331  18.433  0.00  0.00    +0.000 A 
ATOM      2  C   UNL     1       5.690   5.021  19.132  0.00  0.00    +0.000 A 
ATOM      3  N   UNL     1       4.762   4.520  18.253  0.00  0.00    +0.000 N 
ATOM      4  C   UNL     1       5.301   4.472  16.981  0.00  0.00    +0.000 A 
ATOM      5  C   UNL     1       4.760   4.031  15.762  0.00  0.00    +0.000 A 
ATOM      6  C   UNL     1       5.554   4.116  14.615  0.00  0.00    +0.000 A 
ATOM      7  C   UNL     1       6.843   4.631  14.674  0.00  0.00    +0.000 A 
ATOM      8  C   UNL     1       7.378   5.070  15.890  0.00  0.00    +0.000 A 
ATOM      9  C   UNL     1       6.601   4.986  17.067  0.00  0.00    +0.000 A 
ENDROOT
BRANCH   1  11
ATOM     10  O   UNL     1       8.370   7.077  18.888  0.00  0.00    +0.000 OA
ATOM     11  C   UNL     1       8.039   5.902  19.017  0.00  0.00    +0.000 C 
ENDBRANCH   1  11
BRANCH   3  12
ATOM     12  C   UNL     1       3.383   4.177  18.613  0.00  0.00    +0.000 C 
BRANCH  12  13
ATOM     13  C   UNL     1       2.672   5.326  19.292  0.00  0.00    +0.000 A 
ATOM     14  C   UNL     1       2.780   6.617  18.739  0.00  0.00    +0.000 A 
ATOM     15  C   UNL     1       2.187   7.723  19.352  0.00  0.00    +0.000 A 
ATOM     16  C   UNL     1       1.453   7.572  20.525  0.00  0.00    +0.000 A 
ATOM     17  C   UNL     1       1.294   6.307  21.079  0.00  0.00    +0.000 A 
ATOM     18  C   UNL     1       1.894   5.198  20.459  0.00  0.00    +0.000 A 
BRANCH  18  19
ATOM     19  N   UNL     1       1.643   3.901  21.064  0.00  0.00    +0.000 N 
ATOM     20  O   UNL     1       0.781   3.187  20.533  0.00  0.00    +0.000 OA
ATOM     21  O   UNL     1       2.300   3.609  22.071  0.00  0.00    +0.000 OA
ENDBRANCH  18  19
ENDBRANCH  12  13
ENDBRANCH   3  12
TORSDOF 4
ENDMDL
MODEL 9
REMARK VINA RESULT:      -7.6      2.199      3.499
REMARK  Name = 
REMARK  4 active torsions:
REMARK  status: ('A' for Active; 'I' for Inactive)
REMARK    1  A    between atoms: C_2  and  C_3
REMARK    2  A    between atoms: N_5  and  C_6
REMARK    3  A    between atoms: C_6  and  C_7
REMARK    4  A    between atoms: C_12  and  N_13
REMARK                            x       y       z     vdW  Elec       q    Type
REMARK                         _______ _______ _______ _____ _____    ______ ____
ROOT
ATOM      1  C   UNL     1       7.203   6.159  17.994  0.00  0.00    +0.000 A 
ATOM      2  C   UNL     1       6.412   5.543  18.945  0.00  0.00    +0.000 A 
ATOM      3  N   UNL     1       5.658   4.576  18.328  0.00  0.00    +0.000 N 
ATOM      4  C   UNL     1       5.965   4.530  16.982  0.00  0.00    +0.000 A 
ATOM      5  C   UNL     1       5.480   3.711  15.949  0.00  0.00    +0.000 A 
ATOM      6  C   UNL     1       5.977   3.907  14.658  0.00  0.00    +0.000 A 
ATOM      7  C   UNL     1       6.923   4.891  14.398  0.00  0.00    +0.000 A 
ATOM      8  C   UNL     1       7.404   5.705  15.429  0.00  0.00    +0.000 A 
ATOM      9  C   UNL     1       6.925   5.522  16.746  0.00  0.00    +0.000 A 
ENDROOT
BRANCH   1  11
ATOM     10  O   UNL     1       7.954   8.399  17.870  0.00  0.00    +0.000 OA
ATOM     11  C   UNL     1       8.125   7.247  18.259  0.00  0.00    +0.000 C 
ENDBRANCH   1  11
BRANCH   3  12
ATOM     12  C   UNL     1       4.624   3.782  19.000  0.00  0.00    +0.000 C 
BRANCH  12  13
ATOM     13  C   UNL     1       3.498   4.645  19.523  0.00  0.00    +0.000 A 
ATOM     14  C   UNL     1       3.420   5.989  19.110  0.00  0.00    +0.000 A 
ATOM     15  C   UNL     1       2.432   6.845  19.601  0.00  0.00    +0.000 A 
ATOM     16  C   UNL     1       1.480   6.381  20.504  0.00  0.00    +0.000 A 
ATOM     17  C   UNL     1       1.503   5.050  20.905  0.00  0.00    +0.000 A 
ATOM     18  C   UNL     1       2.501   4.194  20.409  0.00  0.00    +0.000 A 
BRANCH  18  19
ATOM     19  N   UNL     1       2.432   2.805  20.831  0.00  0.00    +0.000 N 
ATOM     20  O   UNL     1       2.807   2.545  21.982  0.00  0.00    +0.000 OA
ATOM     21  O   UNL     1       2.014   1.983  20.006  0.00  0.00    +0.000 OA
ENDBRANCH  18  19
ENDBRANCH  12  13
ENDBRANCH   3  12
TORSDOF 4
ENDMDL
