MODEL 1
REMARK VINA RESULT:      -5.8      0.000      0.000
REMARK  Name = 
REMARK  9 active torsions:
REMARK  status: ('A' for Active; 'I' for Inactive)
REMARK    1  A    between atoms: C_1  and  C_2
REMARK    2  A    between atoms: C_2  and  N_3
REMARK    3  A    between atoms: C_6  and  C_7
REMARK    4  A    between atoms: C_7  and  N_8
REMARK    5  A    between atoms: N_8  and  C_9
REMARK    6  A    between atoms: N_8  and  C_10
REMARK    7  A    between atoms: C_10  and  C_11
REMARK    8  A    between atoms: C_15  and  C_16
REMARK    9  A    between atoms: C_17  and  C_18
REMARK                            x       y       z     vdW  Elec       q    Type
REMARK                         _______ _______ _______ _____ _____    ______ ____
ROOT
ATOM      1  C   UNL     1       3.323   4.641  18.105  0.00  0.00    +0.000 C 
ENDROOT
BRANCH   1   5
ATOM      2  N   UNL     1       1.851   7.393  20.035  0.00  0.00    +0.000 N 
ATOM      3  N   UNL     1       2.177   8.079  18.923  0.00  0.00    +0.000 NA
ATOM      4  C   UNL     1       2.711   7.156  18.124  0.00  0.00    +0.000 A 
ATOM      5  C   UNL     1       2.731   5.870  18.709  0.00  0.00    +0.000 A 
ATOM      6  C   UNL     1       2.124   6.049  19.943  0.00  0.00    +0.000 A 
ATOM      7  C   UNL     1       1.799   5.076  21.017  0.00  0.00    +0.000 C 
BRANCH   2   9
ATOM      8  C   UNL     1       0.659   9.419  20.803  0.00  0.00    +0.000 C 
ATOM      9  C   UNL     1       1.348   8.122  21.186  0.00  0.00    +0.000 C 
ENDBRANCH   2   9
ENDBRANCH   1   5
BRANCH   1  10
ATOM     10  N   UNL     1       4.505   4.151  18.843  0.00  0.00    +0.000 NA
ATOM     11  C   UNL     1       4.261   2.819  19.408  0.00  0.00    +0.000 C 
BRANCH  10  12
ATOM     12  C   UNL     1       5.649   4.137  17.905  0.00  0.00    +0.000 C 
BRANCH  12  13
ATOM     13  C   UNL     1       6.372   5.446  17.779  0.00  0.00    +0.000 A 
ATOM     14  S   UNL     1       7.592   5.867  18.917  0.00  0.00    +0.000 S 
ATOM     15  C   UNL     1       7.887   7.310  18.049  0.00  0.00    +0.000 A 
ATOM     16  N   UNL     1       7.142   7.509  16.987  0.00  0.00    +0.000 NA
ATOM     17  C   UNL     1       6.264   6.446  16.823  0.00  0.00    +0.000 A 
ATOM     18  C   UNL     1       5.323   6.483  15.672  0.00  0.00    +0.000 C 
ENDBRANCH  12  13
ENDBRANCH  10  12
ENDBRANCH   1  10
TORSDOF 5
ENDMDL
MODEL 2
REMARK VINA RESULT:      -5.7      0.929      1.639
REMARK  Name = 
REMARK  9 active torsions:
REMARK  status: ('A' for Active; 'I' for Inactive)
REMARK    1  A    between atoms: C_1  and  C_2
REMARK    2  A    between atoms: C_2  and  N_3
REMARK    3  A    between atoms: C_6  and  C_7
REMARK    4  A    between atoms: C_7  and  N_8
REMARK    5  A    between atoms: N_8  and  C_9
REMARK    6  A    between atoms: N_8  and  C_10
REMARK    7  A    between atoms: C_10  and  C_11
REMARK    8  A    between atoms: C_15  and  C_16
REMARK    9  A    between atoms: C_17  and  C_18
REMARK                            x       y       z     vdW  Elec       q    Type
REMARK                         _______ _______ _______ _____ _____    ______ ____
ROOT
ATOM      1  C   UNL     1       2.849   4.187  18.608  0.00  0.00    +0.000 C 
ENDROOT
BRANCH   1   5
ATOM      2  N   UNL     1       1.826   7.387  20.085  0.00  0.00    +0.000 N 
ATOM      3  N   UNL     1       1.396   6.568  21.063  0.00  0.00    +0.000 NA
ATOM      4  C   UNL     1       1.741   5.354  20.637  0.00  0.00    +0.000 A 
ATOM      5  C   UNL     1       2.399   5.378  19.387  0.00  0.00    +0.000 A 
ATOM      6  C   UNL     1       2.478   6.726  19.071  0.00  0.00    +0.000 A 
ATOM      7  C   UNL     1       3.095   7.419  17.911  0.00  0.00    +0.000 C 
BRANCH   2   9
ATOM      8  C   UNL     1       1.005   9.214  21.535  0.00  0.00    +0.000 C 
ATOM      9  C   UNL     1       1.502   8.800  20.163  0.00  0.00    +0.000 C 
ENDBRANCH   2   9
ENDBRANCH   1   5
BRANCH   1  10
ATOM     10  N   UNL     1       4.221   3.763  18.952  0.00  0.00    +0.000 NA
ATOM     11  C   UNL     1       4.217   2.459  19.626  0.00  0.00    +0.000 C 
BRANCH  10  12
ATOM     12  C   UNL     1       5.007   3.718  17.700  0.00  0.00    +0.000 C 
BRANCH  12  13
ATOM     13  C   UNL     1       5.957   4.865  17.517  0.00  0.00    +0.000 A 
ATOM     14  S   UNL     1       6.683   5.608  18.890  0.00  0.00    +0.000 S 
ATOM     15  C   UNL     1       7.569   6.636  17.851  0.00  0.00    +0.000 A 
ATOM     16  N   UNL     1       7.359   6.479  16.564  0.00  0.00    +0.000 NA
ATOM     17  C   UNL     1       6.431   5.466  16.359  0.00  0.00    +0.000 A 
ATOM     18  C   UNL     1       6.050   5.136  14.961  0.00  0.00    +0.000 C 
ENDBRANCH  12  13
ENDBRANCH  10  12
ENDBRANCH   1  10
TORSDOF 5
ENDMDL
MODEL 3
REMARK VINA RESULT:      -5.6      2.176      3.963
REMARK  Name = 
REMARK  9 active torsions:
REMARK  status: ('A' for Active; 'I' for Inactive)
REMARK    1  A    between atoms: C_1  and  C_2
REMARK    2  A    between atoms: C_2  and  N_3
REMARK    3  A    between atoms: C_6  and  C_7
REMARK    4  A    between atoms: C_7  and  N_8
REMARK    5  A    between atoms: N_8  and  C_9
REMARK    6  A    between atoms: N_8  and  C_10
REMARK    7  A    between atoms: C_10  and  C_11
REMARK    8  A    between atoms: C_15  and  C_16
REMARK    9  A    between atoms: C_17  and  C_18
REMARK                            x       y       z     vdW  Elec       q    Type
REMARK                         _______ _______ _______ _____ _____    ______ ____
ROOT
ATOM      1  C   UNL     1       4.261   6.348  19.101  0.00  0.00    +0.000 C 
ENDROOT
BRANCH   1   5
ATOM      2  N   UNL     1       2.661   3.128  19.835  0.00  0.00    +0.000 N 
ATOM      3  N   UNL     1       3.831   2.666  19.356  0.00  0.00    +0.000 NA
ATOM      4  C   UNL     1       4.518   3.772  19.072  0.00  0.00    +0.000 A 
ATOM      5  C   UNL     1       3.802   4.953  19.367  0.00  0.00    +0.000 A 
ATOM      6  C   UNL     1       2.606   4.500  19.904  0.00  0.00    +0.000 A 
ATOM      7  C   UNL     1       1.443   5.242  20.454  0.00  0.00    +0.000 C 
BRANCH   2   9
ATOM      8  C   UNL     1       0.602   2.038  19.005  0.00  0.00    +0.000 C 
ATOM      9  C   UNL     1       1.604   2.179  20.136  0.00  0.00    +0.000 C 
ENDBRANCH   2   9
ENDBRANCH   1   5
BRANCH   1  10
ATOM     10  N   UNL     1       3.863   6.838  17.766  0.00  0.00    +0.000 NA
ATOM     11  C   UNL     1       2.907   7.946  17.874  0.00  0.00    +0.000 C 
BRANCH  10  12
ATOM     12  C   UNL     1       5.091   7.254  17.054  0.00  0.00    +0.000 C 
BRANCH  12  13
ATOM     13  C   UNL     1       5.981   6.123  16.627  0.00  0.00    +0.000 A 
ATOM     14  S   UNL     1       5.636   5.259  15.178  0.00  0.00    +0.000 S 
ATOM     15  C   UNL     1       7.046   4.322  15.416  0.00  0.00    +0.000 A 
ATOM     16  N   UNL     1       7.746   4.593  16.493  0.00  0.00    +0.000 NA
ATOM     17  C   UNL     1       7.141   5.624  17.200  0.00  0.00    +0.000 A 
ATOM     18  C   UNL     1       7.780   6.078  18.463  0.00  0.00    +0.000 C 
ENDBRANCH  12  13
ENDBRANCH  10  12
ENDBRANCH   1  10
TORSDOF 5
ENDMDL
MODEL 4
REMARK VINA RESULT:      -5.4      2.472      5.445
REMARK  Name = 
REMARK  9 active torsions:
REMARK  status: ('A' for Active; 'I' for Inactive)
REMARK    1  A    between atoms: C_1  and  C_2
REMARK    2  A    between atoms: C_2  and  N_3
REMARK    3  A    between atoms: C_6  and  C_7
REMARK    4  A    between atoms: C_7  and  N_8
REMARK    5  A    between atoms: N_8  and  C_9
REMARK    6  A    between atoms: N_8  and  C_10
REMARK    7  A    between atoms: C_10  and  C_11
REMARK    8  A    between atoms: C_15  and  C_16
REMARK    9  A    between atoms: C_17  and  C_18
REMARK                            x       y       z     vdW  Elec       q    Type
REMARK                         _______ _______ _______ _____ _____    ______ ____
ROOT
ATOM      1  C   UNL     1       3.317   3.866  19.694  0.00  0.00    +0.000 C 
ENDROOT
BRANCH   1   5
ATOM      2  N   UNL     1       5.771   4.391  17.016  0.00  0.00    +0.000 N 
ATOM      3  N   UNL     1       4.809   3.787  16.292  0.00  0.00    +0.000 NA
ATOM      4  C   UNL     1       3.837   3.565  17.176  0.00  0.00    +0.000 A 
ATOM      5  C   UNL     1       4.159   4.025  18.472  0.00  0.00    +0.000 A 
ATOM      6  C   UNL     1       5.413   4.599  18.327  0.00  0.00    +0.000 A 
ATOM      7  C   UNL     1       6.281   5.300  19.307  0.00  0.00    +0.000 C 
BRANCH   2   9
ATOM      8  C   UNL     1       6.940   4.830  14.882  0.00  0.00    +0.000 C 
ATOM      9  C   UNL     1       7.049   4.671  16.387  0.00  0.00    +0.000 C 
ENDBRANCH   2   9
ENDBRANCH   1   5
BRANCH   1  10
ATOM     10  N   UNL     1       2.183   4.812  19.736  0.00  0.00    +0.000 NA
ATOM     11  C   UNL     1       1.003   4.194  20.353  0.00  0.00    +0.000 C 
BRANCH  10  12
ATOM     12  C   UNL     1       2.621   6.007  20.490  0.00  0.00    +0.000 C 
BRANCH  12  13
ATOM     13  C   UNL     1       2.065   7.306  19.982  0.00  0.00    +0.000 A 
ATOM     14  S   UNL     1       1.034   8.250  20.986  0.00  0.00    +0.000 S 
ATOM     15  C   UNL     1       0.961   9.445  19.766  0.00  0.00    +0.000 A 
ATOM     16  N   UNL     1       1.633   9.192  18.667  0.00  0.00    +0.000 NA
ATOM     17  C   UNL     1       2.269   7.963  18.777  0.00  0.00    +0.000 A 
ATOM     18  C   UNL     1       3.083   7.487  17.628  0.00  0.00    +0.000 C 
ENDBRANCH  12  13
ENDBRANCH  10  12
ENDBRANCH   1  10
TORSDOF 5
ENDMDL
MODEL 5
REMARK VINA RESULT:      -5.4      1.562      1.946
REMARK  Name = 
REMARK  9 active torsions:
REMARK  status: ('A' for Active; 'I' for Inactive)
REMARK    1  A    between atoms: C_1  and  C_2
REMARK    2  A    between atoms: C_2  and  N_3
REMARK    3  A    between atoms: C_6  and  C_7
REMARK    4  A    between atoms: C_7  and  N_8
REMARK    5  A    between atoms: N_8  and  C_9
REMARK    6  A    between atoms: N_8  and  C_10
REMARK    7  A    between atoms: C_10  and  C_11
REMARK    8  A    between atoms: C_15  and  C_16
REMARK    9  A    between atoms: C_17  and  C_18
REMARK                            x       y       z     vdW  Elec       q    Type
REMARK                         _______ _______ _______ _____ _____    ______ ____
ROOT
ATOM      1  C   UNL     1       3.667   5.922  17.551  0.00  0.00    +0.000 C 
ENDROOT
BRANCH   1   5
ATOM      2  N   UNL     1       1.820   7.909  20.023  0.00  0.00    +0.000 N 
ATOM      3  N   UNL     1       1.891   8.826  19.040  0.00  0.00    +0.000 NA
ATOM      4  C   UNL     1       2.536   8.194  18.060  0.00  0.00    +0.000 A 
ATOM      5  C   UNL     1       2.883   6.868  18.398  0.00  0.00    +0.000 A 
ATOM      6  C   UNL     1       2.364   6.695  19.673  0.00  0.00    +0.000 A 
ATOM      7  C   UNL     1       2.352   5.509  20.567  0.00  0.00    +0.000 C 
BRANCH   2   9
ATOM      8  C   UNL     1      -0.222   8.530  21.271  0.00  0.00    +0.000 C 
ATOM      9  C   UNL     1       1.278   8.303  21.311  0.00  0.00    +0.000 C 
ENDBRANCH   2   9
ENDBRANCH   1   5
BRANCH   1  10
ATOM     10  N   UNL     1       3.781   4.576  18.149  0.00  0.00    +0.000 NA
ATOM     11  C   UNL     1       3.058   3.580  17.348  0.00  0.00    +0.000 C 
BRANCH  10  12
ATOM     12  C   UNL     1       5.220   4.246  18.247  0.00  0.00    +0.000 C 
BRANCH  12  13
ATOM     13  C   UNL     1       6.038   4.654  17.057  0.00  0.00    +0.000 A 
ATOM     14  S   UNL     1       5.864   3.813  15.565  0.00  0.00    +0.000 S 
ATOM     15  C   UNL     1       6.985   4.883  14.845  0.00  0.00    +0.000 A 
ATOM     16  N   UNL     1       7.488   5.809  15.629  0.00  0.00    +0.000 NA
ATOM     17  C   UNL     1       6.954   5.685  16.904  0.00  0.00    +0.000 A 
ATOM     18  C   UNL     1       7.403   6.642  17.950  0.00  0.00    +0.000 C 
ENDBRANCH  12  13
ENDBRANCH  10  12
ENDBRANCH   1  10
TORSDOF 5
ENDMDL
MODEL 6
REMARK VINA RESULT:      -5.3      2.189      5.412
REMARK  Name = 
REMARK  9 active torsions:
REMARK  status: ('A' for Active; 'I' for Inactive)
REMARK    1  A    between atoms: C_1  and  C_2
REMARK    2  A    between atoms: C_2  and  N_3
REMARK    3  A    between atoms: C_6  and  C_7
REMARK    4  A    between atoms: C_7  and  N_8
REMARK    5  A    between atoms: N_8  and  C_9
REMARK    6  A    between atoms: N_8  and  C_10
REMARK    7  A    between atoms: C_10  and  C_11
REMARK    8  A    between atoms: C_15  and  C_16
REMARK    9  A    between atoms: C_17  and  C_18
REMARK                            x       y       z     vdW  Elec       q    Type
REMARK                         _______ _______ _______ _____ _____    ______ ____
ROOT
ATOM      1  C   UNL     1       3.204   3.676  20.060  0.00  0.00    +0.000 C 
ENDROOT
BRANCH   1   5
ATOM      2  N   UNL     1       5.449   4.099  17.188  0.00  0.00    +0.000 N 
ATOM      3  N   UNL     1       6.302   4.462  18.165  0.00  0.00    +0.000 NA
ATOM      4  C   UNL     1       5.586   4.323  19.281  0.00  0.00    +0.000 A 
ATOM      5  C   UNL     1       4.273   3.866  19.036  0.00  0.00    +0.000 A 
ATOM      6  C   UNL     1       4.225   3.688  17.661  0.00  0.00    +0.000 A 
ATOM      7  C   UNL     1       3.140   3.184  16.782  0.00  0.00    +0.000 C 
BRANCH   2   9
ATOM      8  C   UNL     1       5.537   5.618  15.239  0.00  0.00    +0.000 C 
ATOM      9  C   UNL     1       5.864   4.249  15.805  0.00  0.00    +0.000 C 
ENDBRANCH   2   9
ENDBRANCH   1   5
BRANCH   1  10
ATOM     10  N   UNL     1       2.067   4.601  19.882  0.00  0.00    +0.000 NA
ATOM     11  C   UNL     1       0.820   4.007  20.378  0.00  0.00    +0.000 C 
BRANCH  10  12
ATOM     12  C   UNL     1       2.388   5.855  20.598  0.00  0.00    +0.000 C 
BRANCH  12  13
ATOM     13  C   UNL     1       2.163   7.106  19.802  0.00  0.00    +0.000 A 
ATOM     14  S   UNL     1       2.731   7.206  18.179  0.00  0.00    +0.000 S 
ATOM     15  C   UNL     1       2.042   8.764  18.046  0.00  0.00    +0.000 A 
ATOM     16  N   UNL     1       1.433   9.221  19.116  0.00  0.00    +0.000 NA
ATOM     17  C   UNL     1       1.499   8.279  20.134  0.00  0.00    +0.000 A 
ATOM     18  C   UNL     1       0.870   8.609  21.439  0.00  0.00    +0.000 C 
ENDBRANCH  12  13
ENDBRANCH  10  12
ENDBRANCH   1  10
TORSDOF 5
ENDMDL
MODEL 7
REMARK VINA RESULT:      -5.3      2.635      4.344
REMARK  Name = 
REMARK  9 active torsions:
REMARK  status: ('A' for Active; 'I' for Inactive)
REMARK    1  A    between atoms: C_1  and  C_2
REMARK    2  A    between atoms: C_2  and  N_3
REMARK    3  A    between atoms: C_6  and  C_7
REMARK    4  A    between atoms: C_7  and  N_8
REMARK    5  A    between atoms: N_8  and  C_9
REMARK    6  A    between atoms: N_8  and  C_10
REMARK    7  A    between atoms: C_10  and  C_11
REMARK    8  A    between atoms: C_15  and  C_16
REMARK    9  A    between atoms: C_17  and  C_18
REMARK                            x       y       z     vdW  Elec       q    Type
REMARK                         _______ _______ _______ _____ _____    ______ ____
ROOT
ATOM      1  C   UNL     1       3.018   6.290  19.080  0.00  0.00    +0.000 C 
ENDROOT
BRANCH   1   5
ATOM      2  N   UNL     1       1.263   9.512  19.165  0.00  0.00    +0.000 N 
ATOM      3  N   UNL     1       1.666   9.536  17.880  0.00  0.00    +0.000 NA
ATOM      4  C   UNL     1       2.309   8.379  17.726  0.00  0.00    +0.000 A 
ATOM      5  C   UNL     1       2.324   7.599  18.903  0.00  0.00    +0.000 A 
ATOM      6  C   UNL     1       1.595   8.348  19.816  0.00  0.00    +0.000 A 
ATOM      7  C   UNL     1       1.208   8.061  21.221  0.00  0.00    +0.000 C 
BRANCH   2   9
ATOM      8  C   UNL     1      -0.859  10.757  19.410  0.00  0.00    +0.000 C 
ATOM      9  C   UNL     1       0.625  10.692  19.720  0.00  0.00    +0.000 C 
ENDBRANCH   2   9
ENDBRANCH   1   5
BRANCH   1  10
ATOM     10  N   UNL     1       3.163   5.542  17.815  0.00  0.00    +0.000 NA
ATOM     11  C   UNL     1       4.577   5.312  17.497  0.00  0.00    +0.000 C 
BRANCH  10  12
ATOM     12  C   UNL     1       2.430   4.265  17.959  0.00  0.00    +0.000 C 
BRANCH  12  13
ATOM     13  C   UNL     1       2.347   3.746  19.365  0.00  0.00    +0.000 A 
ATOM     14  S   UNL     1       0.941   4.051  20.312  0.00  0.00    +0.000 S 
ATOM     15  C   UNL     1       1.614   3.130  21.585  0.00  0.00    +0.000 A 
ATOM     16  N   UNL     1       2.805   2.623  21.366  0.00  0.00    +0.000 NA
ATOM     17  C   UNL     1       3.239   2.974  20.094  0.00  0.00    +0.000 A 
ATOM     18  C   UNL     1       4.577   2.500  19.653  0.00  0.00    +0.000 C 
ENDBRANCH  12  13
ENDBRANCH  10  12
ENDBRANCH   1  10
TORSDOF 5
ENDMDL
MODEL 8
REMARK VINA RESULT:      -5.3      1.521      2.308
REMARK  Name = 
REMARK  9 active torsions:
REMARK  status: ('A' for Active; 'I' for Inactive)
REMARK    1  A    between atoms: C_1  and  C_2
REMARK    2  A    between atoms: C_2  and  N_3
REMARK    3  A    between atoms: C_6  and  C_7
REMARK    4  A    between atoms: C_7  and  N_8
REMARK    5  A    between atoms: N_8  and  C_9
REMARK    6  A    between atoms: N_8  and  C_10
REMARK    7  A    between atoms: C_10  and  C_11
REMARK    8  A    between atoms: C_15  and  C_16
REMARK    9  A    between atoms: C_17  and  C_18
REMARK                            x       y       z     vdW  Elec       q    Type
REMARK                         _______ _______ _______ _____ _____    ______ ____
ROOT
ATOM      1  C   UNL     1       3.006   6.116  17.844  0.00  0.00    +0.000 C 
ENDROOT
BRANCH   1   5
ATOM      2  N   UNL     1       1.470   8.634  20.027  0.00  0.00    +0.000 N 
ATOM      3  N   UNL     1       1.518   7.612  20.902  0.00  0.00    +0.000 NA
ATOM      4  C   UNL     1       2.091   6.628  20.211  0.00  0.00    +0.000 A 
ATOM      5  C   UNL     1       2.420   7.004  18.890  0.00  0.00    +0.000 A 
ATOM      6  C   UNL     1       2.040   8.336  18.812  0.00  0.00    +0.000 A 
ATOM      7  C   UNL     1       2.162   9.319  17.705  0.00  0.00    +0.000 C 
BRANCH   2   9
ATOM      8  C   UNL     1      -0.614   9.951  19.827  0.00  0.00    +0.000 C 
ATOM      9  C   UNL     1       0.783   9.854  20.412  0.00  0.00    +0.000 C 
ENDBRANCH   2   9
ENDBRANCH   1   5
BRANCH   1  10
ATOM     10  N   UNL     1       2.865   4.681  18.166  0.00  0.00    +0.000 NA
ATOM     11  C   UNL     1       1.541   4.181  17.776  0.00  0.00    +0.000 C 
BRANCH  10  12
ATOM     12  C   UNL     1       3.943   3.953  17.462  0.00  0.00    +0.000 C 
BRANCH  12  13
ATOM     13  C   UNL     1       5.294   4.601  17.546  0.00  0.00    +0.000 A 
ATOM     14  S   UNL     1       5.921   5.085  19.075  0.00  0.00    +0.000 S 
ATOM     15  C   UNL     1       7.364   5.588  18.310  0.00  0.00    +0.000 A 
ATOM     16  N   UNL     1       7.412   5.435  17.007  0.00  0.00    +0.000 NA
ATOM     17  C   UNL     1       6.226   4.872  16.555  0.00  0.00    +0.000 A 
ATOM     18  C   UNL     1       6.078   4.622  15.098  0.00  0.00    +0.000 C 
ENDBRANCH  12  13
ENDBRANCH  10  12
ENDBRANCH   1  10
TORSDOF 5
ENDMDL
MODEL 9
REMARK VINA RESULT:      -5.3      2.136      3.788
REMARK  Name = 
REMARK  9 active torsions:
REMARK  status: ('A' for Active; 'I' for Inactive)
REMARK    1  A    between atoms: C_1  and  C_2
REMARK    2  A    between atoms: C_2  and  N_3
REMARK    3  A    between atoms: C_6  and  C_7
REMARK    4  A    between atoms: C_7  and  N_8
REMARK    5  A    between atoms: N_8  and  C_9
REMARK    6  A    between atoms: N_8  and  C_10
REMARK    7  A    between atoms: C_10  and  C_11
REMARK    8  A    between atoms: C_15  and  C_16
REMARK    9  A    between atoms: C_17  and  C_18
REMARK                            x       y       z     vdW  Elec       q    Type
REMARK                         _______ _______ _______ _____ _____    ______ ____
ROOT
ATOM      1  C   UNL     1       4.096   6.572  18.986  0.00  0.00    +0.000 C 
ENDROOT
BRANCH   1   5
ATOM      2  N   UNL     1       1.969   3.824  20.165  0.00  0.00    +0.000 N 
ATOM      3  N   UNL     1       1.274   4.853  20.685  0.00  0.00    +0.000 NA
ATOM      4  C   UNL     1       1.956   5.929  20.293  0.00  0.00    +0.000 A 
ATOM      5  C   UNL     1       3.091   5.605  19.517  0.00  0.00    +0.000 A 
ATOM      6  C   UNL     1       3.049   4.223  19.414  0.00  0.00    +0.000 A 
ATOM      7  C   UNL     1       3.934   3.274  18.691  0.00  0.00    +0.000 C 
BRANCH   2   9
ATOM      8  C   UNL     1       1.442   2.251  21.998  0.00  0.00    +0.000 C 
ATOM      9  C   UNL     1       1.571   2.469  20.502  0.00  0.00    +0.000 C 
ENDBRANCH   2   9
ENDBRANCH   1   5
BRANCH   1  10
ATOM     10  N   UNL     1       3.810   6.995  17.600  0.00  0.00    +0.000 NA
ATOM     11  C   UNL     1       2.900   8.147  17.578  0.00  0.00    +0.000 C 
BRANCH  10  12
ATOM     12  C   UNL     1       5.099   7.315  16.950  0.00  0.00    +0.000 C 
BRANCH  12  13
ATOM     13  C   UNL     1       5.972   6.125  16.673  0.00  0.00    +0.000 A 
ATOM     14  S   UNL     1       5.615   5.089  15.345  0.00  0.00    +0.000 S 
ATOM     15  C   UNL     1       7.010   4.169  15.704  0.00  0.00    +0.000 A 
ATOM     16  N   UNL     1       7.714   4.565  16.739  0.00  0.00    +0.000 NA
ATOM     17  C   UNL     1       7.125   5.686  17.307  0.00  0.00    +0.000 A 
ATOM     18  C   UNL     1       7.770   6.289  18.504  0.00  0.00    +0.000 C 
ENDBRANCH  12  13
ENDBRANCH  10  12
ENDBRANCH   1  10
TORSDOF 5
ENDMDL
