MODEL 1
REMARK VINA RESULT:      -7.5      0.000      0.000
REMARK  Name = 
REMARK  11 active torsions:
REMARK  status: ('A' for Active; 'I' for Inactive)
REMARK    1  A    between atoms: C_1  and  O_2
REMARK    2  A    between atoms: O_2  and  C_3
REMARK    3  A    between atoms: C_5  and  C_6
REMARK    4  A    between atoms: C_6  and  N_7
REMARK    5  A    between atoms: C_8  and  C_10
REMARK    6  A    between atoms: C_12  and  C_13
REMARK    7  A    between atoms: C_13  and  N_14
REMARK    8  A    between atoms: C_16  and  C_17
REMARK    9  A    between atoms: C_20  and  C_21
REMARK   10  A    between atoms: C_25  and  O_26
REMARK   11  A    between atoms: O_26  and  C_27
REMARK                            x       y       z     vdW  Elec       q    Type
REMARK                         _______ _______ _______ _____ _____    ______ ____
ROOT
ATOM      1  N   UNL     1       2.730   5.715  18.720  0.00  0.00    +0.000 N 
ATOM      2  C   UNL     1       2.229   6.036  19.971  0.00  0.00    +0.000 C 
ATOM      3  O   UNL     1       2.163   5.213  20.880  0.00  0.00    +0.000 OA
ATOM      4  H   UNL     1       2.640   6.416  17.991  0.00  0.00    +0.000 HD
ENDROOT
BRANCH   2   5
ATOM      5  C   UNL     1       1.793   7.415  20.080  0.00  0.00    +0.000 A 
ATOM      6  N   UNL     1       1.813   8.320  19.122  0.00  0.00    +0.000 NA
ATOM      7  C   UNL     1       1.219   9.399  19.732  0.00  0.00    +0.000 A 
ATOM      8  N   UNL     1       0.924   9.214  21.030  0.00  0.00    +0.000 NA
ATOM      9  O   UNL     1       1.288   7.882  21.257  0.00  0.00    +0.000 OA
BRANCH   7  10
ATOM     10  C   UNL     1       0.952  10.675  19.029  0.00  0.00    +0.000 C 
BRANCH  10  11
ATOM     11  N   UNL     1      -0.435  10.718  18.578  0.00  0.00    +0.000 N 
ATOM     12  N   UNL     1      -0.781  10.038  17.459  0.00  0.00    +0.000 NA
ATOM     13  C   UNL     1      -2.093  10.269  17.320  0.00  0.00    +0.000 A 
ATOM     14  C   UNL     1      -2.847   9.660  16.197  0.00  0.00    +0.000 C 
ATOM     15  C   UNL     1      -2.563  11.124  18.334  0.00  0.00    +0.000 A 
ATOM     16 BR   UNL     1      -4.332  11.716  18.516  0.00  0.00    +0.000 Br
ATOM     17  C   UNL     1      -1.479  11.433  19.122  0.00  0.00    +0.000 A 
ATOM     18  C   UNL     1      -1.348  12.307  20.313  0.00  0.00    +0.000 C 
ENDBRANCH  10  11
ENDBRANCH   7  10
ENDBRANCH   2   5
BRANCH   1  19
ATOM     19  C   UNL     1       3.101   4.370  18.358  0.00  0.00    +0.000 C 
BRANCH  19  22
ATOM     20  C   UNL     1       5.749   4.216  15.613  0.00  0.00    +0.000 A 
ATOM     21  C   UNL     1       4.518   4.176  16.276  0.00  0.00    +0.000 A 
ATOM     22  C   UNL     1       4.440   4.321  17.670  0.00  0.00    +0.000 A 
ATOM     23  C   UNL     1       5.629   4.496  18.389  0.00  0.00    +0.000 A 
ATOM     24  C   UNL     1       6.867   4.548  17.737  0.00  0.00    +0.000 A 
ATOM     25  C   UNL     1       6.923   4.403  16.348  0.00  0.00    +0.000 A 
BRANCH  20  27
ATOM     26  C   UNL     1       6.827   4.437  13.500  0.00  0.00    +0.000 C 
ATOM     27  O   UNL     1       5.670   4.084  14.253  0.00  0.00    +0.000 OA
ENDBRANCH  20  27
BRANCH  24  28
ATOM     28  O   UNL     1       7.940   4.765  18.560  0.00  0.00    +0.000 OA
ATOM     29  C   UNL     1       7.849   5.859  19.467  0.00  0.00    +0.000 C 
ENDBRANCH  24  28
ENDBRANCH  19  22
ENDBRANCH   1  19
TORSDOF 7
ENDMDL
MODEL 2
REMARK VINA RESULT:      -7.5      3.612      9.302
REMARK  Name = 
REMARK  11 active torsions:
REMARK  status: ('A' for Active; 'I' for Inactive)
REMARK    1  A    between atoms: C_1  and  O_2
REMARK    2  A    between atoms: O_2  and  C_3
REMARK    3  A    between atoms: C_5  and  C_6
REMARK    4  A    between atoms: C_6  and  N_7
REMARK    5  A    between atoms: C_8  and  C_10
REMARK    6  A    between atoms: C_12  and  C_13
REMARK    7  A    between atoms: C_13  and  N_14
REMARK    8  A    between atoms: C_16  and  C_17
REMARK    9  A    between atoms: C_20  and  C_21
REMARK   10  A    between atoms: C_25  and  O_26
REMARK   11  A    between atoms: O_26  and  C_27
REMARK                            x       y       z     vdW  Elec       q    Type
REMARK                         _______ _______ _______ _____ _____    ______ ____
ROOT
ATOM      1  N   UNL     1       0.775  10.004  19.293  0.00  0.00    +0.000 N 
ATOM      2  C   UNL     1       1.636   9.174  18.594  0.00  0.00    +0.000 C 
ATOM      3  O   UNL     1       2.139   9.505  17.524  0.00  0.00    +0.000 OA
ATOM      4  H   UNL     1       0.310   9.612  20.106  0.00  0.00    +0.000 HD
ENDROOT
BRANCH   2   5
ATOM      5  C   UNL     1       1.863   7.900  19.248  0.00  0.00    +0.000 A 
ATOM      6  N   UNL     1       2.539   6.879  18.760  0.00  0.00    +0.000 NA
ATOM      7  C   UNL     1       2.515   5.990  19.808  0.00  0.00    +0.000 A 
ATOM      8  N   UNL     1       1.788   6.391  20.865  0.00  0.00    +0.000 NA
ATOM      9  O   UNL     1       1.370   7.676  20.499  0.00  0.00    +0.000 OA
BRANCH   7  10
ATOM     10  C   UNL     1       3.208   4.681  19.769  0.00  0.00    +0.000 C 
BRANCH  10  11
ATOM     11  N   UNL     1       4.452   4.795  19.017  0.00  0.00    +0.000 N 
ATOM     12  N   UNL     1       5.527   5.367  19.611  0.00  0.00    +0.000 NA
ATOM     13  C   UNL     1       6.489   5.316  18.682  0.00  0.00    +0.000 A 
ATOM     14  C   UNL     1       7.846   5.839  18.977  0.00  0.00    +0.000 C 
ATOM     15  C   UNL     1       6.008   4.742  17.490  0.00  0.00    +0.000 A 
ATOM     16 BR   UNL     1       7.013   4.485  15.930  0.00  0.00    +0.000 Br
ATOM     17  C   UNL     1       4.684   4.438  17.707  0.00  0.00    +0.000 A 
ATOM     18  C   UNL     1       3.654   3.847  16.818  0.00  0.00    +0.000 C 
ENDBRANCH  10  11
ENDBRANCH   7  10
ENDBRANCH   2   5
BRANCH   1  19
ATOM     19  C   UNL     1       0.314  11.263  18.763  0.00  0.00    +0.000 C 
BRANCH  19  22
ATOM     20  C   UNL     1      -2.790  10.275  16.772  0.00  0.00    +0.000 A 
ATOM     21  C   UNL     1      -1.456  10.425  17.168  0.00  0.00    +0.000 A 
ATOM     22  C   UNL     1      -1.116  11.188  18.296  0.00  0.00    +0.000 A 
ATOM     23  C   UNL     1      -2.144  11.810  19.015  0.00  0.00    +0.000 A 
ATOM     24  C   UNL     1      -3.484  11.659  18.636  0.00  0.00    +0.000 A 
ATOM     25  C   UNL     1      -3.802  10.895  17.510  0.00  0.00    +0.000 A 
BRANCH  20  27
ATOM     26  C   UNL     1      -3.630  10.076  14.553  0.00  0.00    +0.000 C 
ATOM     27  O   UNL     1      -2.973   9.486  15.670  0.00  0.00    +0.000 OA
ENDBRANCH  20  27
BRANCH  24  28
ATOM     28  O   UNL     1      -4.385  12.288  19.453  0.00  0.00    +0.000 OA
ATOM     29  C   UNL     1      -5.713  11.774  19.468  0.00  0.00    +0.000 C 
ENDBRANCH  24  28
ENDBRANCH  19  22
ENDBRANCH   1  19
TORSDOF 7
ENDMDL
MODEL 3
REMARK VINA RESULT:      -7.3      3.543      8.915
REMARK  Name = 
REMARK  11 active torsions:
REMARK  status: ('A' for Active; 'I' for Inactive)
REMARK    1  A    between atoms: C_1  and  O_2
REMARK    2  A    between atoms: O_2  and  C_3
REMARK    3  A    between atoms: C_5  and  C_6
REMARK    4  A    between atoms: C_6  and  N_7
REMARK    5  A    between atoms: C_8  and  C_10
REMARK    6  A    between atoms: C_12  and  C_13
REMARK    7  A    between atoms: C_13  and  N_14
REMARK    8  A    between atoms: C_16  and  C_17
REMARK    9  A    between atoms: C_20  and  C_21
REMARK   10  A    between atoms: C_25  and  O_26
REMARK   11  A    between atoms: O_26  and  C_27
REMARK                            x       y       z     vdW  Elec       q    Type
REMARK                         _______ _______ _______ _____ _____    ______ ____
ROOT
ATOM      1  N   UNL     1       1.496   8.574  19.317  0.00  0.00    +0.000 N 
ATOM      2  C   UNL     1       1.582   7.924  20.538  0.00  0.00    +0.000 C 
ATOM      3  O   UNL     1       1.498   8.524  21.606  0.00  0.00    +0.000 OA
ATOM      4  H   UNL     1       1.694   8.026  18.485  0.00  0.00    +0.000 HD
ENDROOT
BRANCH   2   5
ATOM      5  C   UNL     1       1.787   6.494  20.414  0.00  0.00    +0.000 A 
ATOM      6  N   UNL     1       2.909   5.889  20.079  0.00  0.00    +0.000 NA
ATOM      7  C   UNL     1       2.569   4.563  20.202  0.00  0.00    +0.000 A 
ATOM      8  N   UNL     1       1.280   4.342  20.509  0.00  0.00    +0.000 NA
ATOM      9  O   UNL     1       0.762   5.632  20.672  0.00  0.00    +0.000 OA
BRANCH   7  10
ATOM     10  C   UNL     1       3.536   3.461  19.984  0.00  0.00    +0.000 C 
BRANCH  10  11
ATOM     11  N   UNL     1       4.417   3.782  18.867  0.00  0.00    +0.000 N 
ATOM     12  N   UNL     1       5.681   4.195  19.127  0.00  0.00    +0.000 NA
ATOM     13  C   UNL     1       6.221   4.398  17.919  0.00  0.00    +0.000 A 
ATOM     14  C   UNL     1       7.630   4.845  17.793  0.00  0.00    +0.000 C 
ATOM     15  C   UNL     1       5.283   4.146  16.900  0.00  0.00    +0.000 A 
ATOM     16 BR   UNL     1       5.612   4.314  15.063  0.00  0.00    +0.000 Br
ATOM     17  C   UNL     1       4.114   3.779  17.524  0.00  0.00    +0.000 A 
ATOM     18  C   UNL     1       2.780   3.425  16.979  0.00  0.00    +0.000 C 
ENDBRANCH  10  11
ENDBRANCH   7  10
ENDBRANCH   2   5
BRANCH   1  19
ATOM     19  C   UNL     1       1.420  10.009  19.210  0.00  0.00    +0.000 C 
BRANCH  19  22
ATOM     20  C   UNL     1      -1.914  10.244  17.366  0.00  0.00    +0.000 A 
ATOM     21  C   UNL     1      -0.604   9.888  17.704  0.00  0.00    +0.000 A 
ATOM     22  C   UNL     1       0.045  10.472  18.802  0.00  0.00    +0.000 A 
ATOM     23  C   UNL     1      -0.645  11.433  19.551  0.00  0.00    +0.000 A 
ATOM     24  C   UNL     1      -1.960  11.791  19.230  0.00  0.00    +0.000 A 
ATOM     25  C   UNL     1      -2.589  11.197  18.132  0.00  0.00    +0.000 A 
BRANCH  20  27
ATOM     26  C   UNL     1      -2.959  10.369  15.228  0.00  0.00    +0.000 C 
ATOM     27  O   UNL     1      -2.426   9.577  16.286  0.00  0.00    +0.000 OA
ENDBRANCH  20  27
BRANCH  24  28
ATOM     28  O   UNL     1      -2.526  12.711  20.071  0.00  0.00    +0.000 OA
ATOM     29  C   UNL     1      -3.932  12.626  20.272  0.00  0.00    +0.000 C 
ENDBRANCH  24  28
ENDBRANCH  19  22
ENDBRANCH   1  19
TORSDOF 7
ENDMDL
MODEL 4
REMARK VINA RESULT:      -7.3      3.723      9.530
REMARK  Name = 
REMARK  11 active torsions:
REMARK  status: ('A' for Active; 'I' for Inactive)
REMARK    1  A    between atoms: C_1  and  O_2
REMARK    2  A    between atoms: O_2  and  C_3
REMARK    3  A    between atoms: C_5  and  C_6
REMARK    4  A    between atoms: C_6  and  N_7
REMARK    5  A    between atoms: C_8  and  C_10
REMARK    6  A    between atoms: C_12  and  C_13
REMARK    7  A    between atoms: C_13  and  N_14
REMARK    8  A    between atoms: C_16  and  C_17
REMARK    9  A    between atoms: C_20  and  C_21
REMARK   10  A    between atoms: C_25  and  O_26
REMARK   11  A    between atoms: O_26  and  C_27
REMARK                            x       y       z     vdW  Elec       q    Type
REMARK                         _______ _______ _______ _____ _____    ______ ____
ROOT
ATOM      1  N   UNL     1      -0.306   9.972  19.355  0.00  0.00    +0.000 N 
ATOM      2  C   UNL     1       0.548   9.517  20.347  0.00  0.00    +0.000 C 
ATOM      3  O   UNL     1       0.539   9.984  21.483  0.00  0.00    +0.000 OA
ATOM      4  H   UNL     1      -0.155   9.619  18.415  0.00  0.00    +0.000 HD
ENDROOT
BRANCH   2   5
ATOM      5  C   UNL     1       1.437   8.462  19.901  0.00  0.00    +0.000 A 
ATOM      6  N   UNL     1       1.739   7.362  20.561  0.00  0.00    +0.000 NA
ATOM      7  C   UNL     1       2.531   6.693  19.657  0.00  0.00    +0.000 A 
ATOM      8  N   UNL     1       2.787   7.372  18.527  0.00  0.00    +0.000 NA
ATOM      9  O   UNL     1       2.038   8.546  18.680  0.00  0.00    +0.000 OA
BRANCH   7  10
ATOM     10  C   UNL     1       3.084   5.343  19.918  0.00  0.00    +0.000 C 
BRANCH  10  11
ATOM     11  N   UNL     1       4.159   5.053  18.976  0.00  0.00    +0.000 N 
ATOM     12  N   UNL     1       5.420   5.446  19.278  0.00  0.00    +0.000 NA
ATOM     13  C   UNL     1       6.156   5.035  18.239  0.00  0.00    +0.000 A 
ATOM     14  C   UNL     1       7.621   5.271  18.217  0.00  0.00    +0.000 C 
ATOM     15  C   UNL     1       5.351   4.413  17.266  0.00  0.00    +0.000 A 
ATOM     16 BR   UNL     1       5.968   3.698  15.647  0.00  0.00    +0.000 Br
ATOM     17  C   UNL     1       4.060   4.458  17.738  0.00  0.00    +0.000 A 
ATOM     18  C   UNL     1       2.782   3.992  17.146  0.00  0.00    +0.000 C 
ENDBRANCH  10  11
ENDBRANCH   7  10
ENDBRANCH   2   5
BRANCH   1  19
ATOM     19  C   UNL     1      -1.183  11.100  19.547  0.00  0.00    +0.000 C 
BRANCH  19  22
ATOM     20  C   UNL     1      -3.172  10.419  16.362  0.00  0.00    +0.000 A 
ATOM     21  C   UNL     1      -2.134  10.456  17.298  0.00  0.00    +0.000 A 
ATOM     22  C   UNL     1      -2.274  11.149  18.510  0.00  0.00    +0.000 A 
ATOM     23  C   UNL     1      -3.480  11.817  18.760  0.00  0.00    +0.000 A 
ATOM     24  C   UNL     1      -4.531  11.779  17.836  0.00  0.00    +0.000 A 
ATOM     25  C   UNL     1      -4.371  11.082  16.635  0.00  0.00    +0.000 A 
BRANCH  20  27
ATOM     26  C   UNL     1      -3.524  10.107  14.026  0.00  0.00    +0.000 C 
ATOM     27  O   UNL     1      -2.902   9.687  15.237  0.00  0.00    +0.000 OA
ENDBRANCH  20  27
BRANCH  24  28
ATOM     28  O   UNL     1      -5.664  12.441  18.230  0.00  0.00    +0.000 OA
ATOM     29  C   UNL     1      -6.905  11.771  18.035  0.00  0.00    +0.000 C 
ENDBRANCH  24  28
ENDBRANCH  19  22
ENDBRANCH   1  19
TORSDOF 7
ENDMDL
MODEL 5
REMARK VINA RESULT:      -7.2      3.851      9.264
REMARK  Name = 
REMARK  11 active torsions:
REMARK  status: ('A' for Active; 'I' for Inactive)
REMARK    1  A    between atoms: C_1  and  O_2
REMARK    2  A    between atoms: O_2  and  C_3
REMARK    3  A    between atoms: C_5  and  C_6
REMARK    4  A    between atoms: C_6  and  N_7
REMARK    5  A    between atoms: C_8  and  C_10
REMARK    6  A    between atoms: C_12  and  C_13
REMARK    7  A    between atoms: C_13  and  N_14
REMARK    8  A    between atoms: C_16  and  C_17
REMARK    9  A    between atoms: C_20  and  C_21
REMARK   10  A    between atoms: C_25  and  O_26
REMARK   11  A    between atoms: O_26  and  C_27
REMARK                            x       y       z     vdW  Elec       q    Type
REMARK                         _______ _______ _______ _____ _____    ______ ____
ROOT
ATOM      1  N   UNL     1       2.479   7.033  19.903  0.00  0.00    +0.000 N 
ATOM      2  C   UNL     1       3.172   5.843  19.748  0.00  0.00    +0.000 C 
ATOM      3  O   UNL     1       2.870   4.825  20.365  0.00  0.00    +0.000 OA
ATOM      4  H   UNL     1       2.863   7.856  19.449  0.00  0.00    +0.000 HD
ENDROOT
BRANCH   2   5
ATOM      5  C   UNL     1       4.270   5.936  18.806  0.00  0.00    +0.000 A 
ATOM      6  N   UNL     1       5.292   5.109  18.710  0.00  0.00    +0.000 NA
ATOM      7  C   UNL     1       5.964   5.607  17.619  0.00  0.00    +0.000 A 
ATOM      8  N   UNL     1       5.446   6.738  17.112  0.00  0.00    +0.000 NA
ATOM      9  O   UNL     1       4.302   6.947  17.891  0.00  0.00    +0.000 OA
BRANCH   7  10
ATOM     10  C   UNL     1       7.181   4.969  17.064  0.00  0.00    +0.000 C 
BRANCH  10  11
ATOM     11  N   UNL     1       7.018   4.741  15.633  0.00  0.00    +0.000 N 
ATOM     12  N   UNL     1       7.749   5.480  14.764  0.00  0.00    +0.000 NA
ATOM     13  C   UNL     1       7.381   5.036  13.556  0.00  0.00    +0.000 A 
ATOM     14  C   UNL     1       7.995   5.602  12.329  0.00  0.00    +0.000 C 
ATOM     15  C   UNL     1       6.392   4.041  13.665  0.00  0.00    +0.000 A 
ATOM     16 BR   UNL     1       5.587   3.153  12.225  0.00  0.00    +0.000 Br
ATOM     17  C   UNL     1       6.142   3.881  15.008  0.00  0.00    +0.000 A 
ATOM     18  C   UNL     1       5.188   3.005  15.732  0.00  0.00    +0.000 C 
ENDBRANCH  10  11
ENDBRANCH   7  10
ENDBRANCH   2   5
BRANCH   1  19
ATOM     19  C   UNL     1       1.433   7.196  20.881  0.00  0.00    +0.000 C 
BRANCH  19  22
ATOM     20  C   UNL     1      -0.090  10.467  22.127  0.00  0.00    +0.000 A 
ATOM     21  C   UNL     1       0.338   9.137  22.071  0.00  0.00    +0.000 A 
ATOM     22  C   UNL     1       0.890   8.602  20.897  0.00  0.00    +0.000 A 
ATOM     23  C   UNL     1       0.995   9.429  19.772  0.00  0.00    +0.000 A 
ATOM     24  C   UNL     1       0.580  10.766  19.818  0.00  0.00    +0.000 A 
ATOM     25  C   UNL     1       0.033  11.279  20.996  0.00  0.00    +0.000 A 
BRANCH  20  27
ATOM     26  C   UNL     1      -1.724  11.714  23.331  0.00  0.00    +0.000 C 
ATOM     27  O   UNL     1      -0.586  10.857  23.341  0.00  0.00    +0.000 OA
ENDBRANCH  20  27
BRANCH  24  28
ATOM     28  O   UNL     1       0.778  11.467  18.658  0.00  0.00    +0.000 OA
ATOM     29  C   UNL     1       1.978  12.229  18.561  0.00  0.00    +0.000 C 
ENDBRANCH  24  28
ENDBRANCH  19  22
ENDBRANCH   1  19
TORSDOF 7
ENDMDL
MODEL 6
REMARK VINA RESULT:      -7.2      3.876      9.430
REMARK  Name = 
REMARK  11 active torsions:
REMARK  status: ('A' for Active; 'I' for Inactive)
REMARK    1  A    between atoms: C_1  and  O_2
REMARK    2  A    between atoms: O_2  and  C_3
REMARK    3  A    between atoms: C_5  and  C_6
REMARK    4  A    between atoms: C_6  and  N_7
REMARK    5  A    between atoms: C_8  and  C_10
REMARK    6  A    between atoms: C_12  and  C_13
REMARK    7  A    between atoms: C_13  and  N_14
REMARK    8  A    between atoms: C_16  and  C_17
REMARK    9  A    between atoms: C_20  and  C_21
REMARK   10  A    between atoms: C_25  and  O_26
REMARK   11  A    between atoms: O_26  and  C_27
REMARK                            x       y       z     vdW  Elec       q    Type
REMARK                         _______ _______ _______ _____ _____    ______ ____
ROOT
ATOM      1  N   UNL     1      -0.551  10.357  19.560  0.00  0.00    +0.000 N 
ATOM      2  C   UNL     1       0.767  10.468  19.148  0.00  0.00    +0.000 C 
ATOM      3  O   UNL     1       1.279  11.551  18.876  0.00  0.00    +0.000 OA
ATOM      4  H   UNL     1      -0.931   9.420  19.650  0.00  0.00    +0.000 HD
ENDROOT
BRANCH   2   5
ATOM      5  C   UNL     1       1.454   9.193  19.067  0.00  0.00    +0.000 A 
ATOM      6  N   UNL     1       2.016   8.673  17.994  0.00  0.00    +0.000 NA
ATOM      7  C   UNL     1       2.583   7.525  18.494  0.00  0.00    +0.000 A 
ATOM      8  N   UNL     1       2.316   7.288  19.789  0.00  0.00    +0.000 NA
ATOM      9  O   UNL     1       1.580   8.413  20.178  0.00  0.00    +0.000 OA
BRANCH   7  10
ATOM     10  C   UNL     1       3.397   6.603  17.667  0.00  0.00    +0.000 C 
BRANCH  10  11
ATOM     11  N   UNL     1       3.324   5.250  18.206  0.00  0.00    +0.000 N 
ATOM     12  N   UNL     1       2.178   4.544  18.052  0.00  0.00    +0.000 NA
ATOM     13  C   UNL     1       2.430   3.367  18.638  0.00  0.00    +0.000 A 
ATOM     14  C   UNL     1       1.398   2.301  18.654  0.00  0.00    +0.000 C 
ATOM     15  C   UNL     1       3.724   3.347  19.191  0.00  0.00    +0.000 A 
ATOM     16 BR   UNL     1       4.485   1.902  20.110  0.00  0.00    +0.000 Br
ATOM     17  C   UNL     1       4.280   4.578  18.934  0.00  0.00    +0.000 A 
ATOM     18  C   UNL     1       5.600   5.153  19.292  0.00  0.00    +0.000 C 
ENDBRANCH  10  11
ENDBRANCH   7  10
ENDBRANCH   2   5
BRANCH   1  19
ATOM     19  C   UNL     1      -1.450  11.484  19.588  0.00  0.00    +0.000 C 
BRANCH  19  22
ATOM     20  C   UNL     1      -3.228  10.547  16.342  0.00  0.00    +0.000 A 
ATOM     21  C   UNL     1      -2.235  10.717  17.313  0.00  0.00    +0.000 A 
ATOM     22  C   UNL     1      -2.503  11.391  18.514  0.00  0.00    +0.000 A 
ATOM     23  C   UNL     1      -3.790  11.903  18.719  0.00  0.00    +0.000 A 
ATOM     24  C   UNL     1      -4.796  11.730  17.760  0.00  0.00    +0.000 A 
ATOM     25  C   UNL     1      -4.509  11.056  16.571  0.00  0.00    +0.000 A 
BRANCH  20  27
ATOM     26  C   UNL     1      -3.517  10.125  14.016  0.00  0.00    +0.000 C 
ATOM     27  O   UNL     1      -2.830   9.851  15.233  0.00  0.00    +0.000 OA
ENDBRANCH  20  27
BRANCH  24  28
ATOM     28  O   UNL     1      -6.016  12.246  18.111  0.00  0.00    +0.000 OA
ATOM     29  C   UNL     1      -6.740  12.939  17.099  0.00  0.00    +0.000 C 
ENDBRANCH  24  28
ENDBRANCH  19  22
ENDBRANCH   1  19
TORSDOF 7
ENDMDL
MODEL 7
REMARK VINA RESULT:      -7.2      5.513      7.901
REMARK  Name = 
REMARK  11 active torsions:
REMARK  status: ('A' for Active; 'I' for Inactive)
REMARK    1  A    between atoms: C_1  and  O_2
REMARK    2  A    between atoms: O_2  and  C_3
REMARK    3  A    between atoms: C_5  and  C_6
REMARK    4  A    between atoms: C_6  and  N_7
REMARK    5  A    between atoms: C_8  and  C_10
REMARK    6  A    between atoms: C_12  and  C_13
REMARK    7  A    between atoms: C_13  and  N_14
REMARK    8  A    between atoms: C_16  and  C_17
REMARK    9  A    between atoms: C_20  and  C_21
REMARK   10  A    between atoms: C_25  and  O_26
REMARK   11  A    between atoms: O_26  and  C_27
REMARK                            x       y       z     vdW  Elec       q    Type
REMARK                         _______ _______ _______ _____ _____    ______ ____
ROOT
ATOM      1  N   UNL     1       6.825   6.983  16.691  0.00  0.00    +0.000 N 
ATOM      2  C   UNL     1       7.622   7.108  17.818  0.00  0.00    +0.000 C 
ATOM      3  O   UNL     1       7.912   6.146  18.524  0.00  0.00    +0.000 OA
ATOM      4  H   UNL     1       6.534   7.840  16.231  0.00  0.00    +0.000 HD
ENDROOT
BRANCH   2   5
ATOM      5  C   UNL     1       8.054   8.469  18.068  0.00  0.00    +0.000 A 
ATOM      6  N   UNL     1       8.976   8.852  18.928  0.00  0.00    +0.000 NA
ATOM      7  C   UNL     1       9.045  10.205  18.694  0.00  0.00    +0.000 A 
ATOM      8  N   UNL     1       8.152  10.663  17.801  0.00  0.00    +0.000 NA
ATOM      9  O   UNL     1       7.504   9.501  17.366  0.00  0.00    +0.000 OA
BRANCH   7  10
ATOM     10  C   UNL     1      10.003  11.095  19.390  0.00  0.00    +0.000 C 
BRANCH  10  11
ATOM     11  N   UNL     1       9.328  11.812  20.467  0.00  0.00    +0.000 N 
ATOM     12  N   UNL     1       8.993  11.139  21.593  0.00  0.00    +0.000 NA
ATOM     13  C   UNL     1       8.408  12.058  22.371  0.00  0.00    +0.000 A 
ATOM     14  C   UNL     1       7.916  11.694  23.723  0.00  0.00    +0.000 C 
ATOM     15  C   UNL     1       8.345  13.303  21.717  0.00  0.00    +0.000 A 
ATOM     16 BR   UNL     1       7.599  14.865  22.436  0.00  0.00    +0.000 Br
ATOM     17  C   UNL     1       8.913  13.125  20.478  0.00  0.00    +0.000 A 
ATOM     18  C   UNL     1       9.105  14.061  19.342  0.00  0.00    +0.000 C 
ENDBRANCH  10  11
ENDBRANCH   7  10
ENDBRANCH   2   5
BRANCH   1  19
ATOM     19  C   UNL     1       6.185   5.743  16.331  0.00  0.00    +0.000 C 
BRANCH  19  22
ATOM     20  C   UNL     1       2.908   4.247  17.595  0.00  0.00    +0.000 A 
ATOM     21  C   UNL     1       4.153   4.386  16.972  0.00  0.00    +0.000 A 
ATOM     22  C   UNL     1       4.804   5.629  16.922  0.00  0.00    +0.000 A 
ATOM     23  C   UNL     1       4.172   6.737  17.500  0.00  0.00    +0.000 A 
ATOM     24  C   UNL     1       2.931   6.609  18.136  0.00  0.00    +0.000 A 
ATOM     25  C   UNL     1       2.300   5.363  18.176  0.00  0.00    +0.000 A 
BRANCH  20  27
ATOM     26  C   UNL     1       3.263   1.937  18.055  0.00  0.00    +0.000 C 
ATOM     27  O   UNL     1       2.405   2.975  17.588  0.00  0.00    +0.000 OA
ENDBRANCH  20  27
BRANCH  24  28
ATOM     28  O   UNL     1       2.451   7.765  18.693  0.00  0.00    +0.000 OA
ATOM     29  C   UNL     1       2.105   8.818  17.800  0.00  0.00    +0.000 C 
ENDBRANCH  24  28
ENDBRANCH  19  22
ENDBRANCH   1  19
TORSDOF 7
ENDMDL
MODEL 8
REMARK VINA RESULT:      -7.2      3.576      9.232
REMARK  Name = 
REMARK  11 active torsions:
REMARK  status: ('A' for Active; 'I' for Inactive)
REMARK    1  A    between atoms: C_1  and  O_2
REMARK    2  A    between atoms: O_2  and  C_3
REMARK    3  A    between atoms: C_5  and  C_6
REMARK    4  A    between atoms: C_6  and  N_7
REMARK    5  A    between atoms: C_8  and  C_10
REMARK    6  A    between atoms: C_12  and  C_13
REMARK    7  A    between atoms: C_13  and  N_14
REMARK    8  A    between atoms: C_16  and  C_17
REMARK    9  A    between atoms: C_20  and  C_21
REMARK   10  A    between atoms: C_25  and  O_26
REMARK   11  A    between atoms: O_26  and  C_27
REMARK                            x       y       z     vdW  Elec       q    Type
REMARK                         _______ _______ _______ _____ _____    ______ ____
ROOT
ATOM      1  N   UNL     1       1.332   8.658  19.481  0.00  0.00    +0.000 N 
ATOM      2  C   UNL     1       1.536   7.973  20.668  0.00  0.00    +0.000 C 
ATOM      3  O   UNL     1       1.472   8.527  21.762  0.00  0.00    +0.000 OA
ATOM      4  H   UNL     1       1.520   8.156  18.618  0.00  0.00    +0.000 HD
ENDROOT
BRANCH   2   5
ATOM      5  C   UNL     1       1.835   6.567  20.477  0.00  0.00    +0.000 A 
ATOM      6  N   UNL     1       3.002   6.053  20.142  0.00  0.00    +0.000 NA
ATOM      7  C   UNL     1       2.745   4.703  20.188  0.00  0.00    +0.000 A 
ATOM      8  N   UNL     1       1.466   4.386  20.447  0.00  0.00    +0.000 NA
ATOM      9  O   UNL     1       0.862   5.630  20.662  0.00  0.00    +0.000 OA
BRANCH   7  10
ATOM     10  C   UNL     1       3.786   3.678  19.940  0.00  0.00    +0.000 C 
BRANCH  10  11
ATOM     11  N   UNL     1       4.827   4.220  19.075  0.00  0.00    +0.000 N 
ATOM     12  N   UNL     1       5.878   4.864  19.638  0.00  0.00    +0.000 NA
ATOM     13  C   UNL     1       6.642   5.228  18.601  0.00  0.00    +0.000 A 
ATOM     14  C   UNL     1       7.917   5.952  18.826  0.00  0.00    +0.000 C 
ATOM     15  C   UNL     1       6.053   4.842  17.382  0.00  0.00    +0.000 A 
ATOM     16 BR   UNL     1       6.776   5.159  15.683  0.00  0.00    +0.000 Br
ATOM     17  C   UNL     1       4.867   4.220  17.698  0.00  0.00    +0.000 A 
ATOM     18  C   UNL     1       3.808   3.633  16.842  0.00  0.00    +0.000 C 
ENDBRANCH  10  11
ENDBRANCH   7  10
ENDBRANCH   2   5
BRANCH   1  19
ATOM     19  C   UNL     1       1.147  10.086  19.434  0.00  0.00    +0.000 C 
BRANCH  19  22
ATOM     20  C   UNL     1      -2.227  11.857  19.207  0.00  0.00    +0.000 A 
ATOM     21  C   UNL     1      -0.975  11.436  19.668  0.00  0.00    +0.000 A 
ATOM     22  C   UNL     1      -0.239  10.460  18.978  0.00  0.00    +0.000 A 
ATOM     23  C   UNL     1      -0.793   9.904  17.818  0.00  0.00    +0.000 A 
ATOM     24  C   UNL     1      -2.040  10.324  17.340  0.00  0.00    +0.000 A 
ATOM     25  C   UNL     1      -2.756  11.298  18.041  0.00  0.00    +0.000 A 
BRANCH  20  27
ATOM     26  C   UNL     1      -2.739  12.683  21.382  0.00  0.00    +0.000 C 
ATOM     27  O   UNL     1      -2.818  12.830  19.967  0.00  0.00    +0.000 OA
ENDBRANCH  20  27
BRANCH  24  28
ATOM     28  O   UNL     1      -2.439   9.725  16.175  0.00  0.00    +0.000 OA
ATOM     29  C   UNL     1      -2.990  10.569  15.170  0.00  0.00    +0.000 C 
ENDBRANCH  24  28
ENDBRANCH  19  22
ENDBRANCH   1  19
TORSDOF 7
ENDMDL
MODEL 9
REMARK VINA RESULT:      -7.1      3.579      9.365
REMARK  Name = 
REMARK  11 active torsions:
REMARK  status: ('A' for Active; 'I' for Inactive)
REMARK    1  A    between atoms: C_1  and  O_2
REMARK    2  A    between atoms: O_2  and  C_3
REMARK    3  A    between atoms: C_5  and  C_6
REMARK    4  A    between atoms: C_6  and  N_7
REMARK    5  A    between atoms: C_8  and  C_10
REMARK    6  A    between atoms: C_12  and  C_13
REMARK    7  A    between atoms: C_13  and  N_14
REMARK    8  A    between atoms: C_16  and  C_17
REMARK    9  A    between atoms: C_20  and  C_21
REMARK   10  A    between atoms: C_25  and  O_26
REMARK   11  A    between atoms: O_26  and  C_27
REMARK                            x       y       z     vdW  Elec       q    Type
REMARK                         _______ _______ _______ _____ _____    ______ ____
ROOT
ATOM      1  N   UNL     1       1.164  10.244  19.385  0.00  0.00    +0.000 N 
ATOM      2  C   UNL     1       1.729   9.275  18.571  0.00  0.00    +0.000 C 
ATOM      3  O   UNL     1       2.025   9.496  17.400  0.00  0.00    +0.000 OA
ATOM      4  H   UNL     1       0.840   9.949  20.301  0.00  0.00    +0.000 HD
ENDROOT
BRANCH   2   5
ATOM      5  C   UNL     1       1.917   8.001  19.239  0.00  0.00    +0.000 A 
ATOM      6  N   UNL     1       2.596   6.970  18.780  0.00  0.00    +0.000 NA
ATOM      7  C   UNL     1       2.525   6.087  19.832  0.00  0.00    +0.000 A 
ATOM      8  N   UNL     1       1.766   6.503  20.860  0.00  0.00    +0.000 NA
ATOM      9  O   UNL     1       1.378   7.791  20.474  0.00  0.00    +0.000 OA
BRANCH   7  10
ATOM     10  C   UNL     1       3.202   4.769  19.824  0.00  0.00    +0.000 C 
BRANCH  10  11
ATOM     11  N   UNL     1       4.434   4.844  19.047  0.00  0.00    +0.000 N 
ATOM     12  N   UNL     1       5.514   5.456  19.588  0.00  0.00    +0.000 NA
ATOM     13  C   UNL     1       6.462   5.354  18.648  0.00  0.00    +0.000 A 
ATOM     14  C   UNL     1       7.820   5.901  18.889  0.00  0.00    +0.000 C 
ATOM     15  C   UNL     1       5.966   4.706  17.501  0.00  0.00    +0.000 A 
ATOM     16 BR   UNL     1       6.948   4.360  15.944  0.00  0.00    +0.000 Br
ATOM     17  C   UNL     1       4.647   4.409  17.758  0.00  0.00    +0.000 A 
ATOM     18  C   UNL     1       3.607   3.760  16.922  0.00  0.00    +0.000 C 
ENDBRANCH  10  11
ENDBRANCH   7  10
ENDBRANCH   2   5
BRANCH   1  19
ATOM     19  C   UNL     1       0.776  11.540  18.888  0.00  0.00    +0.000 C 
BRANCH  19  22
ATOM     20  C   UNL     1      -2.907  11.138  17.969  0.00  0.00    +0.000 A 
ATOM     21  C   UNL     1      -1.511  11.054  17.933  0.00  0.00    +0.000 A 
ATOM     22  C   UNL     1      -0.721  11.717  18.884  0.00  0.00    +0.000 A 
ATOM     23  C   UNL     1      -1.361  12.478  19.870  0.00  0.00    +0.000 A 
ATOM     24  C   UNL     1      -2.758  12.561  19.923  0.00  0.00    +0.000 A 
ATOM     25  C   UNL     1      -3.527  11.894  18.967  0.00  0.00    +0.000 A 
BRANCH  20  27
ATOM     26  C   UNL     1      -2.755   9.960  15.904  0.00  0.00    +0.000 C 
ATOM     27  O   UNL     1      -3.548  10.423  16.993  0.00  0.00    +0.000 OA
ENDBRANCH  20  27
BRANCH  24  28
ATOM     28  O   UNL     1      -3.248  13.306  20.963  0.00  0.00    +0.000 OA
ATOM     29  C   UNL     1      -4.201  12.678  21.815  0.00  0.00    +0.000 C 
ENDBRANCH  24  28
ENDBRANCH  19  22
ENDBRANCH   1  19
TORSDOF 7
ENDMDL
