MODEL 1
REMARK VINA RESULT:      -7.8      0.000      0.000
REMARK  Name = 
REMARK  5 active torsions:
REMARK  status: ('A' for Active; 'I' for Inactive)
REMARK    1  A    between atoms: C_2  and  C_3
REMARK    2  A    between atoms: C_7  and  C_8
REMARK    3  A    between atoms: C_12  and  N_13
REMARK    4  A    between atoms: N_13  and  C_14
REMARK    5  A    between atoms: C_14  and  C_15
REMARK                            x       y       z     vdW  Elec       q    Type
REMARK                         _______ _______ _______ _____ _____    ______ ____
ROOT
ATOM      1  C   UNL     1       2.394   5.600  20.002  0.00  0.00    +0.000 A 
ATOM      2  N   UNL     1       1.576   4.719  20.607  0.00  0.00    +0.000 NA
ATOM      3  C   UNL     1       2.030   3.462  20.696  0.00  0.00    +0.000 A 
ATOM      4  C   UNL     1       3.256   3.068  20.215  0.00  0.00    +0.000 A 
ATOM      5  C   UNL     1       4.016   4.028  19.574  0.00  0.00    +0.000 A 
ATOM      6  N   UNL     1       3.590   5.295  19.458  0.00  0.00    +0.000 NA
ENDROOT
BRANCH   1  11
ATOM      7  C   UNL     1       1.004   8.984  21.036  0.00  0.00    +0.000 A 
ATOM      8  C   UNL     1       1.114   9.704  19.845  0.00  0.00    +0.000 A 
ATOM      9  C   UNL     1       1.633   9.089  18.706  0.00  0.00    +0.000 A 
ATOM     10  C   UNL     1       2.039   7.753  18.757  0.00  0.00    +0.000 A 
ATOM     11  C   UNL     1       1.945   7.002  19.944  0.00  0.00    +0.000 A 
ATOM     12  C   UNL     1       1.422   7.647  21.083  0.00  0.00    +0.000 A 
BRANCH   7  14
ATOM     13  N   UNL     1       0.029  10.117  23.157  0.00  0.00    +0.000 NA
ATOM     14  C   UNL     1       0.465   9.609  22.207  0.00  0.00    +0.000 C 
ENDBRANCH   7  14
ENDBRANCH   1  11
BRANCH   5  15
ATOM     15  N   UNL     1       5.220   3.625  18.998  0.00  0.00    +0.000 N 
ATOM     16  H   UNL     1       5.671   2.874  19.505  0.00  0.00    +0.000 HD
BRANCH  15  17
ATOM     17  C   UNL     1       6.102   4.633  18.439  0.00  0.00    +0.000 C 
BRANCH  17  18
ATOM     18  C   UNL     1       6.336   4.565  16.955  0.00  0.00    +0.000 A 
ATOM     19  C   UNL     1       5.494   3.879  16.075  0.00  0.00    +0.000 A 
ATOM     20  C   UNL     1       5.695   3.991  14.699  0.00  0.00    +0.000 A 
ATOM     21  C   UNL     1       6.735   4.785  14.245  0.00  0.00    +0.000 A 
ATOM     22  N   UNL     1       7.579   5.448  15.059  0.00  0.00    +0.000 NA
ATOM     23  C   UNL     1       7.361   5.321  16.389  0.00  0.00    +0.000 A 
ENDBRANCH  17  18
ENDBRANCH  15  17
ENDBRANCH   5  15
TORSDOF 5
ENDMDL
MODEL 2
REMARK VINA RESULT:      -7.7      3.851      8.042
REMARK  Name = 
REMARK  5 active torsions:
REMARK  status: ('A' for Active; 'I' for Inactive)
REMARK    1  A    between atoms: C_2  and  C_3
REMARK    2  A    between atoms: C_7  and  C_8
REMARK    3  A    between atoms: C_12  and  N_13
REMARK    4  A    between atoms: N_13  and  C_14
REMARK    5  A    between atoms: C_14  and  C_15
REMARK                            x       y       z     vdW  Elec       q    Type
REMARK                         _______ _______ _______ _____ _____    ______ ____
ROOT
ATOM      1  C   UNL     1       6.935   5.229  15.941  0.00  0.00    +0.000 A 
ATOM      2  N   UNL     1       7.433   6.389  16.409  0.00  0.00    +0.000 NA
ATOM      3  C   UNL     1       7.338   6.576  17.733  0.00  0.00    +0.000 A 
ATOM      4  C   UNL     1       6.780   5.655  18.586  0.00  0.00    +0.000 A 
ATOM      5  C   UNL     1       6.259   4.507  18.017  0.00  0.00    +0.000 A 
ATOM      6  N   UNL     1       6.328   4.290  16.695  0.00  0.00    +0.000 NA
ENDROOT
BRANCH   1  11
ATOM      7  C   UNL     1       6.444   3.732  12.482  0.00  0.00    +0.000 A 
ATOM      8  C   UNL     1       7.331   4.495  11.721  0.00  0.00    +0.000 A 
ATOM      9  C   UNL     1       8.092   5.491  12.332  0.00  0.00    +0.000 A 
ATOM     10  C   UNL     1       7.969   5.721  13.705  0.00  0.00    +0.000 A 
ATOM     11  C   UNL     1       7.080   4.971  14.498  0.00  0.00    +0.000 A 
ATOM     12  C   UNL     1       6.318   3.974  13.857  0.00  0.00    +0.000 A 
BRANCH   7  14
ATOM     13  N   UNL     1       5.032   1.867  11.357  0.00  0.00    +0.000 NA
ATOM     14  C   UNL     1       5.665   2.702  11.860  0.00  0.00    +0.000 C 
ENDBRANCH   7  14
ENDBRANCH   1  11
BRANCH   5  15
ATOM     15  N   UNL     1       5.606   3.605  18.856  0.00  0.00    +0.000 N 
ATOM     16  H   UNL     1       5.444   2.705  18.422  0.00  0.00    +0.000 HD
BRANCH  15  17
ATOM     17  C   UNL     1       4.548   4.094  19.721  0.00  0.00    +0.000 C 
BRANCH  17  18
ATOM     18  C   UNL     1       3.191   3.477  19.525  0.00  0.00    +0.000 A 
ATOM     19  C   UNL     1       2.224   3.407  20.532  0.00  0.00    +0.000 A 
ATOM     20  C   UNL     1       0.939   2.959  20.226  0.00  0.00    +0.000 A 
ATOM     21  C   UNL     1       0.660   2.590  18.920  0.00  0.00    +0.000 A 
ATOM     22  N   UNL     1       1.567   2.626  17.925  0.00  0.00    +0.000 NA
ATOM     23  C   UNL     1       2.805   3.065  18.250  0.00  0.00    +0.000 A 
ENDBRANCH  17  18
ENDBRANCH  15  17
ENDBRANCH   5  15
TORSDOF 5
ENDMDL
MODEL 3
REMARK VINA RESULT:      -7.7      1.272      7.784
REMARK  Name = 
REMARK  5 active torsions:
REMARK  status: ('A' for Active; 'I' for Inactive)
REMARK    1  A    between atoms: C_2  and  C_3
REMARK    2  A    between atoms: C_7  and  C_8
REMARK    3  A    between atoms: C_12  and  N_13
REMARK    4  A    between atoms: N_13  and  C_14
REMARK    5  A    between atoms: C_14  and  C_15
REMARK                            x       y       z     vdW  Elec       q    Type
REMARK                         _______ _______ _______ _____ _____    ______ ____
ROOT
ATOM      1  C   UNL     1       3.665   4.506  19.050  0.00  0.00    +0.000 A 
ATOM      2  N   UNL     1       2.995   3.339  19.068  0.00  0.00    +0.000 NA
ATOM      3  C   UNL     1       1.835   3.338  19.739  0.00  0.00    +0.000 A 
ATOM      4  C   UNL     1       1.331   4.448  20.374  0.00  0.00    +0.000 A 
ATOM      5  C   UNL     1       2.102   5.595  20.338  0.00  0.00    +0.000 A 
ATOM      6  N   UNL     1       3.272   5.630  19.683  0.00  0.00    +0.000 NA
ENDROOT
BRANCH   1  11
ATOM      7  C   UNL     1       6.101   4.318  16.139  0.00  0.00    +0.000 A 
ATOM      8  C   UNL     1       7.302   4.670  16.759  0.00  0.00    +0.000 A 
ATOM      9  C   UNL     1       7.320   4.962  18.122  0.00  0.00    +0.000 A 
ATOM     10  C   UNL     1       6.139   4.899  18.867  0.00  0.00    +0.000 A 
ATOM     11  C   UNL     1       4.913   4.551  18.269  0.00  0.00    +0.000 A 
ATOM     12  C   UNL     1       4.919   4.265  16.889  0.00  0.00    +0.000 A 
BRANCH   7  14
ATOM     13  N   UNL     1       6.062   3.757  13.605  0.00  0.00    +0.000 NA
ATOM     14  C   UNL     1       6.079   4.009  14.740  0.00  0.00    +0.000 C 
ENDBRANCH   7  14
ENDBRANCH   1  11
BRANCH   5  15
ATOM     15  N   UNL     1       1.652   6.703  21.055  0.00  0.00    +0.000 N 
ATOM     16  H   UNL     1       0.866   6.493  21.658  0.00  0.00    +0.000 HD
BRANCH  15  17
ATOM     17  C   UNL     1       1.620   7.997  20.398  0.00  0.00    +0.000 C 
BRANCH  17  18
ATOM     18  C   UNL     1       0.897   9.095  21.127  0.00  0.00    +0.000 A 
ATOM     19  C   UNL     1       0.075  10.030  20.490  0.00  0.00    +0.000 A 
ATOM     20  C   UNL     1      -0.679  10.921  21.254  0.00  0.00    +0.000 A 
ATOM     21  C   UNL     1      -0.586  10.851  22.635  0.00  0.00    +0.000 A 
ATOM     22  N   UNL     1       0.205   9.978  23.287  0.00  0.00    +0.000 NA
ATOM     23  C   UNL     1       0.925   9.126  22.521  0.00  0.00    +0.000 A 
ENDBRANCH  17  18
ENDBRANCH  15  17
ENDBRANCH   5  15
TORSDOF 5
ENDMDL
MODEL 4
REMARK VINA RESULT:      -7.7      2.852      8.042
REMARK  Name = 
REMARK  5 active torsions:
REMARK  status: ('A' for Active; 'I' for Inactive)
REMARK    1  A    between atoms: C_2  and  C_3
REMARK    2  A    between atoms: C_7  and  C_8
REMARK    3  A    between atoms: C_12  and  N_13
REMARK    4  A    between atoms: N_13  and  C_14
REMARK    5  A    between atoms: C_14  and  C_15
REMARK                            x       y       z     vdW  Elec       q    Type
REMARK                         _______ _______ _______ _____ _____    ______ ____
ROOT
ATOM      1  C   UNL     1       6.602   4.995  16.107  0.00  0.00    +0.000 A 
ATOM      2  N   UNL     1       7.567   4.584  16.950  0.00  0.00    +0.000 NA
ATOM      3  C   UNL     1       7.294   4.705  18.257  0.00  0.00    +0.000 A 
ATOM      4  C   UNL     1       6.108   5.206  18.736  0.00  0.00    +0.000 A 
ATOM      5  C   UNL     1       5.186   5.640  17.800  0.00  0.00    +0.000 A 
ATOM      6  N   UNL     1       5.429   5.543  16.485  0.00  0.00    +0.000 NA
ENDROOT
BRANCH   1  11
ATOM      7  C   UNL     1       6.386   3.677  12.548  0.00  0.00    +0.000 A 
ATOM      8  C   UNL     1       7.303   4.499  11.892  0.00  0.00    +0.000 A 
ATOM      9  C   UNL     1       7.995   5.477  12.605  0.00  0.00    +0.000 A 
ATOM     10  C   UNL     1       7.773   5.630  13.977  0.00  0.00    +0.000 A 
ATOM     11  C   UNL     1       6.852   4.819  14.666  0.00  0.00    +0.000 A 
ATOM     12  C   UNL     1       6.160   3.841  13.922  0.00  0.00    +0.000 A 
BRANCH   7  14
ATOM     13  N   UNL     1       5.105   1.844  11.231  0.00  0.00    +0.000 NA
ATOM     14  C   UNL     1       5.678   2.666  11.821  0.00  0.00    +0.000 C 
ENDBRANCH   7  14
ENDBRANCH   1  11
BRANCH   5  15
ATOM     15  N   UNL     1       4.017   6.237  18.269  0.00  0.00    +0.000 N 
ATOM     16  H   UNL     1       4.065   6.490  19.248  0.00  0.00    +0.000 HD
BRANCH  15  17
ATOM     17  C   UNL     1       2.738   5.729  17.806  0.00  0.00    +0.000 C 
BRANCH  17  18
ATOM     18  C   UNL     1       2.049   4.742  18.707  0.00  0.00    +0.000 A 
ATOM     19  C   UNL     1       1.484   3.548  18.250  0.00  0.00    +0.000 A 
ATOM     20  C   UNL     1       0.999   2.617  19.168  0.00  0.00    +0.000 A 
ATOM     21  C   UNL     1       1.091   2.911  20.519  0.00  0.00    +0.000 A 
ATOM     22  N   UNL     1       1.612   4.056  21.000  0.00  0.00    +0.000 NA
ATOM     23  C   UNL     1       2.075   4.941  20.086  0.00  0.00    +0.000 A 
ENDBRANCH  17  18
ENDBRANCH  15  17
ENDBRANCH   5  15
TORSDOF 5
ENDMDL
MODEL 5
REMARK VINA RESULT:      -7.7      3.118      7.798
REMARK  Name = 
REMARK  5 active torsions:
REMARK  status: ('A' for Active; 'I' for Inactive)
REMARK    1  A    between atoms: C_2  and  C_3
REMARK    2  A    between atoms: C_7  and  C_8
REMARK    3  A    between atoms: C_12  and  N_13
REMARK    4  A    between atoms: N_13  and  C_14
REMARK    5  A    between atoms: C_14  and  C_15
REMARK                            x       y       z     vdW  Elec       q    Type
REMARK                         _______ _______ _______ _____ _____    ______ ____
ROOT
ATOM      1  C   UNL     1       6.556   5.002  16.106  0.00  0.00    +0.000 A 
ATOM      2  N   UNL     1       7.562   4.584  16.895  0.00  0.00    +0.000 NA
ATOM      3  C   UNL     1       7.374   4.734  18.214  0.00  0.00    +0.000 A 
ATOM      4  C   UNL     1       6.231   5.271  18.756  0.00  0.00    +0.000 A 
ATOM      5  C   UNL     1       5.263   5.710  17.871  0.00  0.00    +0.000 A 
ATOM      6  N   UNL     1       5.421   5.584  16.545  0.00  0.00    +0.000 NA
ENDROOT
BRANCH   1  11
ATOM      7  C   UNL     1       5.866   3.919  12.528  0.00  0.00    +0.000 A 
ATOM      8  C   UNL     1       6.987   4.423  11.865  0.00  0.00    +0.000 A 
ATOM      9  C   UNL     1       7.968   5.108  12.581  0.00  0.00    +0.000 A 
ATOM     10  C   UNL     1       7.831   5.287  13.960  0.00  0.00    +0.000 A 
ATOM     11  C   UNL     1       6.710   4.794  14.656  0.00  0.00    +0.000 A 
ATOM     12  C   UNL     1       5.729   4.110  13.910  0.00  0.00    +0.000 A 
BRANCH   7  14
ATOM     13  N   UNL     1       4.042   2.631  11.205  0.00  0.00    +0.000 NA
ATOM     14  C   UNL     1       4.859   3.208  11.799  0.00  0.00    +0.000 C 
ENDBRANCH   7  14
ENDBRANCH   1  11
BRANCH   5  15
ATOM     15  N   UNL     1       4.139   6.342  18.400  0.00  0.00    +0.000 N 
ATOM     16  H   UNL     1       4.208   6.508  19.397  0.00  0.00    +0.000 HD
BRANCH  15  17
ATOM     17  C   UNL     1       2.826   5.962  17.910  0.00  0.00    +0.000 C 
BRANCH  17  18
ATOM     18  C   UNL     1       2.295   4.639  18.388  0.00  0.00    +0.000 A 
ATOM     19  C   UNL     1       1.629   4.471  19.606  0.00  0.00    +0.000 A 
ATOM     20  C   UNL     1       1.035   3.246  19.905  0.00  0.00    +0.000 A 
ATOM     21  C   UNL     1       1.126   2.222  18.976  0.00  0.00    +0.000 A 
ATOM     22  N   UNL     1       1.772   2.336  17.799  0.00  0.00    +0.000 NA
ATOM     23  C   UNL     1       2.339   3.536  17.536  0.00  0.00    +0.000 A 
ENDBRANCH  17  18
ENDBRANCH  15  17
ENDBRANCH   5  15
TORSDOF 5
ENDMDL
MODEL 6
REMARK VINA RESULT:      -7.7      3.000      8.037
REMARK  Name = 
REMARK  5 active torsions:
REMARK  status: ('A' for Active; 'I' for Inactive)
REMARK    1  A    between atoms: C_2  and  C_3
REMARK    2  A    between atoms: C_7  and  C_8
REMARK    3  A    between atoms: C_12  and  N_13
REMARK    4  A    between atoms: N_13  and  C_14
REMARK    5  A    between atoms: C_14  and  C_15
REMARK                            x       y       z     vdW  Elec       q    Type
REMARK                         _______ _______ _______ _____ _____    ______ ____
ROOT
ATOM      1  C   UNL     1       6.913   5.210  16.018  0.00  0.00    +0.000 A 
ATOM      2  N   UNL     1       7.415   6.360  16.505  0.00  0.00    +0.000 NA
ATOM      3  C   UNL     1       7.311   6.531  17.830  0.00  0.00    +0.000 A 
ATOM      4  C   UNL     1       6.740   5.603  18.667  0.00  0.00    +0.000 A 
ATOM      5  C   UNL     1       6.215   4.466  18.079  0.00  0.00    +0.000 A 
ATOM      6  N   UNL     1       6.293   4.266  16.755  0.00  0.00    +0.000 NA
ENDROOT
BRANCH   1  11
ATOM      7  C   UNL     1       6.441   3.758  12.537  0.00  0.00    +0.000 A 
ATOM      8  C   UNL     1       7.337   4.527  11.792  0.00  0.00    +0.000 A 
ATOM      9  C   UNL     1       8.097   5.512  12.421  0.00  0.00    +0.000 A 
ATOM     10  C   UNL     1       7.965   5.726  13.796  0.00  0.00    +0.000 A 
ATOM     11  C   UNL     1       7.067   4.969  14.573  0.00  0.00    +0.000 A 
ATOM     12  C   UNL     1       6.306   3.983  13.914  0.00  0.00    +0.000 A 
BRANCH   7  14
ATOM     13  N   UNL     1       5.034   1.912  11.376  0.00  0.00    +0.000 NA
ATOM     14  C   UNL     1       5.663   2.740  11.897  0.00  0.00    +0.000 C 
ENDBRANCH   7  14
ENDBRANCH   1  11
BRANCH   5  15
ATOM     15  N   UNL     1       5.549   3.558  18.901  0.00  0.00    +0.000 N 
ATOM     16  H   UNL     1       6.178   2.955  19.417  0.00  0.00    +0.000 HD
BRANCH  15  17
ATOM     17  C   UNL     1       4.329   2.940  18.417  0.00  0.00    +0.000 C 
BRANCH  17  18
ATOM     18  C   UNL     1       3.051   3.391  19.068  0.00  0.00    +0.000 A 
ATOM     19  C   UNL     1       1.874   2.637  19.058  0.00  0.00    +0.000 A 
ATOM     20  C   UNL     1       0.779   3.056  19.814  0.00  0.00    +0.000 A 
ATOM     21  C   UNL     1       0.893   4.220  20.556  0.00  0.00    +0.000 A 
ATOM     22  N   UNL     1       2.002   4.984  20.579  0.00  0.00    +0.000 NA
ATOM     23  C   UNL     1       3.049   4.554  19.837  0.00  0.00    +0.000 A 
ENDBRANCH  17  18
ENDBRANCH  15  17
ENDBRANCH   5  15
TORSDOF 5
ENDMDL
MODEL 7
REMARK VINA RESULT:      -7.5      1.295      1.902
REMARK  Name = 
REMARK  5 active torsions:
REMARK  status: ('A' for Active; 'I' for Inactive)
REMARK    1  A    between atoms: C_2  and  C_3
REMARK    2  A    between atoms: C_7  and  C_8
REMARK    3  A    between atoms: C_12  and  N_13
REMARK    4  A    between atoms: N_13  and  C_14
REMARK    5  A    between atoms: C_14  and  C_15
REMARK                            x       y       z     vdW  Elec       q    Type
REMARK                         _______ _______ _______ _____ _____    ______ ____
ROOT
ATOM      1  C   UNL     1       2.363   5.551  20.072  0.00  0.00    +0.000 A 
ATOM      2  N   UNL     1       1.516   4.665  20.627  0.00  0.00    +0.000 NA
ATOM      3  C   UNL     1       1.956   3.401  20.706  0.00  0.00    +0.000 A 
ATOM      4  C   UNL     1       3.195   3.006  20.263  0.00  0.00    +0.000 A 
ATOM      5  C   UNL     1       3.987   3.972  19.670  0.00  0.00    +0.000 A 
ATOM      6  N   UNL     1       3.576   5.245  19.567  0.00  0.00    +0.000 NA
ENDROOT
BRANCH   1  11
ATOM      7  C   UNL     1       0.999   8.935  21.135  0.00  0.00    +0.000 A 
ATOM      8  C   UNL     1       1.126   9.669  19.954  0.00  0.00    +0.000 A 
ATOM      9  C   UNL     1       1.650   9.063  18.813  0.00  0.00    +0.000 A 
ATOM     10  C   UNL     1       2.041   7.722  18.850  0.00  0.00    +0.000 A 
ATOM     11  C   UNL     1       1.929   6.957  20.027  0.00  0.00    +0.000 A 
ATOM     12  C   UNL     1       1.403   7.594  21.170  0.00  0.00    +0.000 A 
BRANCH   7  14
ATOM     13  N   UNL     1       0.012  10.050  23.261  0.00  0.00    +0.000 NA
ATOM     14  C   UNL     1       0.456   9.551  22.309  0.00  0.00    +0.000 C 
ENDBRANCH   7  14
ENDBRANCH   1  11
BRANCH   5  15
ATOM     15  N   UNL     1       5.208   3.570  19.131  0.00  0.00    +0.000 N 
ATOM     16  H   UNL     1       5.936   3.470  19.828  0.00  0.00    +0.000 HD
BRANCH  15  17
ATOM     17  C   UNL     1       5.623   4.116  17.852  0.00  0.00    +0.000 C 
BRANCH  17  18
ATOM     18  C   UNL     1       6.348   5.433  17.895  0.00  0.00    +0.000 A 
ATOM     19  C   UNL     1       7.379   5.715  18.796  0.00  0.00    +0.000 A 
ATOM     20  C   UNL     1       8.101   6.902  18.670  0.00  0.00    +0.000 A 
ATOM     21  C   UNL     1       7.768   7.773  17.646  0.00  0.00    +0.000 A 
ATOM     22  N   UNL     1       6.771   7.548  16.768  0.00  0.00    +0.000 NA
ATOM     23  C   UNL     1       6.088   6.389  16.914  0.00  0.00    +0.000 A 
ENDBRANCH  17  18
ENDBRANCH  15  17
ENDBRANCH   5  15
TORSDOF 5
ENDMDL
MODEL 8
REMARK VINA RESULT:      -7.5      3.204      8.167
REMARK  Name = 
REMARK  5 active torsions:
REMARK  status: ('A' for Active; 'I' for Inactive)
REMARK    1  A    between atoms: C_2  and  C_3
REMARK    2  A    between atoms: C_7  and  C_8
REMARK    3  A    between atoms: C_12  and  N_13
REMARK    4  A    between atoms: N_13  and  C_14
REMARK    5  A    between atoms: C_14  and  C_15
REMARK                            x       y       z     vdW  Elec       q    Type
REMARK                         _______ _______ _______ _____ _____    ______ ____
ROOT
ATOM      1  C   UNL     1       2.366   7.375  18.808  0.00  0.00    +0.000 A 
ATOM      2  N   UNL     1       2.128   7.198  20.121  0.00  0.00    +0.000 NA
ATOM      3  C   UNL     1       1.442   8.177  20.729  0.00  0.00    +0.000 A 
ATOM      4  C   UNL     1       0.991   9.298  20.076  0.00  0.00    +0.000 A 
ATOM      5  C   UNL     1       1.312   9.417  18.737  0.00  0.00    +0.000 A 
ATOM      6  N   UNL     1       2.004   8.462  18.097  0.00  0.00    +0.000 NA
ENDROOT
BRANCH   1  11
ATOM      7  C   UNL     1       5.023   5.449  16.890  0.00  0.00    +0.000 A 
ATOM      8  C   UNL     1       4.425   4.193  16.773  0.00  0.00    +0.000 A 
ATOM      9  C   UNL     1       3.158   3.974  17.312  0.00  0.00    +0.000 A 
ATOM     10  C   UNL     1       2.486   5.012  17.964  0.00  0.00    +0.000 A 
ATOM     11  C   UNL     1       3.065   6.288  18.101  0.00  0.00    +0.000 A 
ATOM     12  C   UNL     1       4.350   6.483  17.553  0.00  0.00    +0.000 A 
BRANCH   7  14
ATOM     13  N   UNL     1       7.375   5.870  15.876  0.00  0.00    +0.000 NA
ATOM     14  C   UNL     1       6.322   5.681  16.331  0.00  0.00    +0.000 C 
ENDBRANCH   7  14
ENDBRANCH   1  11
BRANCH   5  15
ATOM     15  N   UNL     1       0.943  10.592  18.082  0.00  0.00    +0.000 N 
ATOM     16  H   UNL     1       1.728  11.080  17.670  0.00  0.00    +0.000 HD
BRANCH  15  17
ATOM     17  C   UNL     1      -0.087  11.427  18.671  0.00  0.00    +0.000 C 
BRANCH  17  18
ATOM     18  C   UNL     1      -1.496  11.166  18.216  0.00  0.00    +0.000 A 
ATOM     19  C   UNL     1      -1.846  10.122  17.354  0.00  0.00    +0.000 A 
ATOM     20  C   UNL     1      -3.192   9.856  17.102  0.00  0.00    +0.000 A 
ATOM     21  C   UNL     1      -4.149  10.646  17.718  0.00  0.00    +0.000 A 
ATOM     22  N   UNL     1      -3.855  11.671  18.541  0.00  0.00    +0.000 NA
ATOM     23  C   UNL     1      -2.542  11.907  18.767  0.00  0.00    +0.000 A 
ENDBRANCH  17  18
ENDBRANCH  15  17
ENDBRANCH   5  15
TORSDOF 5
ENDMDL
MODEL 9
REMARK VINA RESULT:      -7.5      1.375      7.771
REMARK  Name = 
REMARK  5 active torsions:
REMARK  status: ('A' for Active; 'I' for Inactive)
REMARK    1  A    between atoms: C_2  and  C_3
REMARK    2  A    between atoms: C_7  and  C_8
REMARK    3  A    between atoms: C_12  and  N_13
REMARK    4  A    between atoms: N_13  and  C_14
REMARK    5  A    between atoms: C_14  and  C_15
REMARK                            x       y       z     vdW  Elec       q    Type
REMARK                         _______ _______ _______ _____ _____    ______ ____
ROOT
ATOM      1  C   UNL     1       3.752   4.473  19.027  0.00  0.00    +0.000 A 
ATOM      2  N   UNL     1       3.086   3.303  19.012  0.00  0.00    +0.000 NA
ATOM      3  C   UNL     1       1.924   3.280  19.679  0.00  0.00    +0.000 A 
ATOM      4  C   UNL     1       1.413   4.371  20.339  0.00  0.00    +0.000 A 
ATOM      5  C   UNL     1       2.179   5.523  20.336  0.00  0.00    +0.000 A 
ATOM      6  N   UNL     1       3.352   5.579  19.687  0.00  0.00    +0.000 NA
ENDROOT
BRANCH   1  11
ATOM      7  C   UNL     1       6.213   4.298  16.136  0.00  0.00    +0.000 A 
ATOM      8  C   UNL     1       7.396   4.709  16.754  0.00  0.00    +0.000 A 
ATOM      9  C   UNL     1       7.394   5.037  18.109  0.00  0.00    +0.000 A 
ATOM     10  C   UNL     1       6.211   4.950  18.848  0.00  0.00    +0.000 A 
ATOM     11  C   UNL     1       5.003   4.543  18.253  0.00  0.00    +0.000 A 
ATOM     12  C   UNL     1       5.028   4.222  16.880  0.00  0.00    +0.000 A 
BRANCH   7  14
ATOM     13  N   UNL     1       6.207   3.673  13.617  0.00  0.00    +0.000 NA
ATOM     14  C   UNL     1       6.211   3.953  14.746  0.00  0.00    +0.000 C 
ENDBRANCH   7  14
ENDBRANCH   1  11
BRANCH   5  15
ATOM     15  N   UNL     1       1.721   6.610  21.079  0.00  0.00    +0.000 N 
ATOM     16  H   UNL     1       0.933   6.381  21.673  0.00  0.00    +0.000 HD
BRANCH  15  17
ATOM     17  C   UNL     1       1.689   7.920  20.456  0.00  0.00    +0.000 C 
BRANCH  17  18
ATOM     18  C   UNL     1       0.726   8.913  21.046  0.00  0.00    +0.000 A 
ATOM     19  C   UNL     1       0.506   9.049  22.420  0.00  0.00    +0.000 A 
ATOM     20  C   UNL     1      -0.287  10.095  22.892  0.00  0.00    +0.000 A 
ATOM     21  C   UNL     1      -0.838  10.974  21.974  0.00  0.00    +0.000 A 
ATOM     22  N   UNL     1      -0.665  10.869  20.642  0.00  0.00    +0.000 NA
ATOM     23  C   UNL     1       0.108   9.845  20.213  0.00  0.00    +0.000 A 
ENDBRANCH  17  18
ENDBRANCH  15  17
ENDBRANCH   5  15
TORSDOF 5
ENDMDL
