MODEL 1
REMARK VINA RESULT:      -7.4      0.000      0.000
REMARK  Name = 
REMARK  7 active torsions:
REMARK  status: ('A' for Active; 'I' for Inactive)
REMARK    1  A    between atoms: C_1  and  C_2
REMARK    2  A    between atoms: C_2  and  C_3
REMARK    3  A    between atoms: C_5  and  C_6
REMARK    4  A    between atoms: N_8  and  C_9
REMARK    5  A    between atoms: C_13  and  C_14
REMARK    6  A    between atoms: C_14  and  C_15
REMARK    7  A    between atoms: C_19  and  C_20
REMARK                            x       y       z     vdW  Elec       q    Type
REMARK                         _______ _______ _______ _____ _____    ______ ____
ROOT
ATOM      1  C   UNL     1       4.582   5.693  16.666  0.00  0.00    +0.000 C 
ATOM      2  O   UNL     1       4.807   6.778  16.135  0.00  0.00    +0.000 OA
ATOM      3  N   UNL     1       4.965   4.481  16.098  0.00  0.00    +0.000 N 
ATOM      4  H   UNL     1       4.580   3.638  16.510  0.00  0.00    +0.000 HD
ENDROOT
BRANCH   1   7
ATOM      5  C   UNL     1       2.718   5.206  20.079  0.00  0.00    +0.000 A 
ATOM      6  S   UNL     1       3.683   4.323  18.955  0.00  0.00    +0.000 S 
ATOM      7  C   UNL     1       3.842   5.666  17.924  0.00  0.00    +0.000 A 
ATOM      8  C   UNL     1       3.178   6.764  18.439  0.00  0.00    +0.000 A 
ATOM      9  C   UNL     1       2.530   6.521  19.683  0.00  0.00    +0.000 A 
ATOM     10  C   UNL     1       1.760   7.566  20.420  0.00  0.00    +0.000 C 
BRANCH   5  12
ATOM     11  C   UNL     1       1.312   3.341  20.981  0.00  0.00    +0.000 C 
ATOM     12  C   UNL     1       2.189   4.538  21.319  0.00  0.00    +0.000 C 
ENDBRANCH   5  12
ENDBRANCH   1   7
BRANCH   3  13
ATOM     13  C   UNL     1       5.714   4.362  14.899  0.00  0.00    +0.000 A 
ATOM     14  C   UNL     1       6.936   5.018  14.709  0.00  0.00    +0.000 A 
ATOM     15  C   UNL     1       7.627   4.934  13.503  0.00  0.00    +0.000 A 
ATOM     16  C   UNL     1       7.113   4.181  12.454  0.00  0.00    +0.000 A 
ATOM     17  C   UNL     1       5.907   3.491  12.617  0.00  0.00    +0.000 A 
ATOM     18  C   UNL     1       5.223   3.570  13.853  0.00  0.00    +0.000 A 
BRANCH  17  19
ATOM     19  C   UNL     1       5.291   2.686  11.515  0.00  0.00    +0.000 C 
ATOM     20  C   UNL     1       3.996   3.109  10.860  0.00  0.00    +0.000 C 
ATOM     21  O   UNL     1       5.851   1.652  11.149  0.00  0.00    +0.000 OA
ENDBRANCH  17  19
ENDBRANCH   3  13
TORSDOF 4
ENDMDL
MODEL 2
REMARK VINA RESULT:      -7.3      1.082      1.222
REMARK  Name = 
REMARK  7 active torsions:
REMARK  status: ('A' for Active; 'I' for Inactive)
REMARK    1  A    between atoms: C_1  and  C_2
REMARK    2  A    between atoms: C_2  and  C_3
REMARK    3  A    between atoms: C_5  and  C_6
REMARK    4  A    between atoms: N_8  and  C_9
REMARK    5  A    between atoms: C_13  and  C_14
REMARK    6  A    between atoms: C_14  and  C_15
REMARK    7  A    between atoms: C_19  and  C_20
REMARK                            x       y       z     vdW  Elec       q    Type
REMARK                         _______ _______ _______ _____ _____    ______ ____
ROOT
ATOM      1  C   UNL     1       5.392   4.599  17.129  0.00  0.00    +0.000 C 
ATOM      2  O   UNL     1       6.568   4.367  17.400  0.00  0.00    +0.000 OA
ATOM      3  N   UNL     1       4.930   4.722  15.821  0.00  0.00    +0.000 N 
ATOM      4  H   UNL     1       3.994   5.093  15.697  0.00  0.00    +0.000 HD
ENDROOT
BRANCH   1   7
ATOM      5  C   UNL     1       2.928   4.729  20.173  0.00  0.00    +0.000 A 
ATOM      6  S   UNL     1       3.999   3.636  19.377  0.00  0.00    +0.000 S 
ATOM      7  C   UNL     1       4.445   4.800  18.220  0.00  0.00    +0.000 A 
ATOM      8  C   UNL     1       3.793   5.998  18.450  0.00  0.00    +0.000 A 
ATOM      9  C   UNL     1       2.921   5.979  19.574  0.00  0.00    +0.000 A 
ATOM     10  C   UNL     1       2.122   7.163  20.007  0.00  0.00    +0.000 C 
BRANCH   5  12
ATOM     11  C   UNL     1       1.323   3.033  21.076  0.00  0.00    +0.000 C 
ATOM     12  C   UNL     1       2.138   4.283  21.373  0.00  0.00    +0.000 C 
ENDBRANCH   5  12
ENDBRANCH   1   7
BRANCH   3  13
ATOM     13  C   UNL     1       5.732   4.522  14.667  0.00  0.00    +0.000 A 
ATOM     14  C   UNL     1       6.899   5.258  14.428  0.00  0.00    +0.000 A 
ATOM     15  C   UNL     1       7.641   5.087  13.263  0.00  0.00    +0.000 A 
ATOM     16  C   UNL     1       7.235   4.165  12.306  0.00  0.00    +0.000 A 
ATOM     17  C   UNL     1       6.088   3.394  12.522  0.00  0.00    +0.000 A 
ATOM     18  C   UNL     1       5.352   3.565  13.718  0.00  0.00    +0.000 A 
BRANCH  17  19
ATOM     19  C   UNL     1       5.588   2.405  11.516  0.00  0.00    +0.000 C 
ATOM     20  C   UNL     1       6.443   1.246  11.057  0.00  0.00    +0.000 C 
ATOM     21  O   UNL     1       4.459   2.554  11.047  0.00  0.00    +0.000 OA
ENDBRANCH  17  19
ENDBRANCH   3  13
TORSDOF 4
ENDMDL
MODEL 3
REMARK VINA RESULT:      -7.2      3.809      5.621
REMARK  Name = 
REMARK  7 active torsions:
REMARK  status: ('A' for Active; 'I' for Inactive)
REMARK    1  A    between atoms: C_1  and  C_2
REMARK    2  A    between atoms: C_2  and  C_3
REMARK    3  A    between atoms: C_5  and  C_6
REMARK    4  A    between atoms: N_8  and  C_9
REMARK    5  A    between atoms: C_13  and  C_14
REMARK    6  A    between atoms: C_14  and  C_15
REMARK    7  A    between atoms: C_19  and  C_20
REMARK                            x       y       z     vdW  Elec       q    Type
REMARK                         _______ _______ _______ _____ _____    ______ ____
ROOT
ATOM      1  C   UNL     1       2.030   8.450  18.292  0.00  0.00    +0.000 C 
ATOM      2  O   UNL     1       2.331   8.829  17.163  0.00  0.00    +0.000 OA
ATOM      3  N   UNL     1       2.405   7.207  18.796  0.00  0.00    +0.000 N 
ATOM      4  H   UNL     1       1.962   6.908  19.658  0.00  0.00    +0.000 HD
ENDROOT
BRANCH   1   7
ATOM      5  C   UNL     1      -0.070  10.524  20.871  0.00  0.00    +0.000 A 
ATOM      6  S   UNL     1       0.949   9.134  20.800  0.00  0.00    +0.000 S 
ATOM      7  C   UNL     1       1.207   9.317  19.129  0.00  0.00    +0.000 A 
ATOM      8  C   UNL     1       0.533  10.424  18.645  0.00  0.00    +0.000 A 
ATOM      9  C   UNL     1      -0.202  11.136  19.634  0.00  0.00    +0.000 A 
ATOM     10  C   UNL     1      -0.996  12.363  19.334  0.00  0.00    +0.000 C 
BRANCH   5  12
ATOM     11  C   UNL     1      -0.556   9.867  23.237  0.00  0.00    +0.000 C 
ATOM     12  C   UNL     1      -0.696  10.944  22.172  0.00  0.00    +0.000 C 
ENDBRANCH   5  12
ENDBRANCH   1   7
BRANCH   3  13
ATOM     13  C   UNL     1       3.228   6.280  18.106  0.00  0.00    +0.000 A 
ATOM     14  C   UNL     1       2.805   4.980  17.806  0.00  0.00    +0.000 A 
ATOM     15  C   UNL     1       3.647   4.067  17.178  0.00  0.00    +0.000 A 
ATOM     16  C   UNL     1       4.940   4.437  16.827  0.00  0.00    +0.000 A 
ATOM     17  C   UNL     1       5.389   5.736  17.088  0.00  0.00    +0.000 A 
ATOM     18  C   UNL     1       4.517   6.659  17.711  0.00  0.00    +0.000 A 
BRANCH  17  19
ATOM     19  C   UNL     1       6.778   6.183  16.757  0.00  0.00    +0.000 C 
ATOM     20  C   UNL     1       7.524   7.158  17.639  0.00  0.00    +0.000 C 
ATOM     21  O   UNL     1       7.313   5.753  15.734  0.00  0.00    +0.000 OA
ENDBRANCH  17  19
ENDBRANCH   3  13
TORSDOF 4
ENDMDL
MODEL 4
REMARK VINA RESULT:      -7.2      3.861      5.680
REMARK  Name = 
REMARK  7 active torsions:
REMARK  status: ('A' for Active; 'I' for Inactive)
REMARK    1  A    between atoms: C_1  and  C_2
REMARK    2  A    between atoms: C_2  and  C_3
REMARK    3  A    between atoms: C_5  and  C_6
REMARK    4  A    between atoms: N_8  and  C_9
REMARK    5  A    between atoms: C_13  and  C_14
REMARK    6  A    between atoms: C_14  and  C_15
REMARK    7  A    between atoms: C_19  and  C_20
REMARK                            x       y       z     vdW  Elec       q    Type
REMARK                         _______ _______ _______ _____ _____    ______ ____
ROOT
ATOM      1  C   UNL     1       2.156   8.097  18.553  0.00  0.00    +0.000 C 
ATOM      2  O   UNL     1       2.378   8.504  17.415  0.00  0.00    +0.000 OA
ATOM      3  N   UNL     1       2.559   6.840  18.997  0.00  0.00    +0.000 N 
ATOM      4  H   UNL     1       2.177   6.520  19.880  0.00  0.00    +0.000 HD
ENDROOT
BRANCH   1   7
ATOM      5  C   UNL     1       0.064  10.641  20.677  0.00  0.00    +0.000 A 
ATOM      6  S   UNL     1       0.665  10.428  19.075  0.00  0.00    +0.000 S 
ATOM      7  C   UNL     1       1.398   8.944  19.469  0.00  0.00    +0.000 A 
ATOM      8  C   UNL     1       1.176   8.622  20.795  0.00  0.00    +0.000 A 
ATOM      9  C   UNL     1       0.404   9.583  21.505  0.00  0.00    +0.000 A 
ATOM     10  C   UNL     1       0.040   9.434  22.946  0.00  0.00    +0.000 C 
BRANCH   5  12
ATOM     11  C   UNL     1      -1.673  12.275  19.915  0.00  0.00    +0.000 C 
ATOM     12  C   UNL     1      -0.729  11.868  21.036  0.00  0.00    +0.000 C 
ENDBRANCH   5  12
ENDBRANCH   1   7
BRANCH   3  13
ATOM     13  C   UNL     1       3.326   5.929  18.226  0.00  0.00    +0.000 A 
ATOM     14  C   UNL     1       2.799   4.725  17.743  0.00  0.00    +0.000 A 
ATOM     15  C   UNL     1       3.584   3.818  17.037  0.00  0.00    +0.000 A 
ATOM     16  C   UNL     1       4.922   4.098  16.789  0.00  0.00    +0.000 A 
ATOM     17  C   UNL     1       5.477   5.302  17.234  0.00  0.00    +0.000 A 
ATOM     18  C   UNL     1       4.665   6.224  17.935  0.00  0.00    +0.000 A 
BRANCH  17  19
ATOM     19  C   UNL     1       6.918   5.646  17.020  0.00  0.00    +0.000 C 
ATOM     20  C   UNL     1       7.485   6.977  17.457  0.00  0.00    +0.000 C 
ATOM     21  O   UNL     1       7.648   4.826  16.461  0.00  0.00    +0.000 OA
ENDBRANCH  17  19
ENDBRANCH   3  13
TORSDOF 4
ENDMDL
MODEL 5
REMARK VINA RESULT:      -6.9      3.833      5.838
REMARK  Name = 
REMARK  7 active torsions:
REMARK  status: ('A' for Active; 'I' for Inactive)
REMARK    1  A    between atoms: C_1  and  C_2
REMARK    2  A    between atoms: C_2  and  C_3
REMARK    3  A    between atoms: C_5  and  C_6
REMARK    4  A    between atoms: N_8  and  C_9
REMARK    5  A    between atoms: C_13  and  C_14
REMARK    6  A    between atoms: C_14  and  C_15
REMARK    7  A    between atoms: C_19  and  C_20
REMARK                            x       y       z     vdW  Elec       q    Type
REMARK                         _______ _______ _______ _____ _____    ______ ____
ROOT
ATOM      1  C   UNL     1       1.999   7.341  19.867  0.00  0.00    +0.000 C 
ATOM      2  O   UNL     1       2.168   6.408  20.648  0.00  0.00    +0.000 OA
ATOM      3  N   UNL     1       2.552   7.366  18.589  0.00  0.00    +0.000 N 
ATOM      4  H   UNL     1       2.513   8.247  18.089  0.00  0.00    +0.000 HD
ENDROOT
BRANCH   1   7
ATOM      5  C   UNL     1      -0.036  10.597  20.652  0.00  0.00    +0.000 A 
ATOM      6  S   UNL     1       0.820   9.846  19.357  0.00  0.00    +0.000 S 
ATOM      7  C   UNL     1       1.222   8.495  20.308  0.00  0.00    +0.000 A 
ATOM      8  C   UNL     1       0.703   8.619  21.584  0.00  0.00    +0.000 A 
ATOM      9  C   UNL     1      -0.031   9.819  21.799  0.00  0.00    +0.000 A 
ATOM     10  C   UNL     1      -0.683  10.155  23.099  0.00  0.00    +0.000 C 
BRANCH   5  12
ATOM     11  C   UNL     1      -1.017  12.202  18.999  0.00  0.00    +0.000 C 
ATOM     12  C   UNL     1      -0.681  11.943  20.460  0.00  0.00    +0.000 C 
ENDBRANCH   5  12
ENDBRANCH   1   7
BRANCH   3  13
ATOM     13  C   UNL     1       3.300   6.302  18.021  0.00  0.00    +0.000 A 
ATOM     14  C   UNL     1       2.742   5.044  17.769  0.00  0.00    +0.000 A 
ATOM     15  C   UNL     1       3.507   3.996  17.264  0.00  0.00    +0.000 A 
ATOM     16  C   UNL     1       4.857   4.185  16.992  0.00  0.00    +0.000 A 
ATOM     17  C   UNL     1       5.443   5.437  17.208  0.00  0.00    +0.000 A 
ATOM     18  C   UNL     1       4.651   6.498  17.705  0.00  0.00    +0.000 A 
BRANCH  17  19
ATOM     19  C   UNL     1       6.897   5.693  16.959  0.00  0.00    +0.000 C 
ATOM     20  C   UNL     1       7.568   6.960  17.438  0.00  0.00    +0.000 C 
ATOM     21  O   UNL     1       7.550   4.853  16.337  0.00  0.00    +0.000 OA
ENDBRANCH  17  19
ENDBRANCH   3  13
TORSDOF 4
ENDMDL
MODEL 6
REMARK VINA RESULT:      -6.9      3.187      5.306
REMARK  Name = 
REMARK  7 active torsions:
REMARK  status: ('A' for Active; 'I' for Inactive)
REMARK    1  A    between atoms: C_1  and  C_2
REMARK    2  A    between atoms: C_2  and  C_3
REMARK    3  A    between atoms: C_5  and  C_6
REMARK    4  A    between atoms: N_8  and  C_9
REMARK    5  A    between atoms: C_13  and  C_14
REMARK    6  A    between atoms: C_14  and  C_15
REMARK    7  A    between atoms: C_19  and  C_20
REMARK                            x       y       z     vdW  Elec       q    Type
REMARK                         _______ _______ _______ _____ _____    ______ ____
ROOT
ATOM      1  C   UNL     1       2.253   7.017  19.653  0.00  0.00    +0.000 C 
ATOM      2  O   UNL     1       2.512   6.101  20.430  0.00  0.00    +0.000 OA
ATOM      3  N   UNL     1       2.665   7.017  18.322  0.00  0.00    +0.000 N 
ATOM      4  H   UNL     1       2.567   7.888  17.811  0.00  0.00    +0.000 HD
ENDROOT
BRANCH   1   7
ATOM      5  C   UNL     1       0.323  10.295  20.593  0.00  0.00    +0.000 A 
ATOM      6  S   UNL     1       1.104   9.555  19.246  0.00  0.00    +0.000 S 
ATOM      7  C   UNL     1       1.521   8.177  20.152  0.00  0.00    +0.000 A 
ATOM      8  C   UNL     1       1.062   8.284  21.452  0.00  0.00    +0.000 A 
ATOM      9  C   UNL     1       0.364   9.494  21.723  0.00  0.00    +0.000 A 
ATOM     10  C   UNL     1      -0.222   9.816  23.059  0.00  0.00    +0.000 C 
BRANCH   5  12
ATOM     11  C   UNL     1      -1.130  11.771  19.186  0.00  0.00    +0.000 C 
ATOM     12  C   UNL     1      -0.302  11.657  20.458  0.00  0.00    +0.000 C 
ENDBRANCH   5  12
ENDBRANCH   1   7
BRANCH   3  13
ATOM     13  C   UNL     1       3.355   5.945  17.699  0.00  0.00    +0.000 A 
ATOM     14  C   UNL     1       2.873   4.631  17.720  0.00  0.00    +0.000 A 
ATOM     15  C   UNL     1       3.593   3.583  17.152  0.00  0.00    +0.000 A 
ATOM     16  C   UNL     1       4.816   3.828  16.539  0.00  0.00    +0.000 A 
ATOM     17  C   UNL     1       5.316   5.133  16.477  0.00  0.00    +0.000 A 
ATOM     18  C   UNL     1       4.567   6.191  17.043  0.00  0.00    +0.000 A 
BRANCH  17  19
ATOM     19  C   UNL     1       6.639   5.453  15.854  0.00  0.00    +0.000 C 
ATOM     20  C   UNL     1       7.071   4.820  14.551  0.00  0.00    +0.000 C 
ATOM     21  O   UNL     1       7.393   6.239  16.430  0.00  0.00    +0.000 OA
ENDBRANCH  17  19
ENDBRANCH   3  13
TORSDOF 4
ENDMDL
MODEL 7
REMARK VINA RESULT:      -6.9      1.261      2.066
REMARK  Name = 
REMARK  7 active torsions:
REMARK  status: ('A' for Active; 'I' for Inactive)
REMARK    1  A    between atoms: C_1  and  C_2
REMARK    2  A    between atoms: C_2  and  C_3
REMARK    3  A    between atoms: C_5  and  C_6
REMARK    4  A    between atoms: N_8  and  C_9
REMARK    5  A    between atoms: C_13  and  C_14
REMARK    6  A    between atoms: C_14  and  C_15
REMARK    7  A    between atoms: C_19  and  C_20
REMARK                            x       y       z     vdW  Elec       q    Type
REMARK                         _______ _______ _______ _____ _____    ______ ____
ROOT
ATOM      1  C   UNL     1       4.496   4.113  17.032  0.00  0.00    +0.000 C 
ATOM      2  O   UNL     1       4.779   2.919  16.953  0.00  0.00    +0.000 OA
ATOM      3  N   UNL     1       4.934   5.056  16.106  0.00  0.00    +0.000 N 
ATOM      4  H   UNL     1       4.809   6.032  16.349  0.00  0.00    +0.000 HD
ENDROOT
BRANCH   1   7
ATOM      5  C   UNL     1       2.343   5.730  19.879  0.00  0.00    +0.000 A 
ATOM      6  S   UNL     1       3.041   6.128  18.354  0.00  0.00    +0.000 S 
ATOM      7  C   UNL     1       3.705   4.573  18.169  0.00  0.00    +0.000 A 
ATOM      8  C   UNL     1       3.388   3.771  19.249  0.00  0.00    +0.000 A 
ATOM      9  C   UNL     1       2.598   4.417  20.242  0.00  0.00    +0.000 A 
ATOM     10  C   UNL     1       2.137   3.737  21.488  0.00  0.00    +0.000 C 
BRANCH   5  12
ATOM     11  C   UNL     1       1.773   8.159  20.094  0.00  0.00    +0.000 C 
ATOM     12  C   UNL     1       1.564   6.759  20.652  0.00  0.00    +0.000 C 
ENDBRANCH   5  12
ENDBRANCH   1   7
BRANCH   3  13
ATOM     13  C   UNL     1       5.682   4.744  14.941  0.00  0.00    +0.000 A 
ATOM     14  C   UNL     1       6.974   5.238  14.724  0.00  0.00    +0.000 A 
ATOM     15  C   UNL     1       7.669   4.967  13.548  0.00  0.00    +0.000 A 
ATOM     16  C   UNL     1       7.087   4.184  12.558  0.00  0.00    +0.000 A 
ATOM     17  C   UNL     1       5.807   3.653  12.751  0.00  0.00    +0.000 A 
ATOM     18  C   UNL     1       5.119   3.921  13.957  0.00  0.00    +0.000 A 
BRANCH  17  19
ATOM     19  C   UNL     1       5.120   2.826  11.709  0.00  0.00    +0.000 C 
ATOM     20  C   UNL     1       3.860   3.307  11.026  0.00  0.00    +0.000 C 
ATOM     21  O   UNL     1       5.590   1.725  11.418  0.00  0.00    +0.000 OA
ENDBRANCH  17  19
ENDBRANCH   3  13
TORSDOF 4
ENDMDL
MODEL 8
REMARK VINA RESULT:      -6.9      2.751      4.351
REMARK  Name = 
REMARK  7 active torsions:
REMARK  status: ('A' for Active; 'I' for Inactive)
REMARK    1  A    between atoms: C_1  and  C_2
REMARK    2  A    between atoms: C_2  and  C_3
REMARK    3  A    between atoms: C_5  and  C_6
REMARK    4  A    between atoms: N_8  and  C_9
REMARK    5  A    between atoms: C_13  and  C_14
REMARK    6  A    between atoms: C_14  and  C_15
REMARK    7  A    between atoms: C_19  and  C_20
REMARK                            x       y       z     vdW  Elec       q    Type
REMARK                         _______ _______ _______ _____ _____    ______ ____
ROOT
ATOM      1  C   UNL     1       3.246   6.716  18.461  0.00  0.00    +0.000 C 
ATOM      2  O   UNL     1       2.884   5.545  18.555  0.00  0.00    +0.000 OA
ATOM      3  N   UNL     1       4.518   7.080  18.027  0.00  0.00    +0.000 N 
ATOM      4  H   UNL     1       4.787   8.049  18.155  0.00  0.00    +0.000 HD
ENDROOT
BRANCH   1   7
ATOM      5  C   UNL     1       0.795   9.699  19.135  0.00  0.00    +0.000 A 
ATOM      6  S   UNL     1       1.748   9.024  17.866  0.00  0.00    +0.000 S 
ATOM      7  C   UNL     1       2.322   7.772  18.863  0.00  0.00    +0.000 A 
ATOM      8  C   UNL     1       1.785   7.868  20.134  0.00  0.00    +0.000 A 
ATOM      9  C   UNL     1       0.898   8.968  20.308  0.00  0.00    +0.000 A 
ATOM     10  C   UNL     1       0.202   9.259  21.596  0.00  0.00    +0.000 C 
BRANCH   5  12
ATOM     11  C   UNL     1       0.850  12.188  18.871  0.00  0.00    +0.000 C 
ATOM     12  C   UNL     1      -0.020  10.941  18.897  0.00  0.00    +0.000 C 
ENDBRANCH   5  12
ENDBRANCH   1   7
BRANCH   3  13
ATOM     13  C   UNL     1       5.502   6.162  17.578  0.00  0.00    +0.000 A 
ATOM     14  C   UNL     1       6.393   5.530  18.453  0.00  0.00    +0.000 A 
ATOM     15  C   UNL     1       7.389   4.677  17.987  0.00  0.00    +0.000 A 
ATOM     16  C   UNL     1       7.514   4.427  16.625  0.00  0.00    +0.000 A 
ATOM     17  C   UNL     1       6.625   5.021  15.723  0.00  0.00    +0.000 A 
ATOM     18  C   UNL     1       5.607   5.873  16.211  0.00  0.00    +0.000 A 
BRANCH  17  19
ATOM     19  C   UNL     1       6.728   4.811  14.245  0.00  0.00    +0.000 C 
ATOM     20  C   UNL     1       5.839   3.823  13.525  0.00  0.00    +0.000 C 
ATOM     21  O   UNL     1       7.567   5.452  13.610  0.00  0.00    +0.000 OA
ENDBRANCH  17  19
ENDBRANCH   3  13
TORSDOF 4
ENDMDL
MODEL 9
REMARK VINA RESULT:      -6.8      3.613      5.669
REMARK  Name = 
REMARK  7 active torsions:
REMARK  status: ('A' for Active; 'I' for Inactive)
REMARK    1  A    between atoms: C_1  and  C_2
REMARK    2  A    between atoms: C_2  and  C_3
REMARK    3  A    between atoms: C_5  and  C_6
REMARK    4  A    between atoms: N_8  and  C_9
REMARK    5  A    between atoms: C_13  and  C_14
REMARK    6  A    between atoms: C_14  and  C_15
REMARK    7  A    between atoms: C_19  and  C_20
REMARK                            x       y       z     vdW  Elec       q    Type
REMARK                         _______ _______ _______ _____ _____    ______ ____
ROOT
ATOM      1  C   UNL     1       2.026   8.210  18.492  0.00  0.00    +0.000 C 
ATOM      2  O   UNL     1       2.318   8.640  17.379  0.00  0.00    +0.000 OA
ATOM      3  N   UNL     1       2.300   6.904  18.893  0.00  0.00    +0.000 N 
ATOM      4  H   UNL     1       1.863   6.585  19.750  0.00  0.00    +0.000 HD
ENDROOT
BRANCH   1   7
ATOM      5  C   UNL     1       0.079  10.833  20.657  0.00  0.00    +0.000 A 
ATOM      6  S   UNL     1       0.633  10.594  19.042  0.00  0.00    +0.000 S 
ATOM      7  C   UNL     1       1.322   9.086  19.423  0.00  0.00    +0.000 A 
ATOM      8  C   UNL     1       1.121   8.775  20.755  0.00  0.00    +0.000 A 
ATOM      9  C   UNL     1       0.401   9.766  21.481  0.00  0.00    +0.000 A 
ATOM     10  C   UNL     1       0.068   9.634  22.930  0.00  0.00    +0.000 C 
BRANCH   5  12
ATOM     11  C   UNL     1       0.292  13.191  21.471  0.00  0.00    +0.000 C 
ATOM     12  C   UNL     1      -0.660  12.088  21.031  0.00  0.00    +0.000 C 
ENDBRANCH   5  12
ENDBRANCH   1   7
BRANCH   3  13
ATOM     13  C   UNL     1       3.003   5.957  18.104  0.00  0.00    +0.000 A 
ATOM     14  C   UNL     1       2.511   4.670  17.861  0.00  0.00    +0.000 A 
ATOM     15  C   UNL     1       3.242   3.736  17.132  0.00  0.00    +0.000 A 
ATOM     16  C   UNL     1       4.489   4.073  16.618  0.00  0.00    +0.000 A 
ATOM     17  C   UNL     1       5.002   5.359  16.820  0.00  0.00    +0.000 A 
ATOM     18  C   UNL     1       4.241   6.304  17.548  0.00  0.00    +0.000 A 
BRANCH  17  19
ATOM     19  C   UNL     1       6.350   5.770  16.315  0.00  0.00    +0.000 C 
ATOM     20  C   UNL     1       7.158   4.873  15.405  0.00  0.00    +0.000 C 
ATOM     21  O   UNL     1       6.809   6.859  16.664  0.00  0.00    +0.000 OA
ENDBRANCH  17  19
ENDBRANCH   3  13
TORSDOF 4
ENDMDL
