MODEL 1
REMARK VINA RESULT:      -7.0      0.000      0.000
REMARK  Name = 
REMARK  6 active torsions:
REMARK  status: ('A' for Active; 'I' for Inactive)
REMARK    1  A    between atoms: C_1  and  C_2
REMARK    2  A    between atoms: C_2  and  C_17
REMARK    3  A    between atoms: N_3  and  N_4
REMARK    4  A    between atoms: C_5  and  C_7
REMARK    5  A    between atoms: C_7  and  N_8
REMARK    6  A    between atoms: C_11  and  C_12
REMARK                            x       y       z     vdW  Elec       q    Type
REMARK                         _______ _______ _______ _____ _____    ______ ____
ROOT
ATOM      1  N   UNL     1       5.313   3.939  17.826  0.00  0.00    +0.000 N 
ATOM      2  C   UNL     1       4.221   3.174  18.228  0.00  0.00    +0.000 C 
ATOM      3  O   UNL     1       3.607   2.400  17.491  0.00  0.00    +0.000 OA
ATOM      4  H   UNL     1       5.825   4.497  18.498  0.00  0.00    +0.000 HD
ENDROOT
BRANCH   1   7
ATOM      5  C   UNL     1       5.346   6.245  16.040  0.00  0.00    +0.000 C 
ATOM      6  C   UNL     1       5.801   4.836  15.733  0.00  0.00    +0.000 C 
ATOM      7  N   UNL     1       5.761   3.819  16.543  0.00  0.00    +0.000 NA
BRANCH   6   8
ATOM      8  C   UNL     1       6.326   4.609  14.399  0.00  0.00    +0.000 A 
ATOM      9  C   UNL     1       5.977   3.699  13.415  0.00  0.00    +0.000 A 
ATOM     10  C   UNL     1       6.847   3.924  12.322  0.00  0.00    +0.000 A 
ATOM     11  C   UNL     1       7.672   4.956  12.697  0.00  0.00    +0.000 A 
ATOM     12  O   UNL     1       7.364   5.381  13.949  0.00  0.00    +0.000 OA
ENDBRANCH   6   8
ENDBRANCH   1   7
BRANCH   2  13
ATOM     13  C   UNL     1       3.794   3.408  19.658  0.00  0.00    +0.000 C 
BRANCH  13  14
ATOM     14  N   UNL     1       3.076   4.659  19.818  0.00  0.00    +0.000 N 
ATOM     15  C   UNL     1       2.181   4.983  20.795  0.00  0.00    +0.000 A 
ATOM     16  C   UNL     1       1.735   6.248  20.505  0.00  0.00    +0.000 A 
ATOM     17  C   UNL     1       2.394   6.615  19.300  0.00  0.00    +0.000 A 
ATOM     18  N   UNL     1       3.199   5.616  18.874  0.00  0.00    +0.000 NA
BRANCH  17  19
ATOM     19  C   UNL     1       2.257   7.924  18.566  0.00  0.00    +0.000 C 
ATOM     20  F   UNL     1       3.440   8.327  18.020  0.00  0.00    +0.000 F 
ATOM     21  F   UNL     1       1.369   7.851  17.539  0.00  0.00    +0.000 F 
ATOM     22  F   UNL     1       1.846   8.937  19.375  0.00  0.00    +0.000 F 
ENDBRANCH  17  19
ENDBRANCH  13  14
ENDBRANCH   2  13
TORSDOF 5
ENDMDL
MODEL 2
REMARK VINA RESULT:      -6.9      3.900      6.852
REMARK  Name = 
REMARK  6 active torsions:
REMARK  status: ('A' for Active; 'I' for Inactive)
REMARK    1  A    between atoms: C_1  and  C_2
REMARK    2  A    between atoms: C_2  and  C_17
REMARK    3  A    between atoms: N_3  and  N_4
REMARK    4  A    between atoms: C_5  and  C_7
REMARK    5  A    between atoms: C_7  and  N_8
REMARK    6  A    between atoms: C_11  and  C_12
REMARK                            x       y       z     vdW  Elec       q    Type
REMARK                         _______ _______ _______ _____ _____    ______ ____
ROOT
ATOM      1  N   UNL     1       2.806   6.260  20.003  0.00  0.00    +0.000 N 
ATOM      2  C   UNL     1       2.247   4.996  20.178  0.00  0.00    +0.000 C 
ATOM      3  O   UNL     1       1.068   4.794  20.475  0.00  0.00    +0.000 OA
ATOM      4  H   UNL     1       3.761   6.361  19.683  0.00  0.00    +0.000 HD
ENDROOT
BRANCH   1   7
ATOM      5  C   UNL     1       2.613   8.240  17.870  0.00  0.00    +0.000 C 
ATOM      6  C   UNL     1       1.888   8.243  19.197  0.00  0.00    +0.000 C 
ATOM      7  N   UNL     1       2.005   7.355  20.141  0.00  0.00    +0.000 NA
BRANCH   6   8
ATOM      8  C   UNL     1       0.984   9.354  19.431  0.00  0.00    +0.000 A 
ATOM      9  C   UNL     1       0.129  10.039  18.585  0.00  0.00    +0.000 A 
ATOM     10  C   UNL     1      -0.494  11.046  19.359  0.00  0.00    +0.000 A 
ATOM     11  C   UNL     1       0.010  10.917  20.630  0.00  0.00    +0.000 A 
ATOM     12  O   UNL     1       0.902   9.895  20.686  0.00  0.00    +0.000 OA
ENDBRANCH   6   8
ENDBRANCH   1   7
BRANCH   2  13
ATOM     13  C   UNL     1       3.231   3.859  20.029  0.00  0.00    +0.000 C 
BRANCH  13  14
ATOM     14  N   UNL     1       4.200   4.108  18.977  0.00  0.00    +0.000 N 
ATOM     15  C   UNL     1       4.039   3.908  17.637  0.00  0.00    +0.000 A 
ATOM     16  C   UNL     1       5.235   4.240  17.052  0.00  0.00    +0.000 A 
ATOM     17  C   UNL     1       6.093   4.605  18.125  0.00  0.00    +0.000 A 
ATOM     18  N   UNL     1       5.450   4.495  19.309  0.00  0.00    +0.000 NA
BRANCH  17  19
ATOM     19  C   UNL     1       7.523   5.067  18.012  0.00  0.00    +0.000 C 
ATOM     20  F   UNL     1       8.020   5.482  19.212  0.00  0.00    +0.000 F 
ATOM     21  F   UNL     1       8.353   4.082  17.576  0.00  0.00    +0.000 F 
ATOM     22  F   UNL     1       7.668   6.115  17.157  0.00  0.00    +0.000 F 
ENDBRANCH  17  19
ENDBRANCH  13  14
ENDBRANCH   2  13
TORSDOF 5
ENDMDL
MODEL 3
REMARK VINA RESULT:      -6.8      3.720      6.908
REMARK  Name = 
REMARK  6 active torsions:
REMARK  status: ('A' for Active; 'I' for Inactive)
REMARK    1  A    between atoms: C_1  and  C_2
REMARK    2  A    between atoms: C_2  and  C_17
REMARK    3  A    between atoms: N_3  and  N_4
REMARK    4  A    between atoms: C_5  and  C_7
REMARK    5  A    between atoms: C_7  and  N_8
REMARK    6  A    between atoms: C_11  and  C_12
REMARK                            x       y       z     vdW  Elec       q    Type
REMARK                         _______ _______ _______ _____ _____    ______ ____
ROOT
ATOM      1  N   UNL     1       3.018   5.840  20.137  0.00  0.00    +0.000 N 
ATOM      2  C   UNL     1       2.488   4.555  20.237  0.00  0.00    +0.000 C 
ATOM      3  O   UNL     1       1.345   4.304  20.623  0.00  0.00    +0.000 OA
ATOM      4  H   UNL     1       3.936   5.988  19.739  0.00  0.00    +0.000 HD
ENDROOT
BRANCH   1   7
ATOM      5  C   UNL     1       2.496   7.951  18.193  0.00  0.00    +0.000 C 
ATOM      6  C   UNL     1       1.963   7.847  19.605  0.00  0.00    +0.000 C 
ATOM      7  N   UNL     1       2.225   6.902  20.460  0.00  0.00    +0.000 NA
BRANCH   6   8
ATOM      8  C   UNL     1       1.081   8.916  20.038  0.00  0.00    +0.000 A 
ATOM      9  C   UNL     1       0.575   9.243  21.283  0.00  0.00    +0.000 A 
ATOM     10  C   UNL     1      -0.252  10.378  21.104  0.00  0.00    +0.000 A 
ATOM     11  C   UNL     1      -0.200  10.680  19.765  0.00  0.00    +0.000 A 
ATOM     12  O   UNL     1       0.606   9.805  19.111  0.00  0.00    +0.000 OA
ENDBRANCH   6   8
ENDBRANCH   1   7
BRANCH   2  13
ATOM     13  C   UNL     1       3.462   3.456  19.882  0.00  0.00    +0.000 C 
BRANCH  13  14
ATOM     14  N   UNL     1       4.205   3.753  18.671  0.00  0.00    +0.000 N 
ATOM     15  C   UNL     1       3.781   3.614  17.382  0.00  0.00    +0.000 A 
ATOM     16  C   UNL     1       4.841   3.974  16.587  0.00  0.00    +0.000 A 
ATOM     17  C   UNL     1       5.897   4.291  17.484  0.00  0.00    +0.000 A 
ATOM     18  N   UNL     1       5.499   4.126  18.766  0.00  0.00    +0.000 NA
BRANCH  17  19
ATOM     19  C   UNL     1       7.280   4.759  17.112  0.00  0.00    +0.000 C 
ATOM     20  F   UNL     1       7.428   6.102  17.291  0.00  0.00    +0.000 F 
ATOM     21  F   UNL     1       8.247   4.165  17.861  0.00  0.00    +0.000 F 
ATOM     22  F   UNL     1       7.581   4.513  15.808  0.00  0.00    +0.000 F 
ENDBRANCH  17  19
ENDBRANCH  13  14
ENDBRANCH   2  13
TORSDOF 5
ENDMDL
MODEL 4
REMARK VINA RESULT:      -6.8      3.838      7.013
REMARK  Name = 
REMARK  6 active torsions:
REMARK  status: ('A' for Active; 'I' for Inactive)
REMARK    1  A    between atoms: C_1  and  C_2
REMARK    2  A    between atoms: C_2  and  C_17
REMARK    3  A    between atoms: N_3  and  N_4
REMARK    4  A    between atoms: C_5  and  C_7
REMARK    5  A    between atoms: C_7  and  N_8
REMARK    6  A    between atoms: C_11  and  C_12
REMARK                            x       y       z     vdW  Elec       q    Type
REMARK                         _______ _______ _______ _____ _____    ______ ____
ROOT
ATOM      1  N   UNL     1       2.555   5.378  19.779  0.00  0.00    +0.000 N 
ATOM      2  C   UNL     1       2.609   4.160  20.453  0.00  0.00    +0.000 C 
ATOM      3  O   UNL     1       2.188   3.981  21.597  0.00  0.00    +0.000 OA
ATOM      4  H   UNL     1       2.845   5.443  18.811  0.00  0.00    +0.000 HD
ENDROOT
BRANCH   1   7
ATOM      5  C   UNL     1       2.409   7.972  18.452  0.00  0.00    +0.000 C 
ATOM      6  C   UNL     1       1.887   7.608  19.824  0.00  0.00    +0.000 C 
ATOM      7  N   UNL     1       1.979   6.446  20.401  0.00  0.00    +0.000 NA
BRANCH   6   8
ATOM      8  C   UNL     1       1.227   8.671  20.561  0.00  0.00    +0.000 A 
ATOM      9  C   UNL     1       0.722   9.894  20.156  0.00  0.00    +0.000 A 
ATOM     10  C   UNL     1       0.206  10.527  21.312  0.00  0.00    +0.000 A 
ATOM     11  C   UNL     1       0.420   9.655  22.352  0.00  0.00    +0.000 A 
ATOM     12  O   UNL     1       1.034   8.528  21.908  0.00  0.00    +0.000 OA
ENDBRANCH   6   8
ENDBRANCH   1   7
BRANCH   2  13
ATOM     13  C   UNL     1       3.291   3.055  19.681  0.00  0.00    +0.000 C 
BRANCH  13  14
ATOM     14  N   UNL     1       4.228   3.571  18.699  0.00  0.00    +0.000 N 
ATOM     15  C   UNL     1       4.097   3.561  17.341  0.00  0.00    +0.000 A 
ATOM     16  C   UNL     1       5.248   4.114  16.839  0.00  0.00    +0.000 A 
ATOM     17  C   UNL     1       6.054   4.407  17.973  0.00  0.00    +0.000 A 
ATOM     18  N   UNL     1       5.423   4.044  19.112  0.00  0.00    +0.000 NA
BRANCH  17  19
ATOM     19  C   UNL     1       7.421   5.042  17.962  0.00  0.00    +0.000 C 
ATOM     20  F   UNL     1       7.530   5.999  16.997  0.00  0.00    +0.000 F 
ATOM     21  F   UNL     1       7.717   5.653  19.140  0.00  0.00    +0.000 F 
ATOM     22  F   UNL     1       8.412   4.143  17.721  0.00  0.00    +0.000 F 
ENDBRANCH  17  19
ENDBRANCH  13  14
ENDBRANCH   2  13
TORSDOF 5
ENDMDL
MODEL 5
REMARK VINA RESULT:      -6.7      2.809      3.259
REMARK  Name = 
REMARK  6 active torsions:
REMARK  status: ('A' for Active; 'I' for Inactive)
REMARK    1  A    between atoms: C_1  and  C_2
REMARK    2  A    between atoms: C_2  and  C_17
REMARK    3  A    between atoms: N_3  and  N_4
REMARK    4  A    between atoms: C_5  and  C_7
REMARK    5  A    between atoms: C_7  and  N_8
REMARK    6  A    between atoms: C_11  and  C_12
REMARK                            x       y       z     vdW  Elec       q    Type
REMARK                         _______ _______ _______ _____ _____    ______ ____
ROOT
ATOM      1  N   UNL     1       5.296   4.334  17.323  0.00  0.00    +0.000 N 
ATOM      2  C   UNL     1       6.250   4.641  18.291  0.00  0.00    +0.000 C 
ATOM      3  O   UNL     1       7.466   4.634  18.093  0.00  0.00    +0.000 OA
ATOM      4  H   UNL     1       4.309   4.434  17.524  0.00  0.00    +0.000 HD
ENDROOT
BRANCH   1   7
ATOM      5  C   UNL     1       5.323   6.362  15.227  0.00  0.00    +0.000 C 
ATOM      6  C   UNL     1       5.754   4.917  15.116  0.00  0.00    +0.000 C 
ATOM      7  N   UNL     1       5.717   4.026  16.063  0.00  0.00    +0.000 NA
BRANCH   6   8
ATOM      8  C   UNL     1       6.250   4.494  13.818  0.00  0.00    +0.000 A 
ATOM      9  C   UNL     1       5.863   3.467  12.976  0.00  0.00    +0.000 A 
ATOM     10  C   UNL     1       6.718   3.517  11.849  0.00  0.00    +0.000 A 
ATOM     11  C   UNL     1       7.573   4.569  12.066  0.00  0.00    +0.000 A 
ATOM     12  O   UNL     1       7.297   5.170  13.252  0.00  0.00    +0.000 OA
ENDBRANCH   6   8
ENDBRANCH   1   7
BRANCH   2  13
ATOM     13  C   UNL     1       5.673   4.939  19.655  0.00  0.00    +0.000 C 
BRANCH  13  14
ATOM     14  N   UNL     1       4.229   4.796  19.682  0.00  0.00    +0.000 N 
ATOM     15  C   UNL     1       3.295   5.787  19.601  0.00  0.00    +0.000 A 
ATOM     16  C   UNL     1       2.072   5.174  19.716  0.00  0.00    +0.000 A 
ATOM     17  C   UNL     1       2.356   3.793  19.899  0.00  0.00    +0.000 A 
ATOM     18  N   UNL     1       3.691   3.577  19.902  0.00  0.00    +0.000 NA
BRANCH  17  19
ATOM     19  C   UNL     1       1.349   2.684  20.062  0.00  0.00    +0.000 C 
ATOM     20  F   UNL     1       1.151   2.365  21.373  0.00  0.00    +0.000 F 
ATOM     21  F   UNL     1       0.129   3.015  19.562  0.00  0.00    +0.000 F 
ATOM     22  F   UNL     1       1.733   1.535  19.444  0.00  0.00    +0.000 F 
ENDBRANCH  17  19
ENDBRANCH  13  14
ENDBRANCH   2  13
TORSDOF 5
ENDMDL
MODEL 6
REMARK VINA RESULT:      -6.7      4.214      5.387
REMARK  Name = 
REMARK  6 active torsions:
REMARK  status: ('A' for Active; 'I' for Inactive)
REMARK    1  A    between atoms: C_1  and  C_2
REMARK    2  A    between atoms: C_2  and  C_17
REMARK    3  A    between atoms: N_3  and  N_4
REMARK    4  A    between atoms: C_5  and  C_7
REMARK    5  A    between atoms: C_7  and  N_8
REMARK    6  A    between atoms: C_11  and  C_12
REMARK                            x       y       z     vdW  Elec       q    Type
REMARK                         _______ _______ _______ _____ _____    ______ ____
ROOT
ATOM      1  N   UNL     1       6.310   6.493  16.674  0.00  0.00    +0.000 N 
ATOM      2  C   UNL     1       4.957   6.317  16.954  0.00  0.00    +0.000 C 
ATOM      3  O   UNL     1       4.241   7.170  17.483  0.00  0.00    +0.000 OA
ATOM      4  H   UNL     1       6.826   5.785  16.166  0.00  0.00    +0.000 HD
ENDROOT
BRANCH   1   7
ATOM      5  C   UNL     1       8.191   6.712  18.893  0.00  0.00    +0.000 C 
ATOM      6  C   UNL     1       7.746   7.808  17.950  0.00  0.00    +0.000 C 
ATOM      7  N   UNL     1       6.891   7.688  16.977  0.00  0.00    +0.000 NA
BRANCH   6   8
ATOM      8  C   UNL     1       8.333   9.118  18.168  0.00  0.00    +0.000 A 
ATOM      9  C   UNL     1       8.214  10.308  17.471  0.00  0.00    +0.000 A 
ATOM     10  C   UNL     1       9.031  11.254  18.133  0.00  0.00    +0.000 A 
ATOM     11  C   UNL     1       9.598  10.593  19.194  0.00  0.00    +0.000 A 
ATOM     12  O   UNL     1       9.180   9.301  19.228  0.00  0.00    +0.000 OA
ENDBRANCH   6   8
ENDBRANCH   1   7
BRANCH   2  13
ATOM     13  C   UNL     1       4.425   4.947  16.603  0.00  0.00    +0.000 C 
BRANCH  13  14
ATOM     14  N   UNL     1       3.940   4.233  17.770  0.00  0.00    +0.000 N 
ATOM     15  C   UNL     1       4.679   3.537  18.683  0.00  0.00    +0.000 A 
ATOM     16  C   UNL     1       3.782   3.000  19.574  0.00  0.00    +0.000 A 
ATOM     17  C   UNL     1       2.499   3.395  19.106  0.00  0.00    +0.000 A 
ATOM     18  N   UNL     1       2.610   4.133  17.978  0.00  0.00    +0.000 NA
BRANCH  17  19
ATOM     19  C   UNL     1       1.173   3.071  19.744  0.00  0.00    +0.000 C 
ATOM     20  F   UNL     1       0.525   4.194  20.166  0.00  0.00    +0.000 F 
ATOM     21  F   UNL     1       0.326   2.441  18.886  0.00  0.00    +0.000 F 
ATOM     22  F   UNL     1       1.300   2.271  20.836  0.00  0.00    +0.000 F 
ENDBRANCH  17  19
ENDBRANCH  13  14
ENDBRANCH   2  13
TORSDOF 5
ENDMDL
MODEL 7
REMARK VINA RESULT:      -6.7      1.010      1.307
REMARK  Name = 
REMARK  6 active torsions:
REMARK  status: ('A' for Active; 'I' for Inactive)
REMARK    1  A    between atoms: C_1  and  C_2
REMARK    2  A    between atoms: C_2  and  C_17
REMARK    3  A    between atoms: N_3  and  N_4
REMARK    4  A    between atoms: C_5  and  C_7
REMARK    5  A    between atoms: C_7  and  N_8
REMARK    6  A    between atoms: C_11  and  C_12
REMARK                            x       y       z     vdW  Elec       q    Type
REMARK                         _______ _______ _______ _____ _____    ______ ____
ROOT
ATOM      1  N   UNL     1       4.844   3.612  17.286  0.00  0.00    +0.000 N 
ATOM      2  C   UNL     1       5.558   3.992  18.421  0.00  0.00    +0.000 C 
ATOM      3  O   UNL     1       6.747   4.316  18.417  0.00  0.00    +0.000 OA
ATOM      4  H   UNL     1       3.850   3.433  17.341  0.00  0.00    +0.000 HD
ENDROOT
BRANCH   1   7
ATOM      5  C   UNL     1       5.137   6.085  15.767  0.00  0.00    +0.000 C 
ATOM      6  C   UNL     1       5.639   4.708  15.392  0.00  0.00    +0.000 C 
ATOM      7  N   UNL     1       5.481   3.616  16.081  0.00  0.00    +0.000 NA
BRANCH   6   8
ATOM      8  C   UNL     1       6.361   4.610  14.136  0.00  0.00    +0.000 A 
ATOM      9  C   UNL     1       6.216   3.756  13.057  0.00  0.00    +0.000 A 
ATOM     10  C   UNL     1       7.213   4.111  12.117  0.00  0.00    +0.000 A 
ATOM     11  C   UNL     1       7.905   5.159  12.673  0.00  0.00    +0.000 A 
ATOM     12  O   UNL     1       7.396   5.472  13.892  0.00  0.00    +0.000 OA
ENDBRANCH   6   8
ENDBRANCH   1   7
BRANCH   2  13
ATOM     13  C   UNL     1       4.762   3.924  19.703  0.00  0.00    +0.000 C 
BRANCH  13  14
ATOM     14  N   UNL     1       3.707   4.919  19.746  0.00  0.00    +0.000 N 
ATOM     15  C   UNL     1       2.571   4.893  20.503  0.00  0.00    +0.000 A 
ATOM     16  C   UNL     1       1.862   6.020  20.172  0.00  0.00    +0.000 A 
ATOM     17  C   UNL     1       2.631   6.671  19.168  0.00  0.00    +0.000 A 
ATOM     18  N   UNL     1       3.753   5.968  18.897  0.00  0.00    +0.000 NA
BRANCH  17  19
ATOM     19  C   UNL     1       2.292   7.967  18.479  0.00  0.00    +0.000 C 
ATOM     20  F   UNL     1       1.779   8.886  19.346  0.00  0.00    +0.000 F 
ATOM     21  F   UNL     1       3.380   8.549  17.907  0.00  0.00    +0.000 F 
ATOM     22  F   UNL     1       1.364   7.810  17.497  0.00  0.00    +0.000 F 
ENDBRANCH  17  19
ENDBRANCH  13  14
ENDBRANCH   2  13
TORSDOF 5
ENDMDL
MODEL 8
REMARK VINA RESULT:      -6.7      0.715      1.085
REMARK  Name = 
REMARK  6 active torsions:
REMARK  status: ('A' for Active; 'I' for Inactive)
REMARK    1  A    between atoms: C_1  and  C_2
REMARK    2  A    between atoms: C_2  and  C_17
REMARK    3  A    between atoms: N_3  and  N_4
REMARK    4  A    between atoms: C_5  and  C_7
REMARK    5  A    between atoms: C_7  and  N_8
REMARK    6  A    between atoms: C_11  and  C_12
REMARK                            x       y       z     vdW  Elec       q    Type
REMARK                         _______ _______ _______ _____ _____    ______ ____
ROOT
ATOM      1  N   UNL     1       4.370   3.846  17.580  0.00  0.00    +0.000 N 
ATOM      2  C   UNL     1       3.088   3.321  17.722  0.00  0.00    +0.000 C 
ATOM      3  O   UNL     1       2.445   2.802  16.808  0.00  0.00    +0.000 OA
ATOM      4  H   UNL     1       4.878   4.188  18.385  0.00  0.00    +0.000 HD
ENDROOT
BRANCH   1   7
ATOM      5  C   UNL     1       5.287   6.255  16.214  0.00  0.00    +0.000 C 
ATOM      6  C   UNL     1       5.411   4.824  15.741  0.00  0.00    +0.000 C 
ATOM      7  N   UNL     1       4.979   3.766  16.362  0.00  0.00    +0.000 NA
BRANCH   6   8
ATOM      8  C   UNL     1       6.075   4.627  14.464  0.00  0.00    +0.000 A 
ATOM      9  C   UNL     1       5.822   3.753  13.422  0.00  0.00    +0.000 A 
ATOM     10  C   UNL     1       6.808   3.995  12.436  0.00  0.00    +0.000 A 
ATOM     11  C   UNL     1       7.601   5.002  12.929  0.00  0.00    +0.000 A 
ATOM     12  O   UNL     1       7.165   5.395  14.154  0.00  0.00    +0.000 OA
ENDBRANCH   6   8
ENDBRANCH   1   7
BRANCH   2  13
ATOM     13  C   UNL     1       2.501   3.489  19.104  0.00  0.00    +0.000 C 
BRANCH  13  14
ATOM     14  N   UNL     1       2.315   4.886  19.454  0.00  0.00    +0.000 N 
ATOM     15  C   UNL     1       1.980   5.398  20.674  0.00  0.00    +0.000 A 
ATOM     16  C   UNL     1       1.876   6.756  20.505  0.00  0.00    +0.000 A 
ATOM     17  C   UNL     1       2.134   6.988  19.126  0.00  0.00    +0.000 A 
ATOM     18  N   UNL     1       2.378   5.823  18.485  0.00  0.00    +0.000 NA
BRANCH  17  19
ATOM     19  C   UNL     1       2.154   8.324  18.430  0.00  0.00    +0.000 C 
ATOM     20  F   UNL     1       1.819   9.342  19.273  0.00  0.00    +0.000 F 
ATOM     21  F   UNL     1       3.382   8.630  17.931  0.00  0.00    +0.000 F 
ATOM     22  F   UNL     1       1.278   8.386  17.392  0.00  0.00    +0.000 F 
ENDBRANCH  17  19
ENDBRANCH  13  14
ENDBRANCH   2  13
TORSDOF 5
ENDMDL
MODEL 9
REMARK VINA RESULT:      -6.6      3.716      7.362
REMARK  Name = 
REMARK  6 active torsions:
REMARK  status: ('A' for Active; 'I' for Inactive)
REMARK    1  A    between atoms: C_1  and  C_2
REMARK    2  A    between atoms: C_2  and  C_17
REMARK    3  A    between atoms: N_3  and  N_4
REMARK    4  A    between atoms: C_5  and  C_7
REMARK    5  A    between atoms: C_7  and  N_8
REMARK    6  A    between atoms: C_11  and  C_12
REMARK                            x       y       z     vdW  Elec       q    Type
REMARK                         _______ _______ _______ _____ _____    ______ ____
ROOT
ATOM      1  N   UNL     1       5.418   3.666  16.830  0.00  0.00    +0.000 N 
ATOM      2  C   UNL     1       5.633   4.903  16.228  0.00  0.00    +0.000 C 
ATOM      3  O   UNL     1       4.845   5.850  16.286  0.00  0.00    +0.000 OA
ATOM      4  H   UNL     1       6.137   2.954  16.815  0.00  0.00    +0.000 HD
ENDROOT
BRANCH   1   7
ATOM      5  C   UNL     1       5.256   4.554  19.605  0.00  0.00    +0.000 C 
ATOM      6  C   UNL     1       4.175   3.882  18.788  0.00  0.00    +0.000 C 
ATOM      7  N   UNL     1       4.277   3.480  17.555  0.00  0.00    +0.000 NA
BRANCH   6   8
ATOM      8  C   UNL     1       2.906   3.665  19.460  0.00  0.00    +0.000 A 
ATOM      9  C   UNL     1       1.615   4.038  19.130  0.00  0.00    +0.000 A 
ATOM     10  C   UNL     1       0.776   3.570  20.169  0.00  0.00    +0.000 A 
ATOM     11  C   UNL     1       1.598   2.937  21.068  0.00  0.00    +0.000 A 
ATOM     12  O   UNL     1       2.889   2.985  20.648  0.00  0.00    +0.000 OA
ENDBRANCH   6   8
ENDBRANCH   1   7
BRANCH   2  13
ATOM     13  C   UNL     1       6.913   4.988  15.430  0.00  0.00    +0.000 C 
BRANCH  13  14
ATOM     14  N   UNL     1       6.729   4.564  14.054  0.00  0.00    +0.000 N 
ATOM     15  C   UNL     1       7.594   4.727  13.012  0.00  0.00    +0.000 A 
ATOM     16  C   UNL     1       6.968   4.208  11.906  0.00  0.00    +0.000 A 
ATOM     17  C   UNL     1       5.694   3.773  12.361  0.00  0.00    +0.000 A 
ATOM     18  N   UNL     1       5.549   4.021  13.682  0.00  0.00    +0.000 NA
BRANCH  17  19
ATOM     19  C   UNL     1       4.623   3.113  11.532  0.00  0.00    +0.000 C 
ATOM     20  F   UNL     1       4.302   3.852  10.433  0.00  0.00    +0.000 F 
ATOM     21  F   UNL     1       5.004   1.891  11.072  0.00  0.00    +0.000 F 
ATOM     22  F   UNL     1       3.465   2.933  12.222  0.00  0.00    +0.000 F 
ENDBRANCH  17  19
ENDBRANCH  13  14
ENDBRANCH   2  13
TORSDOF 5
ENDMDL
