MODEL 1
REMARK VINA RESULT:      -7.2      0.000      0.000
REMARK  Name = 
REMARK  5 active torsions:
REMARK  status: ('A' for Active; 'I' for Inactive)
REMARK    1  A    between atoms: C_1  and  O_2
REMARK    2  A    between atoms: O_2  and  C_3
REMARK    3  A    between atoms: N_12  and  C_13
REMARK    4  A    between atoms: C_13  and  C_14
REMARK    5  A    between atoms: N_22  and  C_23
REMARK                            x       y       z     vdW  Elec       q    Type
REMARK                         _______ _______ _______ _____ _____    ______ ____
ROOT
ATOM      1  C   UNL     1       1.111   9.029  19.893  0.00  0.00    +0.000 A 
ATOM      2  C   UNL     1       0.824   8.101  20.893  0.00  0.00    +0.000 A 
ATOM      3  C   UNL     1       1.413   6.832  20.894  0.00  0.00    +0.000 A 
ATOM      4  C   UNL     1       2.304   6.511  19.859  0.00  0.00    +0.000 A 
ATOM      5  C   UNL     1       2.615   7.424  18.843  0.00  0.00    +0.000 A 
ATOM      6  C   UNL     1       2.008   8.696  18.868  0.00  0.00    +0.000 A 
ATOM      7  C   UNL     1       3.528   6.756  17.993  0.00  0.00    +0.000 A 
ATOM      8  N   UNL     1       4.111   7.253  16.824  0.00  0.00    +0.000 NA
ATOM      9  C   UNL     1       4.911   6.410  16.244  0.00  0.00    +0.000 A 
ATOM     10  N   UNL     1       5.226   5.124  16.659  0.00  0.00    +0.000 N 
ATOM     11  C   UNL     1       4.668   4.589  17.817  0.00  0.00    +0.000 A 
ATOM     12  O   UNL     1       4.925   3.459  18.219  0.00  0.00    +0.000 OA
ATOM     13  C   UNL     1       3.773   5.498  18.475  0.00  0.00    +0.000 A 
ATOM     14  N   UNL     1       3.013   5.343  19.602  0.00  0.00    +0.000 N 
ATOM     15  C   UNL     1       2.896   4.157  20.422  0.00  0.00    +0.000 C 
ENDROOT
BRANCH   1  17
ATOM     16  C   UNL     1      -0.717  10.401  19.232  0.00  0.00    +0.000 C 
ATOM     17  O   UNL     1       0.579  10.291  19.809  0.00  0.00    +0.000 OA
ENDBRANCH   1  17
BRANCH  10  18
ATOM     18  C   UNL     1       6.112   4.284  15.855  0.00  0.00    +0.000 C 
BRANCH  18  19
ATOM     19  C   UNL     1       6.294   4.730  14.396  0.00  0.00    +0.000 C 
ATOM     20  C   UNL     1       6.235   3.654  13.326  0.00  0.00    +0.000 C 
ATOM     21  C   UNL     1       6.995   4.293  12.189  0.00  0.00    +0.000 C 
ATOM     22  C   UNL     1       8.043   5.122  12.904  0.00  0.00    +0.000 C 
ATOM     23  O   UNL     1       7.549   5.409  14.222  0.00  0.00    +0.000 OA
ENDBRANCH  18  19
ENDBRANCH  10  18
TORSDOF 3
ENDMDL
MODEL 2
REMARK VINA RESULT:      -7.1      1.579      7.581
REMARK  Name = 
REMARK  5 active torsions:
REMARK  status: ('A' for Active; 'I' for Inactive)
REMARK    1  A    between atoms: C_1  and  O_2
REMARK    2  A    between atoms: O_2  and  C_3
REMARK    3  A    between atoms: N_12  and  C_13
REMARK    4  A    between atoms: C_13  and  C_14
REMARK    5  A    between atoms: N_22  and  C_23
REMARK                            x       y       z     vdW  Elec       q    Type
REMARK                         _______ _______ _______ _____ _____    ______ ____
ROOT
ATOM      1  C   UNL     1       5.766   5.380  15.753  0.00  0.00    +0.000 A 
ATOM      2  C   UNL     1       5.797   4.282  16.610  0.00  0.00    +0.000 A 
ATOM      3  C   UNL     1       5.029   4.255  17.780  0.00  0.00    +0.000 A 
ATOM      4  C   UNL     1       4.223   5.365  18.073  0.00  0.00    +0.000 A 
ATOM      5  C   UNL     1       4.169   6.482  17.229  0.00  0.00    +0.000 A 
ATOM      6  C   UNL     1       4.952   6.481  16.056  0.00  0.00    +0.000 A 
ATOM      7  C   UNL     1       3.270   7.384  17.843  0.00  0.00    +0.000 A 
ATOM      8  N   UNL     1       2.904   8.654  17.385  0.00  0.00    +0.000 NA
ATOM      9  C   UNL     1       2.058   9.261  18.162  0.00  0.00    +0.000 A 
ATOM     10  N   UNL     1       1.510   8.788  19.346  0.00  0.00    +0.000 N 
ATOM     11  C   UNL     1       1.847   7.530  19.838  0.00  0.00    +0.000 A 
ATOM     12  O   UNL     1       1.381   7.075  20.878  0.00  0.00    +0.000 OA
ATOM     13  C   UNL     1       2.787   6.839  19.002  0.00  0.00    +0.000 A 
ATOM     14  N   UNL     1       3.382   5.616  19.151  0.00  0.00    +0.000 N 
ATOM     15  C   UNL     1       3.227   4.696  20.256  0.00  0.00    +0.000 C 
ENDROOT
BRANCH   1  17
ATOM     16  C   UNL     1       6.605   4.326  13.791  0.00  0.00    +0.000 C 
ATOM     17  O   UNL     1       6.486   5.497  14.591  0.00  0.00    +0.000 OA
ENDBRANCH   1  17
BRANCH  10  18
ATOM     18  C   UNL     1       0.606   9.629  20.129  0.00  0.00    +0.000 C 
BRANCH  18  19
ATOM     19  C   UNL     1      -0.129  10.719  19.336  0.00  0.00    +0.000 C 
ATOM     20  C   UNL     1      -0.690  11.894  20.120  0.00  0.00    +0.000 C 
ATOM     21  C   UNL     1      -1.773  12.403  19.200  0.00  0.00    +0.000 C 
ATOM     22  C   UNL     1      -2.282  11.137  18.540  0.00  0.00    +0.000 C 
ATOM     23  O   UNL     1      -1.230  10.161  18.597  0.00  0.00    +0.000 OA
ENDBRANCH  18  19
ENDBRANCH  10  18
TORSDOF 3
ENDMDL
MODEL 3
REMARK VINA RESULT:      -7.0      1.886      7.475
REMARK  Name = 
REMARK  5 active torsions:
REMARK  status: ('A' for Active; 'I' for Inactive)
REMARK    1  A    between atoms: C_1  and  O_2
REMARK    2  A    between atoms: O_2  and  C_3
REMARK    3  A    between atoms: N_12  and  C_13
REMARK    4  A    between atoms: C_13  and  C_14
REMARK    5  A    between atoms: N_22  and  C_23
REMARK                            x       y       z     vdW  Elec       q    Type
REMARK                         _______ _______ _______ _____ _____    ______ ____
ROOT
ATOM      1  C   UNL     1       5.041   4.355  16.684  0.00  0.00    +0.000 A 
ATOM      2  C   UNL     1       4.797   3.460  17.724  0.00  0.00    +0.000 A 
ATOM      3  C   UNL     1       3.988   3.815  18.809  0.00  0.00    +0.000 A 
ATOM      4  C   UNL     1       3.425   5.100  18.828  0.00  0.00    +0.000 A 
ATOM      5  C   UNL     1       3.650   6.020  17.796  0.00  0.00    +0.000 A 
ATOM      6  C   UNL     1       4.468   5.635  16.713  0.00  0.00    +0.000 A 
ATOM      7  C   UNL     1       2.936   7.186  18.158  0.00  0.00    +0.000 A 
ATOM      8  N   UNL     1       2.872   8.390  17.450  0.00  0.00    +0.000 NA
ATOM      9  C   UNL     1       2.140   9.294  18.030  0.00  0.00    +0.000 A 
ATOM     10  N   UNL     1       1.449   9.179  19.228  0.00  0.00    +0.000 N 
ATOM     11  C   UNL     1       1.487   7.998  19.965  0.00  0.00    +0.000 A 
ATOM     12  O   UNL     1       0.887   7.857  21.026  0.00  0.00    +0.000 OA
ATOM     13  C   UNL     1       2.295   6.984  19.351  0.00  0.00    +0.000 A 
ATOM     14  N   UNL     1       2.608   5.719  19.767  0.00  0.00    +0.000 N 
ATOM     15  C   UNL     1       2.209   5.080  21.002  0.00  0.00    +0.000 C 
ENDROOT
BRANCH   1  17
ATOM     16  C   UNL     1       7.083   4.756  15.529  0.00  0.00    +0.000 C 
ATOM     17  O   UNL     1       5.823   4.098  15.586  0.00  0.00    +0.000 OA
ENDBRANCH   1  17
BRANCH  10  18
ATOM     18  C   UNL     1       0.711  10.319  19.767  0.00  0.00    +0.000 C 
BRANCH  18  19
ATOM     19  C   UNL     1      -0.795  10.330  19.463  0.00  0.00    +0.000 C 
ATOM     20  C   UNL     1      -1.218  10.057  18.029  0.00  0.00    +0.000 C 
ATOM     21  C   UNL     1      -2.585  10.696  17.973  0.00  0.00    +0.000 C 
ATOM     22  C   UNL     1      -2.444  11.883  18.905  0.00  0.00    +0.000 C 
ATOM     23  O   UNL     1      -1.381  11.592  19.827  0.00  0.00    +0.000 OA
ENDBRANCH  18  19
ENDBRANCH  10  18
TORSDOF 3
ENDMDL
MODEL 4
REMARK VINA RESULT:      -7.0      2.448      3.726
REMARK  Name = 
REMARK  5 active torsions:
REMARK  status: ('A' for Active; 'I' for Inactive)
REMARK    1  A    between atoms: C_1  and  O_2
REMARK    2  A    between atoms: O_2  and  C_3
REMARK    3  A    between atoms: N_12  and  C_13
REMARK    4  A    between atoms: C_13  and  C_14
REMARK    5  A    between atoms: N_22  and  C_23
REMARK                            x       y       z     vdW  Elec       q    Type
REMARK                         _______ _______ _______ _____ _____    ______ ____
ROOT
ATOM      1  C   UNL     1       1.958   4.450  20.931  0.00  0.00    +0.000 A 
ATOM      2  C   UNL     1       1.563   5.787  20.914  0.00  0.00    +0.000 A 
ATOM      3  C   UNL     1       2.009   6.660  19.915  0.00  0.00    +0.000 A 
ATOM      4  C   UNL     1       2.868   6.159  18.926  0.00  0.00    +0.000 A 
ATOM      5  C   UNL     1       3.279   4.820  18.916  0.00  0.00    +0.000 A 
ATOM      6  C   UNL     1       2.813   3.962  19.933  0.00  0.00    +0.000 A 
ATOM      7  C   UNL     1       4.128   4.688  17.792  0.00  0.00    +0.000 A 
ATOM      8  N   UNL     1       4.802   3.537  17.374  0.00  0.00    +0.000 NA
ATOM      9  C   UNL     1       5.519   3.714  16.305  0.00  0.00    +0.000 A 
ATOM     10  N   UNL     1       5.667   4.884  15.574  0.00  0.00    +0.000 N 
ATOM     11  C   UNL     1       5.015   6.054  15.955  0.00  0.00    +0.000 A 
ATOM     12  O   UNL     1       5.118   7.106  15.333  0.00  0.00    +0.000 OA
ATOM     13  C   UNL     1       4.221   5.888  17.139  0.00  0.00    +0.000 A 
ATOM     14  N   UNL     1       3.468   6.788  17.841  0.00  0.00    +0.000 N 
ATOM     15  C   UNL     1       3.308   8.199  17.566  0.00  0.00    +0.000 C 
ENDROOT
BRANCH   1  17
ATOM     16  C   UNL     1       2.112   2.214  21.729  0.00  0.00    +0.000 C 
ATOM     17  O   UNL     1       1.577   3.525  21.869  0.00  0.00    +0.000 OA
ENDBRANCH   1  17
BRANCH  10  18
ATOM     18  C   UNL     1       6.560   4.924  14.417  0.00  0.00    +0.000 C 
BRANCH  18  19
ATOM     19  C   UNL     1       6.397   3.765  13.422  0.00  0.00    +0.000 C 
ATOM     20  C   UNL     1       7.128   3.877  12.095  0.00  0.00    +0.000 C 
ATOM     21  C   UNL     1       6.327   2.953  11.210  0.00  0.00    +0.000 C 
ATOM     22  C   UNL     1       4.917   3.111  11.742  0.00  0.00    +0.000 C 
ATOM     23  O   UNL     1       5.010   3.553  13.106  0.00  0.00    +0.000 OA
ENDBRANCH  18  19
ENDBRANCH  10  18
TORSDOF 3
ENDMDL
MODEL 5
REMARK VINA RESULT:      -6.8      1.594      2.291
REMARK  Name = 
REMARK  5 active torsions:
REMARK  status: ('A' for Active; 'I' for Inactive)
REMARK    1  A    between atoms: C_1  and  O_2
REMARK    2  A    between atoms: O_2  and  C_3
REMARK    3  A    between atoms: N_12  and  C_13
REMARK    4  A    between atoms: C_13  and  C_14
REMARK    5  A    between atoms: N_22  and  C_23
REMARK                            x       y       z     vdW  Elec       q    Type
REMARK                         _______ _______ _______ _____ _____    ______ ____
ROOT
ATOM      1  C   UNL     1       1.722   6.488  20.540  0.00  0.00    +0.000 A 
ATOM      2  C   UNL     1       1.612   5.162  20.955  0.00  0.00    +0.000 A 
ATOM      3  C   UNL     1       2.283   4.136  20.281  0.00  0.00    +0.000 A 
ATOM      4  C   UNL     1       3.073   4.472  19.172  0.00  0.00    +0.000 A 
ATOM      5  C   UNL     1       3.205   5.796  18.734  0.00  0.00    +0.000 A 
ATOM      6  C   UNL     1       2.519   6.811  19.433  0.00  0.00    +0.000 A 
ATOM      7  C   UNL     1       4.061   5.746  17.609  0.00  0.00    +0.000 A 
ATOM      8  N   UNL     1       4.473   6.818  16.813  0.00  0.00    +0.000 NA
ATOM      9  C   UNL     1       5.260   6.470  15.839  0.00  0.00    +0.000 A 
ATOM     10  N   UNL     1       5.707   5.192  15.533  0.00  0.00    +0.000 N 
ATOM     11  C   UNL     1       5.319   4.096  16.297  0.00  0.00    +0.000 A 
ATOM     12  O   UNL     1       5.697   2.952  16.061  0.00  0.00    +0.000 OA
ATOM     13  C   UNL     1       4.444   4.451  17.377  0.00  0.00    +0.000 A 
ATOM     14  N   UNL     1       3.827   3.674  18.319  0.00  0.00    +0.000 N 
ATOM     15  C   UNL     1       3.885   2.233  18.439  0.00  0.00    +0.000 C 
ENDROOT
BRANCH   1  17
ATOM     16  C   UNL     1       1.165   8.800  20.445  0.00  0.00    +0.000 C 
ATOM     17  O   UNL     1       1.098   7.556  21.134  0.00  0.00    +0.000 OA
ENDBRANCH   1  17
BRANCH  10  18
ATOM     18  C   UNL     1       6.552   4.968  14.361  0.00  0.00    +0.000 C 
BRANCH  18  19
ATOM     19  C   UNL     1       6.162   3.764  13.491  0.00  0.00    +0.000 C 
ATOM     20  C   UNL     1       6.980   3.518  12.235  0.00  0.00    +0.000 C 
ATOM     21  C   UNL     1       6.027   2.711  11.386  0.00  0.00    +0.000 C 
ATOM     22  C   UNL     1       4.674   3.279  11.762  0.00  0.00    +0.000 C 
ATOM     23  O   UNL     1       4.790   3.860  13.071  0.00  0.00    +0.000 OA
ENDBRANCH  18  19
ENDBRANCH  10  18
TORSDOF 3
ENDMDL
MODEL 6
REMARK VINA RESULT:      -6.8      2.078      7.426
REMARK  Name = 
REMARK  5 active torsions:
REMARK  status: ('A' for Active; 'I' for Inactive)
REMARK    1  A    between atoms: C_1  and  O_2
REMARK    2  A    between atoms: O_2  and  C_3
REMARK    3  A    between atoms: N_12  and  C_13
REMARK    4  A    between atoms: C_13  and  C_14
REMARK    5  A    between atoms: N_22  and  C_23
REMARK                            x       y       z     vdW  Elec       q    Type
REMARK                         _______ _______ _______ _____ _____    ______ ____
ROOT
ATOM      1  C   UNL     1       4.972   4.321  16.692  0.00  0.00    +0.000 A 
ATOM      2  C   UNL     1       4.758   3.453  17.762  0.00  0.00    +0.000 A 
ATOM      3  C   UNL     1       3.983   3.838  18.862  0.00  0.00    +0.000 A 
ATOM      4  C   UNL     1       3.425   5.125  18.866  0.00  0.00    +0.000 A 
ATOM      5  C   UNL     1       3.620   6.017  17.804  0.00  0.00    +0.000 A 
ATOM      6  C   UNL     1       4.403   5.602  16.707  0.00  0.00    +0.000 A 
ATOM      7  C   UNL     1       2.921   7.195  18.158  0.00  0.00    +0.000 A 
ATOM      8  N   UNL     1       2.838   8.381  17.423  0.00  0.00    +0.000 NA
ATOM      9  C   UNL     1       2.127   9.302  18.002  0.00  0.00    +0.000 A 
ATOM     10  N   UNL     1       1.473   9.219  19.223  0.00  0.00    +0.000 N 
ATOM     11  C   UNL     1       1.531   8.058  19.988  0.00  0.00    +0.000 A 
ATOM     12  O   UNL     1       0.964   7.945  21.070  0.00  0.00    +0.000 OA
ATOM     13  C   UNL     1       2.317   7.026  19.375  0.00  0.00    +0.000 A 
ATOM     14  N   UNL     1       2.639   5.770  19.814  0.00  0.00    +0.000 N 
ATOM     15  C   UNL     1       2.277   5.165  21.077  0.00  0.00    +0.000 C 
ENDROOT
BRANCH   1  17
ATOM     16  C   UNL     1       6.987   4.668  15.475  0.00  0.00    +0.000 C 
ATOM     17  O   UNL     1       5.718   4.033  15.578  0.00  0.00    +0.000 OA
ENDBRANCH   1  17
BRANCH  10  18
ATOM     18  C   UNL     1       0.755  10.376  19.755  0.00  0.00    +0.000 C 
BRANCH  18  19
ATOM     19  C   UNL     1       0.882  11.665  18.929  0.00  0.00    +0.000 C 
ATOM     20  C   UNL     1       1.686  12.803  19.533  0.00  0.00    +0.000 C 
ATOM     21  C   UNL     1       1.135  14.005  18.804  0.00  0.00    +0.000 C 
ATOM     22  C   UNL     1      -0.319  13.636  18.590  0.00  0.00    +0.000 C 
ATOM     23  O   UNL     1      -0.416  12.203  18.619  0.00  0.00    +0.000 OA
ENDBRANCH  18  19
ENDBRANCH  10  18
TORSDOF 3
ENDMDL
MODEL 7
REMARK VINA RESULT:      -6.7      4.605     10.353
REMARK  Name = 
REMARK  5 active torsions:
REMARK  status: ('A' for Active; 'I' for Inactive)
REMARK    1  A    between atoms: C_1  and  O_2
REMARK    2  A    between atoms: O_2  and  C_3
REMARK    3  A    between atoms: N_12  and  C_13
REMARK    4  A    between atoms: C_13  and  C_14
REMARK    5  A    between atoms: N_22  and  C_23
REMARK                            x       y       z     vdW  Elec       q    Type
REMARK                         _______ _______ _______ _____ _____    ______ ____
ROOT
ATOM      1  C   UNL     1       2.375   6.692  19.704  0.00  0.00    +0.000 A 
ATOM      2  C   UNL     1       2.564   7.389  18.512  0.00  0.00    +0.000 A 
ATOM      3  C   UNL     1       2.049   8.678  18.338  0.00  0.00    +0.000 A 
ATOM      4  C   UNL     1       1.334   9.259  19.396  0.00  0.00    +0.000 A 
ATOM      5  C   UNL     1       1.132   8.584  20.607  0.00  0.00    +0.000 A 
ATOM      6  C   UNL     1       1.663   7.286  20.756  0.00  0.00    +0.000 A 
ATOM      7  C   UNL     1       0.378   9.466  21.417  0.00  0.00    +0.000 A 
ATOM      8  N   UNL     1      -0.088   9.231  22.713  0.00  0.00    +0.000 NA
ATOM      9  C   UNL     1      -0.761  10.226  23.211  0.00  0.00    +0.000 A 
ATOM     10  N   UNL     1      -1.042  11.441  22.604  0.00  0.00    +0.000 N 
ATOM     11  C   UNL     1      -0.598  11.716  21.313  0.00  0.00    +0.000 A 
ATOM     12  O   UNL     1      -0.823  12.780  20.744  0.00  0.00    +0.000 OA
ATOM     13  C   UNL     1       0.142  10.631  20.736  0.00  0.00    +0.000 A 
ATOM     14  N   UNL     1       0.709  10.496  19.498  0.00  0.00    +0.000 N 
ATOM     15  C   UNL     1       0.668  11.447  18.409  0.00  0.00    +0.000 C 
ENDROOT
BRANCH   1  17
ATOM     16  C   UNL     1       2.055   4.627  20.842  0.00  0.00    +0.000 C 
ATOM     17  O   UNL     1       2.837   5.426  19.962  0.00  0.00    +0.000 OA
ENDBRANCH   1  17
BRANCH  10  18
ATOM     18  C   UNL     1      -1.862  12.437  23.291  0.00  0.00    +0.000 C 
BRANCH  18  19
ATOM     19  C   UNL     1      -3.375  12.322  23.049  0.00  0.00    +0.000 C 
ATOM     20  C   UNL     1      -4.077  13.525  22.442  0.00  0.00    +0.000 C 
ATOM     21  C   UNL     1      -5.507  13.313  22.878  0.00  0.00    +0.000 C 
ATOM     22  C   UNL     1      -5.355  12.658  24.236  0.00  0.00    +0.000 C 
ATOM     23  O   UNL     1      -4.067  12.022  24.274  0.00  0.00    +0.000 OA
ENDBRANCH  18  19
ENDBRANCH  10  18
TORSDOF 3
ENDMDL
MODEL 8
REMARK VINA RESULT:      -6.6      3.562      5.363
REMARK  Name = 
REMARK  5 active torsions:
REMARK  status: ('A' for Active; 'I' for Inactive)
REMARK    1  A    between atoms: C_1  and  O_2
REMARK    2  A    between atoms: O_2  and  C_3
REMARK    3  A    between atoms: N_12  and  C_13
REMARK    4  A    between atoms: C_13  and  C_14
REMARK    5  A    between atoms: N_22  and  C_23
REMARK                            x       y       z     vdW  Elec       q    Type
REMARK                         _______ _______ _______ _____ _____    ______ ____
ROOT
ATOM      1  C   UNL     1      -0.685  10.891  22.287  0.00  0.00    +0.000 A 
ATOM      2  C   UNL     1      -0.495  11.856  21.299  0.00  0.00    +0.000 A 
ATOM      3  C   UNL     1       0.245  11.573  20.145  0.00  0.00    +0.000 A 
ATOM      4  C   UNL     1       0.796  10.291  20.004  0.00  0.00    +0.000 A 
ATOM      5  C   UNL     1       0.619   9.301  20.979  0.00  0.00    +0.000 A 
ATOM      6  C   UNL     1      -0.133   9.612  22.131  0.00  0.00    +0.000 A 
ATOM      7  C   UNL     1       1.309   8.162  20.500  0.00  0.00    +0.000 A 
ATOM      8  N   UNL     1       1.438   6.924  21.135  0.00  0.00    +0.000 NA
ATOM      9  C   UNL     1       2.136   6.063  20.457  0.00  0.00    +0.000 A 
ATOM     10  N   UNL     1       2.734   6.251  19.219  0.00  0.00    +0.000 N 
ATOM     11  C   UNL     1       2.631   7.468  18.552  0.00  0.00    +0.000 A 
ATOM     12  O   UNL     1       3.142   7.671  17.455  0.00  0.00    +0.000 OA
ATOM     13  C   UNL     1       1.871   8.441  19.282  0.00  0.00    +0.000 A 
ATOM     14  N   UNL     1       1.573   9.744  18.990  0.00  0.00    +0.000 N 
ATOM     15  C   UNL     1       2.001  10.501  17.834  0.00  0.00    +0.000 C 
ENDROOT
BRANCH   1  17
ATOM     16  C   UNL     1      -2.532  11.923  23.378  0.00  0.00    +0.000 C 
ATOM     17  O   UNL     1      -1.388  11.079  23.450  0.00  0.00    +0.000 OA
ENDBRANCH   1  17
BRANCH  10  18
ATOM     18  C   UNL     1       3.534   5.185  18.617  0.00  0.00    +0.000 C 
BRANCH  18  19
ATOM     19  C   UNL     1       2.834   3.822  18.505  0.00  0.00    +0.000 C 
ATOM     20  C   UNL     1       1.359   3.823  18.139  0.00  0.00    +0.000 C 
ATOM     21  C   UNL     1       0.897   2.489  18.675  0.00  0.00    +0.000 C 
ATOM     22  C   UNL     1       1.757   2.302  19.908  0.00  0.00    +0.000 C 
ATOM     23  O   UNL     1       2.948   3.087  19.736  0.00  0.00    +0.000 OA
ENDBRANCH  18  19
ENDBRANCH  10  18
TORSDOF 3
ENDMDL
MODEL 9
REMARK VINA RESULT:      -6.5      2.605      3.945
REMARK  Name = 
REMARK  5 active torsions:
REMARK  status: ('A' for Active; 'I' for Inactive)
REMARK    1  A    between atoms: C_1  and  O_2
REMARK    2  A    between atoms: O_2  and  C_3
REMARK    3  A    between atoms: N_12  and  C_13
REMARK    4  A    between atoms: C_13  and  C_14
REMARK    5  A    between atoms: N_22  and  C_23
REMARK                            x       y       z     vdW  Elec       q    Type
REMARK                         _______ _______ _______ _____ _____    ______ ____
ROOT
ATOM      1  C   UNL     1       2.730   3.787  20.784  0.00  0.00    +0.000 A 
ATOM      2  C   UNL     1       2.166   5.061  20.823  0.00  0.00    +0.000 A 
ATOM      3  C   UNL     1       2.443   6.005  19.828  0.00  0.00    +0.000 A 
ATOM      4  C   UNL     1       3.307   5.641  18.785  0.00  0.00    +0.000 A 
ATOM      5  C   UNL     1       3.886   4.367  18.718  0.00  0.00    +0.000 A 
ATOM      6  C   UNL     1       3.588   3.434  19.733  0.00  0.00    +0.000 A 
ATOM      7  C   UNL     1       4.686   4.369  17.551  0.00  0.00    +0.000 A 
ATOM      8  N   UNL     1       5.480   3.324  17.070  0.00  0.00    +0.000 NA
ATOM      9  C   UNL     1       6.111   3.615  15.972  0.00  0.00    +0.000 A 
ATOM     10  N   UNL     1       6.069   4.810  15.267  0.00  0.00    +0.000 N 
ATOM     11  C   UNL     1       5.293   5.876  15.711  0.00  0.00    +0.000 A 
ATOM     12  O   UNL     1       5.227   6.946  15.113  0.00  0.00    +0.000 OA
ATOM     13  C   UNL     1       4.589   5.584  16.927  0.00  0.00    +0.000 A 
ATOM     14  N   UNL     1       3.763   6.364  17.690  0.00  0.00    +0.000 N 
ATOM     15  C   UNL     1       3.410   7.748  17.461  0.00  0.00    +0.000 C 
ENDROOT
BRANCH   1  17
ATOM     16  C   UNL     1       1.167   2.479  22.013  0.00  0.00    +0.000 C 
ATOM     17  O   UNL     1       2.521   2.801  21.715  0.00  0.00    +0.000 OA
ENDBRANCH   1  17
BRANCH  10  18
ATOM     18  C   UNL     1       6.888   4.989  14.069  0.00  0.00    +0.000 C 
BRANCH  18  19
ATOM     19  C   UNL     1       6.302   4.396  12.779  0.00  0.00    +0.000 C 
ATOM     20  C   UNL     1       4.940   3.731  12.873  0.00  0.00    +0.000 C 
ATOM     21  C   UNL     1       4.952   2.808  11.678  0.00  0.00    +0.000 C 
ATOM     22  C   UNL     1       6.407   2.397  11.581  0.00  0.00    +0.000 C 
ATOM     23  O   UNL     1       7.194   3.419  12.214  0.00  0.00    +0.000 OA
ENDBRANCH  18  19
ENDBRANCH  10  18
TORSDOF 3
ENDMDL
