MODEL 1
REMARK VINA RESULT:      -8.5      0.000      0.000
REMARK  Name = 
REMARK  7 active torsions:
REMARK  status: ('A' for Active; 'I' for Inactive)
REMARK    1  A    between atoms: C_1  and  C_2
REMARK    2  A    between atoms: C_9  and  O_10
REMARK    3  A    between atoms: O_10  and  C_11
REMARK    4  A    between atoms: C_11  and  C_12
REMARK    5  A    between atoms: C_12  and  C_13
REMARK    6  A    between atoms: C_13  and  N_14
REMARK    7  A    between atoms: N_17  and  C_18
REMARK                            x       y       z     vdW  Elec       q    Type
REMARK                         _______ _______ _______ _____ _____    ______ ____
ROOT
ATOM      1  C   UNL     1       8.830   8.720  18.675  0.00  0.00    +0.000 C 
ENDROOT
BRANCH   1   2
ATOM      2  C   UNL     1       7.812   8.709  17.536  0.00  0.00    +0.000 C 
BRANCH   2   3
ATOM      3  O   UNL     1       7.772   7.403  16.957  0.00  0.00    +0.000 OA
BRANCH   3  12
ATOM      4  C   UNL     1       1.762   4.916  17.861  0.00  0.00    +0.000 C 
ATOM      5  C   UNL     1       3.113   4.470  18.335  0.00  0.00    +0.000 A 
ATOM      6  C   UNL     1       3.250   3.381  19.113  0.00  0.00    +0.000 A 
ATOM      7  C   UNL     1       4.570   2.906  19.584  0.00  0.00    +0.000 A 
ATOM      8  O   UNL     1       4.666   1.912  20.294  0.00  0.00    +0.000 OA
ATOM      9  N   UNL     1       5.657   3.625  19.183  0.00  0.00    +0.000 N 
ATOM     10  C   UNL     1       5.576   4.775  18.390  0.00  0.00    +0.000 A 
ATOM     11  C   UNL     1       6.756   5.453  18.067  0.00  0.00    +0.000 A 
ATOM     12  C   UNL     1       6.701   6.622  17.306  0.00  0.00    +0.000 A 
ATOM     13  C   UNL     1       5.462   7.080  16.857  0.00  0.00    +0.000 A 
ATOM     14  C   UNL     1       4.283   6.392  17.170  0.00  0.00    +0.000 A 
ATOM     15  C   UNL     1       4.323   5.231  17.950  0.00  0.00    +0.000 A 
ATOM     16  H   UNL     1       6.553   3.288  19.513  0.00  0.00    +0.000 HD
ENDBRANCH   3  12
ENDBRANCH   2   3
ENDBRANCH   1   2
BRANCH   1  17
ATOM     17  C   UNL     1       8.790  10.032  19.479  0.00  0.00    +0.000 C 
BRANCH  17  18
ATOM     18  N   UNL     1      10.076  10.740  19.479  0.00  0.00    +0.000 NA
ATOM     19  C   UNL     1      10.513  11.175  18.134  0.00  0.00    +0.000 C 
ATOM     20  C   UNL     1       9.808  12.422  17.562  0.00  0.00    +0.000 C 
ATOM     21  N   UNL     1       9.860  13.534  18.517  0.00  0.00    +0.000 N 
ATOM     22  C   UNL     1       9.400  13.193  19.872  0.00  0.00    +0.000 C 
ATOM     23  C   UNL     1      10.093  11.908  20.391  0.00  0.00    +0.000 C 
BRANCH  21  24
ATOM     24  C   UNL     1      10.451  14.750  18.183  0.00  0.00    +0.000 A 
ATOM     25  C   UNL     1      11.694  14.774  17.507  0.00  0.00    +0.000 A 
ATOM     26  C   UNL     1      12.333  15.949  17.127  0.00  0.00    +0.000 A 
ATOM     27  C   UNL     1      11.749  17.179  17.392  0.00  0.00    +0.000 A 
ATOM     28  C   UNL     1      10.515  17.204  18.059  0.00  0.00    +0.000 A 
ATOM     29  S   UNL     1       9.621  18.628  18.451  0.00  0.00    +0.000 S 
ATOM     30  C   UNL     1       8.400  17.739  19.224  0.00  0.00    +0.000 A 
ATOM     31  C   UNL     1       8.667  16.391  19.207  0.00  0.00    +0.000 A 
ATOM     32  C   UNL     1       9.864  16.033  18.476  0.00  0.00    +0.000 A 
ENDBRANCH  21  24
ENDBRANCH  17  18
ENDBRANCH   1  17
TORSDOF 6
ENDMDL
MODEL 2
REMARK VINA RESULT:      -8.5      4.151     11.729
REMARK  Name = 
REMARK  7 active torsions:
REMARK  status: ('A' for Active; 'I' for Inactive)
REMARK    1  A    between atoms: C_1  and  C_2
REMARK    2  A    between atoms: C_9  and  O_10
REMARK    3  A    between atoms: O_10  and  C_11
REMARK    4  A    between atoms: C_11  and  C_12
REMARK    5  A    between atoms: C_12  and  C_13
REMARK    6  A    between atoms: C_13  and  N_14
REMARK    7  A    between atoms: N_17  and  C_18
REMARK                            x       y       z     vdW  Elec       q    Type
REMARK                         _______ _______ _______ _____ _____    ______ ____
ROOT
ATOM      1  C   UNL     1       8.429   8.168  18.236  0.00  0.00    +0.000 C 
ENDROOT
BRANCH   1   2
ATOM      2  C   UNL     1       8.471   9.682  18.437  0.00  0.00    +0.000 C 
BRANCH   2   3
ATOM      3  O   UNL     1       9.575  10.011  19.283  0.00  0.00    +0.000 OA
BRANCH   3  12
ATOM      4  C   UNL     1      12.323  15.609  17.223  0.00  0.00    +0.000 C 
ATOM      5  C   UNL     1      11.751  15.201  18.548  0.00  0.00    +0.000 A 
ATOM      6  C   UNL     1      11.760  16.044  19.596  0.00  0.00    +0.000 A 
ATOM      7  C   UNL     1      11.190  15.679  20.911  0.00  0.00    +0.000 A 
ATOM      8  O   UNL     1      11.214  16.465  21.850  0.00  0.00    +0.000 OA
ATOM      9  N   UNL     1      10.641  14.435  21.015  0.00  0.00    +0.000 N 
ATOM     10  C   UNL     1      10.618  13.508  19.967  0.00  0.00    +0.000 A 
ATOM     11  C   UNL     1      10.056  12.247  20.196  0.00  0.00    +0.000 A 
ATOM     12  C   UNL     1      10.052  11.293  19.179  0.00  0.00    +0.000 A 
ATOM     13  C   UNL     1      10.587  11.625  17.934  0.00  0.00    +0.000 A 
ATOM     14  C   UNL     1      11.136  12.893  17.702  0.00  0.00    +0.000 A 
ATOM     15  C   UNL     1      11.166  13.852  18.721  0.00  0.00    +0.000 A 
ATOM     16  H   UNL     1      10.254  14.199  21.920  0.00  0.00    +0.000 HD
ENDBRANCH   3  12
ENDBRANCH   2   3
ENDBRANCH   1   2
BRANCH   1  17
ATOM     17  C   UNL     1       7.495   7.759  17.083  0.00  0.00    +0.000 C 
BRANCH  17  18
ATOM     18  N   UNL     1       7.407   6.304  16.909  0.00  0.00    +0.000 NA
ATOM     19  C   UNL     1       7.355   5.557  18.184  0.00  0.00    +0.000 C 
ATOM     20  C   UNL     1       5.999   5.566  18.921  0.00  0.00    +0.000 C 
ATOM     21  N   UNL     1       4.916   5.152  18.023  0.00  0.00    +0.000 N 
ATOM     22  C   UNL     1       4.873   5.880  16.746  0.00  0.00    +0.000 C 
ATOM     23  C   UNL     1       6.263   5.892  16.062  0.00  0.00    +0.000 C 
BRANCH  21  24
ATOM     24  C   UNL     1       4.113   4.051  18.315  0.00  0.00    +0.000 A 
ATOM     25  C   UNL     1       4.297   2.834  17.617  0.00  0.00    +0.000 A 
ATOM     26  C   UNL     1       3.546   1.690  17.868  0.00  0.00    +0.000 A 
ATOM     27  C   UNL     1       2.568   1.699  18.851  0.00  0.00    +0.000 A 
ATOM     28  C   UNL     1       2.351   2.885  19.568  0.00  0.00    +0.000 A 
ATOM     29  S   UNL     1       1.203   3.083  20.844  0.00  0.00    +0.000 S 
ATOM     30  C   UNL     1       1.598   4.721  21.044  0.00  0.00    +0.000 A 
ATOM     31  C   UNL     1       2.565   5.122  20.153  0.00  0.00    +0.000 A 
ATOM     32  C   UNL     1       3.077   4.058  19.317  0.00  0.00    +0.000 A 
ENDBRANCH  21  24
ENDBRANCH  17  18
ENDBRANCH   1  17
TORSDOF 6
ENDMDL
MODEL 3
REMARK VINA RESULT:      -8.3      4.122     11.676
REMARK  Name = 
REMARK  7 active torsions:
REMARK  status: ('A' for Active; 'I' for Inactive)
REMARK    1  A    between atoms: C_1  and  C_2
REMARK    2  A    between atoms: C_9  and  O_10
REMARK    3  A    between atoms: O_10  and  C_11
REMARK    4  A    between atoms: C_11  and  C_12
REMARK    5  A    between atoms: C_12  and  C_13
REMARK    6  A    between atoms: C_13  and  N_14
REMARK    7  A    between atoms: N_17  and  C_18
REMARK                            x       y       z     vdW  Elec       q    Type
REMARK                         _______ _______ _______ _____ _____    ______ ____
ROOT
ATOM      1  C   UNL     1       8.444   9.171  17.503  0.00  0.00    +0.000 C 
ENDROOT
BRANCH   1   2
ATOM      2  C   UNL     1       8.751  10.413  18.339  0.00  0.00    +0.000 C 
BRANCH   2   3
ATOM      3  O   UNL     1       9.941  11.030  17.841  0.00  0.00    +0.000 OA
BRANCH   3  12
ATOM      4  C   UNL     1      11.589  17.367  17.344  0.00  0.00    +0.000 C 
ATOM      5  C   UNL     1      10.296  16.692  17.694  0.00  0.00    +0.000 A 
ATOM      6  C   UNL     1       9.201  17.409  18.002  0.00  0.00    +0.000 A 
ATOM      7  C   UNL     1       7.907  16.774  18.337  0.00  0.00    +0.000 A 
ATOM      8  O   UNL     1       6.925  17.452  18.618  0.00  0.00    +0.000 OA
ATOM      9  N   UNL     1       7.871  15.411  18.312  0.00  0.00    +0.000 N 
ATOM     10  C   UNL     1       8.980  14.612  18.017  0.00  0.00    +0.000 A 
ATOM     11  C   UNL     1       8.836  13.221  18.053  0.00  0.00    +0.000 A 
ATOM     12  C   UNL     1       9.935  12.400  17.796  0.00  0.00    +0.000 A 
ATOM     13  C   UNL     1      11.160  12.987  17.479  0.00  0.00    +0.000 A 
ATOM     14  C   UNL     1      11.299  14.380  17.431  0.00  0.00    +0.000 A 
ATOM     15  C   UNL     1      10.210  15.214  17.707  0.00  0.00    +0.000 A 
ATOM     16  H   UNL     1       6.979  14.991  18.543  0.00  0.00    +0.000 HD
ENDBRANCH   3  12
ENDBRANCH   2   3
ENDBRANCH   1   2
BRANCH   1  17
ATOM     17  C   UNL     1       8.002   7.980  18.371  0.00  0.00    +0.000 C 
BRANCH  17  18
ATOM     18  N   UNL     1       7.666   6.790  17.579  0.00  0.00    +0.000 NA
ATOM     19  C   UNL     1       7.624   5.542  18.373  0.00  0.00    +0.000 C 
ATOM     20  C   UNL     1       6.368   5.335  19.245  0.00  0.00    +0.000 C 
ATOM     21  N   UNL     1       5.148   5.492  18.447  0.00  0.00    +0.000 N 
ATOM     22  C   UNL     1       5.093   6.733  17.658  0.00  0.00    +0.000 C 
ATOM     23  C   UNL     1       6.392   6.931  16.836  0.00  0.00    +0.000 C 
BRANCH  21  24
ATOM     24  C   UNL     1       4.214   4.465  18.339  0.00  0.00    +0.000 A 
ATOM     25  C   UNL     1       4.399   3.434  17.388  0.00  0.00    +0.000 A 
ATOM     26  C   UNL     1       3.518   2.368  17.237  0.00  0.00    +0.000 A 
ATOM     27  C   UNL     1       2.399   2.267  18.050  0.00  0.00    +0.000 A 
ATOM     28  C   UNL     1       2.176   3.266  19.009  0.00  0.00    +0.000 A 
ATOM     29  S   UNL     1       0.860   3.300  20.127  0.00  0.00    +0.000 S 
ATOM     30  C   UNL     1       1.362   4.781  20.787  0.00  0.00    +0.000 A 
ATOM     31  C   UNL     1       2.492   5.256  20.164  0.00  0.00    +0.000 A 
ATOM     32  C   UNL     1       3.035   4.365  19.162  0.00  0.00    +0.000 A 
ENDBRANCH  21  24
ENDBRANCH  17  18
ENDBRANCH   1  17
TORSDOF 6
ENDMDL
MODEL 4
REMARK VINA RESULT:      -8.3      4.057     11.421
REMARK  Name = 
REMARK  7 active torsions:
REMARK  status: ('A' for Active; 'I' for Inactive)
REMARK    1  A    between atoms: C_1  and  C_2
REMARK    2  A    between atoms: C_9  and  O_10
REMARK    3  A    between atoms: O_10  and  C_11
REMARK    4  A    between atoms: C_11  and  C_12
REMARK    5  A    between atoms: C_12  and  C_13
REMARK    6  A    between atoms: C_13  and  N_14
REMARK    7  A    between atoms: N_17  and  C_18
REMARK                            x       y       z     vdW  Elec       q    Type
REMARK                         _______ _______ _______ _____ _____    ______ ____
ROOT
ATOM      1  C   UNL     1       7.399   7.670  17.774  0.00  0.00    +0.000 C 
ENDROOT
BRANCH   1   2
ATOM      2  C   UNL     1       8.142   8.999  17.645  0.00  0.00    +0.000 C 
BRANCH   2   3
ATOM      3  O   UNL     1       8.887   9.237  18.842  0.00  0.00    +0.000 OA
BRANCH   3  12
ATOM      4  C   UNL     1      10.559  15.019  21.467  0.00  0.00    +0.000 C 
ATOM      5  C   UNL     1      10.448  14.558  20.044  0.00  0.00    +0.000 A 
ATOM      6  C   UNL     1      10.694  15.399  19.023  0.00  0.00    +0.000 A 
ATOM      7  C   UNL     1      10.609  14.971  17.609  0.00  0.00    +0.000 A 
ATOM      8  O   UNL     1      10.835  15.759  16.697  0.00  0.00    +0.000 OA
ATOM      9  N   UNL     1      10.273  13.669  17.383  0.00  0.00    +0.000 N 
ATOM     10  C   UNL     1       9.989  12.754  18.402  0.00  0.00    +0.000 A 
ATOM     11  C   UNL     1       9.623  11.450  18.052  0.00  0.00    +0.000 A 
ATOM     12  C   UNL     1       9.300  10.527  19.048  0.00  0.00    +0.000 A 
ATOM     13  C   UNL     1       9.377  10.918  20.385  0.00  0.00    +0.000 A 
ATOM     14  C   UNL     1       9.757  12.220  20.734  0.00  0.00    +0.000 A 
ATOM     15  C   UNL     1      10.062  13.161  19.744  0.00  0.00    +0.000 A 
ATOM     16  H   UNL     1      10.219  13.391  16.411  0.00  0.00    +0.000 HD
ENDBRANCH   3  12
ENDBRANCH   2   3
ENDBRANCH   1   2
BRANCH   1  17
ATOM     17  C   UNL     1       7.652   6.743  16.572  0.00  0.00    +0.000 C 
BRANCH  17  18
ATOM     18  N   UNL     1       6.679   5.648  16.481  0.00  0.00    +0.000 NA
ATOM     19  C   UNL     1       6.632   4.794  17.689  0.00  0.00    +0.000 C 
ATOM     20  C   UNL     1       5.884   5.379  18.905  0.00  0.00    +0.000 C 
ATOM     21  N   UNL     1       4.540   5.826  18.524  0.00  0.00    +0.000 N 
ATOM     22  C   UNL     1       4.504   6.716  17.353  0.00  0.00    +0.000 C 
ATOM     23  C   UNL     1       5.308   6.118  16.171  0.00  0.00    +0.000 C 
BRANCH  21  24
ATOM     24  C   UNL     1       3.402   5.306  19.136  0.00  0.00    +0.000 A 
ATOM     25  C   UNL     1       2.734   6.048  20.139  0.00  0.00    +0.000 A 
ATOM     26  C   UNL     1       1.583   5.601  20.779  0.00  0.00    +0.000 A 
ATOM     27  C   UNL     1       1.025   4.378  20.437  0.00  0.00    +0.000 A 
ATOM     28  C   UNL     1       1.653   3.608  19.448  0.00  0.00    +0.000 A 
ATOM     29  S   UNL     1       1.096   2.080  18.869  0.00  0.00    +0.000 S 
ATOM     30  C   UNL     1       2.415   1.915  17.814  0.00  0.00    +0.000 A 
ATOM     31  C   UNL     1       3.275   2.983  17.907  0.00  0.00    +0.000 A 
ATOM     32  C   UNL     1       2.829   4.026  18.806  0.00  0.00    +0.000 A 
ENDBRANCH  21  24
ENDBRANCH  17  18
ENDBRANCH   1  17
TORSDOF 6
ENDMDL
MODEL 5
REMARK VINA RESULT:      -8.1      4.307     11.697
REMARK  Name = 
REMARK  7 active torsions:
REMARK  status: ('A' for Active; 'I' for Inactive)
REMARK    1  A    between atoms: C_1  and  C_2
REMARK    2  A    between atoms: C_9  and  O_10
REMARK    3  A    between atoms: O_10  and  C_11
REMARK    4  A    between atoms: C_11  and  C_12
REMARK    5  A    between atoms: C_12  and  C_13
REMARK    6  A    between atoms: C_13  and  N_14
REMARK    7  A    between atoms: N_17  and  C_18
REMARK                            x       y       z     vdW  Elec       q    Type
REMARK                         _______ _______ _______ _____ _____    ______ ____
ROOT
ATOM      1  C   UNL     1       8.565   8.516  18.463  0.00  0.00    +0.000 C 
ENDROOT
BRANCH   1   2
ATOM      2  C   UNL     1       8.824  10.021  18.413  0.00  0.00    +0.000 C 
BRANCH   2   3
ATOM      3  O   UNL     1      10.090  10.299  19.015  0.00  0.00    +0.000 OA
BRANCH   3  12
ATOM      4  C   UNL     1       9.326  15.171  23.351  0.00  0.00    +0.000 C 
ATOM      5  C   UNL     1      10.131  15.068  22.090  0.00  0.00    +0.000 A 
ATOM      6  C   UNL     1      10.862  16.107  21.648  0.00  0.00    +0.000 A 
ATOM      7  C   UNL     1      11.679  16.033  20.417  0.00  0.00    +0.000 A 
ATOM      8  O   UNL     1      12.333  16.997  20.035  0.00  0.00    +0.000 OA
ATOM      9  N   UNL     1      11.665  14.847  19.744  0.00  0.00    +0.000 N 
ATOM     10  C   UNL     1      10.912  13.738  20.144  0.00  0.00    +0.000 A 
ATOM     11  C   UNL     1      10.948  12.581  19.358  0.00  0.00    +0.000 A 
ATOM     12  C   UNL     1      10.180  11.473  19.716  0.00  0.00    +0.000 A 
ATOM     13  C   UNL     1       9.405  11.531  20.875  0.00  0.00    +0.000 A 
ATOM     14  C   UNL     1       9.381  12.685  21.668  0.00  0.00    +0.000 A 
ATOM     15  C   UNL     1      10.130  13.811  21.309  0.00  0.00    +0.000 A 
ATOM     16  H   UNL     1      12.229  14.811  18.904  0.00  0.00    +0.000 HD
ENDBRANCH   3  12
ENDBRANCH   2   3
ENDBRANCH   1   2
BRANCH   1  17
ATOM     17  C   UNL     1       7.490   8.076  17.454  0.00  0.00    +0.000 C 
BRANCH  17  18
ATOM     18  N   UNL     1       7.469   6.624  17.239  0.00  0.00    +0.000 NA
ATOM     19  C   UNL     1       7.333   5.843  18.488  0.00  0.00    +0.000 C 
ATOM     20  C   UNL     1       5.920   5.788  19.104  0.00  0.00    +0.000 C 
ATOM     21  N   UNL     1       4.933   5.362  18.107  0.00  0.00    +0.000 N 
ATOM     22  C   UNL     1       4.974   6.121  16.847  0.00  0.00    +0.000 C 
ATOM     23  C   UNL     1       6.417   6.196  16.287  0.00  0.00    +0.000 C 
BRANCH  21  24
ATOM     24  C   UNL     1       4.148   4.228  18.302  0.00  0.00    +0.000 A 
ATOM     25  C   UNL     1       4.309   3.099  17.464  0.00  0.00    +0.000 A 
ATOM     26  C   UNL     1       3.574   1.928  17.611  0.00  0.00    +0.000 A 
ATOM     27  C   UNL     1       2.636   1.817  18.627  0.00  0.00    +0.000 A 
ATOM     28  C   UNL     1       2.442   2.910  19.483  0.00  0.00    +0.000 A 
ATOM     29  S   UNL     1       1.346   2.952  20.817  0.00  0.00    +0.000 S 
ATOM     30  C   UNL     1       1.742   4.560  21.187  0.00  0.00    +0.000 A 
ATOM     31  C   UNL     1       2.670   5.068  20.310  0.00  0.00    +0.000 A 
ATOM     32  C   UNL     1       3.153   4.111  19.339  0.00  0.00    +0.000 A 
ENDBRANCH  21  24
ENDBRANCH  17  18
ENDBRANCH   1  17
TORSDOF 6
ENDMDL
MODEL 6
REMARK VINA RESULT:      -8.1      4.007     11.654
REMARK  Name = 
REMARK  7 active torsions:
REMARK  status: ('A' for Active; 'I' for Inactive)
REMARK    1  A    between atoms: C_1  and  C_2
REMARK    2  A    between atoms: C_9  and  O_10
REMARK    3  A    between atoms: O_10  and  C_11
REMARK    4  A    between atoms: C_11  and  C_12
REMARK    5  A    between atoms: C_12  and  C_13
REMARK    6  A    between atoms: C_13  and  N_14
REMARK    7  A    between atoms: N_17  and  C_18
REMARK                            x       y       z     vdW  Elec       q    Type
REMARK                         _______ _______ _______ _____ _____    ______ ____
ROOT
ATOM      1  C   UNL     1       7.858   8.487  18.316  0.00  0.00    +0.000 C 
ENDROOT
BRANCH   1   2
ATOM      2  C   UNL     1       8.934   9.554  18.117  0.00  0.00    +0.000 C 
BRANCH   2   3
ATOM      3  O   UNL     1       9.380  10.013  19.396  0.00  0.00    +0.000 OA
BRANCH   3  12
ATOM      4  C   UNL     1      10.927  16.048  21.471  0.00  0.00    +0.000 C 
ATOM      5  C   UNL     1      10.646  15.499  20.103  0.00  0.00    +0.000 A 
ATOM      6  C   UNL     1      10.665  16.296  19.020  0.00  0.00    +0.000 A 
ATOM      7  C   UNL     1      10.407  15.783  17.656  0.00  0.00    +0.000 A 
ATOM      8  O   UNL     1      10.427  16.532  16.686  0.00  0.00    +0.000 OA
ATOM      9  N   UNL     1      10.153  14.449  17.543  0.00  0.00    +0.000 N 
ATOM     10  C   UNL     1      10.102  13.574  18.634  0.00  0.00    +0.000 A 
ATOM     11  C   UNL     1       9.800  12.228  18.403  0.00  0.00    +0.000 A 
ATOM     12  C   UNL     1       9.709  11.342  19.477  0.00  0.00    +0.000 A 
ATOM     13  C   UNL     1       9.950  11.813  20.768  0.00  0.00    +0.000 A 
ATOM     14  C   UNL     1      10.266  13.159  20.995  0.00  0.00    +0.000 A 
ATOM     15  C   UNL     1      10.339  14.062  19.929  0.00  0.00    +0.000 A 
ATOM     16  H   UNL     1       9.979  14.112  16.604  0.00  0.00    +0.000 HD
ENDBRANCH   3  12
ENDBRANCH   2   3
ENDBRANCH   1   2
BRANCH   1  17
ATOM     17  C   UNL     1       7.565   7.708  17.022  0.00  0.00    +0.000 C 
BRANCH  17  18
ATOM     18  N   UNL     1       7.563   6.254  17.220  0.00  0.00    +0.000 NA
ATOM     19  C   UNL     1       7.152   5.841  18.580  0.00  0.00    +0.000 C 
ATOM     20  C   UNL     1       5.639   5.900  18.879  0.00  0.00    +0.000 C 
ATOM     21  N   UNL     1       4.878   5.174  17.857  0.00  0.00    +0.000 N 
ATOM     22  C   UNL     1       5.199   5.558  16.473  0.00  0.00    +0.000 C 
ATOM     23  C   UNL     1       6.729   5.536  16.228  0.00  0.00    +0.000 C 
BRANCH  21  24
ATOM     24  C   UNL     1       4.049   4.106  18.191  0.00  0.00    +0.000 A 
ATOM     25  C   UNL     1       4.243   2.840  17.590  0.00  0.00    +0.000 A 
ATOM     26  C   UNL     1       3.467   1.726  17.889  0.00  0.00    +0.000 A 
ATOM     27  C   UNL     1       2.450   1.816  18.828  0.00  0.00    +0.000 A 
ATOM     28  C   UNL     1       2.221   3.052  19.451  0.00  0.00    +0.000 A 
ATOM     29  S   UNL     1       1.026   3.354  20.660  0.00  0.00    +0.000 S 
ATOM     30  C   UNL     1       1.435   4.997  20.761  0.00  0.00    +0.000 A 
ATOM     31  C   UNL     1       2.443   5.322  19.884  0.00  0.00    +0.000 A 
ATOM     32  C   UNL     1       2.974   4.196  19.147  0.00  0.00    +0.000 A 
ENDBRANCH  21  24
ENDBRANCH  17  18
ENDBRANCH   1  17
TORSDOF 6
ENDMDL
MODEL 7
REMARK VINA RESULT:      -8.0      5.818      7.664
REMARK  Name = 
REMARK  7 active torsions:
REMARK  status: ('A' for Active; 'I' for Inactive)
REMARK    1  A    between atoms: C_1  and  C_2
REMARK    2  A    between atoms: C_9  and  O_10
REMARK    3  A    between atoms: O_10  and  C_11
REMARK    4  A    between atoms: C_11  and  C_12
REMARK    5  A    between atoms: C_12  and  C_13
REMARK    6  A    between atoms: C_13  and  N_14
REMARK    7  A    between atoms: N_17  and  C_18
REMARK                            x       y       z     vdW  Elec       q    Type
REMARK                         _______ _______ _______ _____ _____    ______ ____
ROOT
ATOM      1  C   UNL     1       0.015   8.770  21.512  0.00  0.00    +0.000 C 
ENDROOT
BRANCH   1   2
ATOM      2  C   UNL     1       1.390   8.182  21.197  0.00  0.00    +0.000 C 
BRANCH   2   3
ATOM      3  O   UNL     1       1.714   8.454  19.832  0.00  0.00    +0.000 OA
BRANCH   3  12
ATOM      4  C   UNL     1       3.821   2.611  17.702  0.00  0.00    +0.000 C 
ATOM      5  C   UNL     1       4.147   4.011  17.274  0.00  0.00    +0.000 A 
ATOM      6  C   UNL     1       5.036   4.246  16.293  0.00  0.00    +0.000 A 
ATOM      7  C   UNL     1       5.368   5.614  15.836  0.00  0.00    +0.000 A 
ATOM      8  O   UNL     1       6.185   5.800  14.942  0.00  0.00    +0.000 OA
ATOM      9  N   UNL     1       4.719   6.640  16.458  0.00  0.00    +0.000 N 
ATOM     10  C   UNL     1       3.798   6.459  17.495  0.00  0.00    +0.000 A 
ATOM     11  C   UNL     1       3.215   7.587  18.082  0.00  0.00    +0.000 A 
ATOM     12  C   UNL     1       2.320   7.436  19.142  0.00  0.00    +0.000 A 
ATOM     13  C   UNL     1       2.000   6.152  19.581  0.00  0.00    +0.000 A 
ATOM     14  C   UNL     1       2.573   5.022  18.983  0.00  0.00    +0.000 A 
ATOM     15  C   UNL     1       3.489   5.161  17.934  0.00  0.00    +0.000 A 
ATOM     16  H   UNL     1       4.955   7.570  16.135  0.00  0.00    +0.000 HD
ENDBRANCH   3  12
ENDBRANCH   2   3
ENDBRANCH   1   2
BRANCH   1  17
ATOM     17  C   UNL     1      -0.548   9.593  20.340  0.00  0.00    +0.000 C 
BRANCH  17  18
ATOM     18  N   UNL     1      -0.895  10.967  20.722  0.00  0.00    +0.000 NA
ATOM     19  C   UNL     1       0.250  11.743  21.248  0.00  0.00    +0.000 C 
ATOM     20  C   UNL     1       1.252  12.270  20.200  0.00  0.00    +0.000 C 
ATOM     21  N   UNL     1       0.557  13.011  19.142  0.00  0.00    +0.000 N 
ATOM     22  C   UNL     1      -0.572  12.288  18.535  0.00  0.00    +0.000 C 
ATOM     23  C   UNL     1      -1.527  11.732  19.621  0.00  0.00    +0.000 C 
BRANCH  21  24
ATOM     24  C   UNL     1       0.861  14.342  18.870  0.00  0.00    +0.000 A 
ATOM     25  C   UNL     1      -0.157  15.325  18.907  0.00  0.00    +0.000 A 
ATOM     26  C   UNL     1       0.075  16.674  18.665  0.00  0.00    +0.000 A 
ATOM     27  C   UNL     1       1.358  17.121  18.381  0.00  0.00    +0.000 A 
ATOM     28  C   UNL     1       2.399  16.183  18.334  0.00  0.00    +0.000 A 
ATOM     29  S   UNL     1       4.058  16.548  18.027  0.00  0.00    +0.000 S 
ATOM     30  C   UNL     1       4.511  14.915  18.112  0.00  0.00    +0.000 A 
ATOM     31  C   UNL     1       3.428  14.101  18.349  0.00  0.00    +0.000 A 
ATOM     32  C   UNL     1       2.185  14.813  18.550  0.00  0.00    +0.000 A 
ENDBRANCH  21  24
ENDBRANCH  17  18
ENDBRANCH   1  17
TORSDOF 6
ENDMDL
MODEL 8
REMARK VINA RESULT:      -8.0      1.249      1.310
REMARK  Name = 
REMARK  7 active torsions:
REMARK  status: ('A' for Active; 'I' for Inactive)
REMARK    1  A    between atoms: C_1  and  C_2
REMARK    2  A    between atoms: C_9  and  O_10
REMARK    3  A    between atoms: O_10  and  C_11
REMARK    4  A    between atoms: C_11  and  C_12
REMARK    5  A    between atoms: C_12  and  C_13
REMARK    6  A    between atoms: C_13  and  N_14
REMARK    7  A    between atoms: N_17  and  C_18
REMARK                            x       y       z     vdW  Elec       q    Type
REMARK                         _______ _______ _______ _____ _____    ______ ____
ROOT
ATOM      1  C   UNL     1       8.885   9.469  17.830  0.00  0.00    +0.000 C 
ENDROOT
BRANCH   1   2
ATOM      2  C   UNL     1       7.484   8.873  17.693  0.00  0.00    +0.000 C 
BRANCH   2   3
ATOM      3  O   UNL     1       7.586   7.563  17.131  0.00  0.00    +0.000 OA
BRANCH   3  12
ATOM      4  C   UNL     1       1.748   4.616  17.725  0.00  0.00    +0.000 C 
ATOM      5  C   UNL     1       3.104   4.273  18.266  0.00  0.00    +0.000 A 
ATOM      6  C   UNL     1       3.285   3.194  19.049  0.00  0.00    +0.000 A 
ATOM      7  C   UNL     1       4.612   2.819  19.585  0.00  0.00    +0.000 A 
ATOM      8  O   UNL     1       4.748   1.832  20.299  0.00  0.00    +0.000 OA
ATOM      9  N   UNL     1       5.659   3.622  19.242  0.00  0.00    +0.000 N 
ATOM     10  C   UNL     1       5.530   4.766  18.448  0.00  0.00    +0.000 A 
ATOM     11  C   UNL     1       6.670   5.535  18.185  0.00  0.00    +0.000 A 
ATOM     12  C   UNL     1       6.563   6.700  17.425  0.00  0.00    +0.000 A 
ATOM     13  C   UNL     1       5.317   7.064  16.913  0.00  0.00    +0.000 A 
ATOM     14  C   UNL     1       4.180   6.285  17.165  0.00  0.00    +0.000 A 
ATOM     15  C   UNL     1       4.270   5.126  17.944  0.00  0.00    +0.000 A 
ATOM     16  H   UNL     1       6.561   3.353  19.616  0.00  0.00    +0.000 HD
ENDBRANCH   3  12
ENDBRANCH   2   3
ENDBRANCH   1   2
BRANCH   1  17
ATOM     17  C   UNL     1       9.046  10.285  19.125  0.00  0.00    +0.000 C 
BRANCH  17  18
ATOM     18  N   UNL     1      10.322  11.008  19.188  0.00  0.00    +0.000 NA
ATOM     19  C   UNL     1      10.675  11.698  17.928  0.00  0.00    +0.000 C 
ATOM     20  C   UNL     1       9.925  13.016  17.643  0.00  0.00    +0.000 C 
ATOM     21  N   UNL     1      10.021  13.927  18.788  0.00  0.00    +0.000 N 
ATOM     22  C   UNL     1       9.644  13.327  20.077  0.00  0.00    +0.000 C 
ATOM     23  C   UNL     1      10.380  11.982  20.303  0.00  0.00    +0.000 C 
BRANCH  21  24
ATOM     24  C   UNL     1      10.578  15.198  18.659  0.00  0.00    +0.000 A 
ATOM     25  C   UNL     1      10.793  15.752  17.374  0.00  0.00    +0.000 A 
ATOM     26  C   UNL     1      11.327  17.019  17.170  0.00  0.00    +0.000 A 
ATOM     27  C   UNL     1      11.666  17.817  18.254  0.00  0.00    +0.000 A 
ATOM     28  C   UNL     1      11.469  17.309  19.546  0.00  0.00    +0.000 A 
ATOM     29  S   UNL     1      11.800  18.158  21.013  0.00  0.00    +0.000 S 
ATOM     30  C   UNL     1      11.335  16.837  21.970  0.00  0.00    +0.000 A 
ATOM     31  C   UNL     1      10.954  15.763  21.201  0.00  0.00    +0.000 A 
ATOM     32  C   UNL     1      10.956  16.024  19.777  0.00  0.00    +0.000 A 
ENDBRANCH  21  24
ENDBRANCH  17  18
ENDBRANCH   1  17
TORSDOF 6
ENDMDL
MODEL 9
REMARK VINA RESULT:      -8.0      7.883     11.051
REMARK  Name = 
REMARK  7 active torsions:
REMARK  status: ('A' for Active; 'I' for Inactive)
REMARK    1  A    between atoms: C_1  and  C_2
REMARK    2  A    between atoms: C_9  and  O_10
REMARK    3  A    between atoms: O_10  and  C_11
REMARK    4  A    between atoms: C_11  and  C_12
REMARK    5  A    between atoms: C_12  and  C_13
REMARK    6  A    between atoms: C_13  and  N_14
REMARK    7  A    between atoms: N_17  and  C_18
REMARK                            x       y       z     vdW  Elec       q    Type
REMARK                         _______ _______ _______ _____ _____    ______ ____
ROOT
ATOM      1  C   UNL     1       1.883  10.472  18.199  0.00  0.00    +0.000 C 
ENDROOT
BRANCH   1   2
ATOM      2  C   UNL     1       1.664   8.980  18.444  0.00  0.00    +0.000 C 
BRANCH   2   3
ATOM      3  O   UNL     1       2.873   8.275  18.153  0.00  0.00    +0.000 OA
BRANCH   3  12
ATOM      4  C   UNL     1       3.530   1.742  18.083  0.00  0.00    +0.000 C 
ATOM      5  C   UNL     1       2.957   2.681  19.102  0.00  0.00    +0.000 A 
ATOM      6  C   UNL     1       2.431   2.219  20.250  0.00  0.00    +0.000 A 
ATOM      7  C   UNL     1       1.872   3.120  21.283  0.00  0.00    +0.000 A 
ATOM      8  O   UNL     1       1.395   2.672  22.319  0.00  0.00    +0.000 OA
ATOM      9  N   UNL     1       1.920   4.456  21.019  0.00  0.00    +0.000 N 
ATOM     10  C   UNL     1       2.438   4.995  19.836  0.00  0.00    +0.000 A 
ATOM     11  C   UNL     1       2.406   6.382  19.657  0.00  0.00    +0.000 A 
ATOM     12  C   UNL     1       2.884   6.942  18.472  0.00  0.00    +0.000 A 
ATOM     13  C   UNL     1       3.414   6.103  17.491  0.00  0.00    +0.000 A 
ATOM     14  C   UNL     1       3.457   4.715  17.677  0.00  0.00    +0.000 A 
ATOM     15  C   UNL     1       2.961   4.140  18.852  0.00  0.00    +0.000 A 
ATOM     16  H   UNL     1       1.534   5.060  21.734  0.00  0.00    +0.000 HD
ENDBRANCH   3  12
ENDBRANCH   2   3
ENDBRANCH   1   2
BRANCH   1  17
ATOM     17  C   UNL     1       0.641  11.309  18.551  0.00  0.00    +0.000 C 
BRANCH  17  18
ATOM     18  N   UNL     1      -0.505  10.486  18.955  0.00  0.00    +0.000 NA
ATOM     19  C   UNL     1      -1.228  11.014  20.133  0.00  0.00    +0.000 C 
ATOM     20  C   UNL     1      -2.161  12.215  19.874  0.00  0.00    +0.000 C 
ATOM     21  N   UNL     1      -3.087  11.927  18.775  0.00  0.00    +0.000 N 
ATOM     22  C   UNL     1      -2.441  11.436  17.548  0.00  0.00    +0.000 C 
ATOM     23  C   UNL     1      -1.474  10.264  17.856  0.00  0.00    +0.000 C 
BRANCH  21  24
ATOM     24  C   UNL     1      -4.467  11.970  18.958  0.00  0.00    +0.000 A 
ATOM     25  C   UNL     1      -5.337  11.619  17.898  0.00  0.00    +0.000 A 
ATOM     26  C   UNL     1      -6.722  11.621  18.015  0.00  0.00    +0.000 A 
ATOM     27  C   UNL     1      -7.320  11.964  19.218  0.00  0.00    +0.000 A 
ATOM     28  C   UNL     1      -6.498  12.319  20.298  0.00  0.00    +0.000 A 
ATOM     29  S   UNL     1      -7.053  12.747  21.876  0.00  0.00    +0.000 S 
ATOM     30  C   UNL     1      -5.476  13.036  22.432  0.00  0.00    +0.000 A 
ATOM     31  C   UNL     1      -4.545  12.834  21.442  0.00  0.00    +0.000 A 
ATOM     32  C   UNL     1      -5.099  12.350  20.197  0.00  0.00    +0.000 A 
ENDBRANCH  21  24
ENDBRANCH  17  18
ENDBRANCH   1  17
TORSDOF 6
ENDMDL
