MODEL 1
REMARK VINA RESULT:      -5.6      0.000      0.000
REMARK  Name = 
REMARK  7 active torsions:
REMARK  status: ('A' for Active; 'I' for Inactive)
REMARK    1  A    between atoms: C_1  and  C_2
REMARK    2  A    between atoms: C_2  and  N_3
REMARK    3  A    between atoms: N_3  and  C_4
REMARK    4  A    between atoms: C_4  and  C_5
REMARK    5  A    between atoms: C_6  and  C_8
REMARK    6  A    between atoms: N_13  and  C_14
REMARK    7  A    between atoms: C_14  and  C_15
REMARK                            x       y       z     vdW  Elec       q    Type
REMARK                         _______ _______ _______ _____ _____    ______ ____
ROOT
ATOM      1  C   UNL     1       3.759   4.124  18.398  0.00  0.00    +0.000 A 
ATOM      2  C   UNL     1       3.122   2.907  18.214  0.00  0.00    +0.000 A 
ATOM      3 CL   UNL     1       3.748   1.330  18.143  0.00  0.00    +0.000 Cl
ATOM      4  C   UNL     1       1.755   3.201  18.105  0.00  0.00    +0.000 A 
ATOM      5  N   UNL     1       1.498   4.487  18.336  0.00  0.00    +0.000 NA
ATOM      6  N   UNL     1       2.716   5.000  18.639  0.00  0.00    +0.000 N 
ENDROOT
BRANCH   1   8
ATOM      7  N   UNL     1       5.809   5.133  17.430  0.00  0.00    +0.000 N 
ATOM      8  C   UNL     1       5.159   4.487  18.503  0.00  0.00    +0.000 C 
ATOM      9  O   UNL     1       5.770   4.264  19.548  0.00  0.00    +0.000 OA
BRANCH   7  11
ATOM     10  C   UNL     1       7.686   6.690  17.916  0.00  0.00    +0.000 C 
ATOM     11  C   UNL     1       7.263   5.280  17.535  0.00  0.00    +0.000 C 
ENDBRANCH   7  11
BRANCH   7  12
ATOM     12  C   UNL     1       5.183   5.509  16.155  0.00  0.00    +0.000 C 
ATOM     13  C   UNL     1       5.586   4.691  14.936  0.00  0.00    +0.000 C 
ENDBRANCH   7  12
ENDBRANCH   1   8
BRANCH   6  14
ATOM     14  C   UNL     1       2.759   6.350  19.180  0.00  0.00    +0.000 C 
ATOM     15  C   UNL     1       2.651   7.410  18.092  0.00  0.00    +0.000 C 
ENDBRANCH   6  14
TORSDOF 4
ENDMDL
MODEL 2
REMARK VINA RESULT:      -5.4      1.940      3.774
REMARK  Name = 
REMARK  7 active torsions:
REMARK  status: ('A' for Active; 'I' for Inactive)
REMARK    1  A    between atoms: C_1  and  C_2
REMARK    2  A    between atoms: C_2  and  N_3
REMARK    3  A    between atoms: N_3  and  C_4
REMARK    4  A    between atoms: C_4  and  C_5
REMARK    5  A    between atoms: C_6  and  C_8
REMARK    6  A    between atoms: N_13  and  C_14
REMARK    7  A    between atoms: C_14  and  C_15
REMARK                            x       y       z     vdW  Elec       q    Type
REMARK                         _______ _______ _______ _____ _____    ______ ____
ROOT
ATOM      1  C   UNL     1       4.910   4.970  17.470  0.00  0.00    +0.000 A 
ATOM      2  C   UNL     1       5.424   4.901  16.185  0.00  0.00    +0.000 A 
ATOM      3 CL   UNL     1       6.075   3.592  15.321  0.00  0.00    +0.000 Cl
ATOM      4  C   UNL     1       5.295   6.192  15.651  0.00  0.00    +0.000 A 
ATOM      5  N   UNL     1       4.627   7.008  16.463  0.00  0.00    +0.000 NA
ATOM      6  N   UNL     1       4.292   6.207  17.505  0.00  0.00    +0.000 N 
ENDROOT
BRANCH   1   8
ATOM      7  N   UNL     1       3.771   3.061  18.575  0.00  0.00    +0.000 N 
ATOM      8  C   UNL     1       4.828   3.996  18.542  0.00  0.00    +0.000 C 
ATOM      9  O   UNL     1       5.706   3.963  19.404  0.00  0.00    +0.000 OA
BRANCH   7  11
ATOM     10  C   UNL     1       2.778   2.911  20.850  0.00  0.00    +0.000 C 
ATOM     11  C   UNL     1       3.648   2.253  19.790  0.00  0.00    +0.000 C 
ENDBRANCH   7  11
BRANCH   7  12
ATOM     12  C   UNL     1       2.696   2.955  17.580  0.00  0.00    +0.000 C 
ATOM     13  C   UNL     1       1.474   3.834  17.808  0.00  0.00    +0.000 C 
ENDBRANCH   7  12
ENDBRANCH   1   8
BRANCH   6  14
ATOM     14  C   UNL     1       3.341   6.730  18.474  0.00  0.00    +0.000 C 
ATOM     15  C   UNL     1       2.621   7.970  17.961  0.00  0.00    +0.000 C 
ENDBRANCH   6  14
TORSDOF 4
ENDMDL
MODEL 3
REMARK VINA RESULT:      -5.4      2.135      2.873
REMARK  Name = 
REMARK  7 active torsions:
REMARK  status: ('A' for Active; 'I' for Inactive)
REMARK    1  A    between atoms: C_1  and  C_2
REMARK    2  A    between atoms: C_2  and  N_3
REMARK    3  A    between atoms: N_3  and  C_4
REMARK    4  A    between atoms: C_4  and  C_5
REMARK    5  A    between atoms: C_6  and  C_8
REMARK    6  A    between atoms: N_13  and  C_14
REMARK    7  A    between atoms: C_14  and  C_15
REMARK                            x       y       z     vdW  Elec       q    Type
REMARK                         _______ _______ _______ _____ _____    ______ ____
ROOT
ATOM      1  C   UNL     1       3.984   4.775  19.575  0.00  0.00    +0.000 A 
ATOM      2  C   UNL     1       2.854   5.564  19.715  0.00  0.00    +0.000 A 
ATOM      3 CL   UNL     1       2.583   7.192  19.315  0.00  0.00    +0.000 Cl
ATOM      4  C   UNL     1       1.870   4.732  20.271  0.00  0.00    +0.000 A 
ATOM      5  N   UNL     1       2.275   3.467  20.361  0.00  0.00    +0.000 NA
ATOM      6  N   UNL     1       3.515   3.495  19.812  0.00  0.00    +0.000 N 
ENDROOT
BRANCH   1   8
ATOM      7  N   UNL     1       5.622   5.178  17.754  0.00  0.00    +0.000 N 
ATOM      8  C   UNL     1       5.333   5.071  19.131  0.00  0.00    +0.000 C 
ATOM      9  O   UNL     1       6.218   5.267  19.963  0.00  0.00    +0.000 OA
BRANCH   7  11
ATOM     10  C   UNL     1       7.500   6.712  17.207  0.00  0.00    +0.000 C 
ATOM     11  C   UNL     1       7.036   5.276  17.385  0.00  0.00    +0.000 C 
ENDBRANCH   7  11
BRANCH   7  12
ATOM     12  C   UNL     1       4.648   5.028  16.665  0.00  0.00    +0.000 C 
ATOM     13  C   UNL     1       5.158   4.376  15.387  0.00  0.00    +0.000 C 
ENDBRANCH   7  12
ENDBRANCH   1   8
BRANCH   6  14
ATOM     14  C   UNL     1       4.155   2.218  19.535  0.00  0.00    +0.000 C 
ATOM     15  C   UNL     1       3.620   1.570  18.264  0.00  0.00    +0.000 C 
ENDBRANCH   6  14
TORSDOF 4
ENDMDL
MODEL 4
REMARK VINA RESULT:      -5.4      2.002      2.810
REMARK  Name = 
REMARK  7 active torsions:
REMARK  status: ('A' for Active; 'I' for Inactive)
REMARK    1  A    between atoms: C_1  and  C_2
REMARK    2  A    between atoms: C_2  and  N_3
REMARK    3  A    between atoms: N_3  and  C_4
REMARK    4  A    between atoms: C_4  and  C_5
REMARK    5  A    between atoms: C_6  and  C_8
REMARK    6  A    between atoms: N_13  and  C_14
REMARK    7  A    between atoms: C_14  and  C_15
REMARK                            x       y       z     vdW  Elec       q    Type
REMARK                         _______ _______ _______ _____ _____    ______ ____
ROOT
ATOM      1  C   UNL     1       3.688   5.204  18.260  0.00  0.00    +0.000 A 
ATOM      2  C   UNL     1       2.531   5.955  18.136  0.00  0.00    +0.000 A 
ATOM      3 CL   UNL     1       2.303   7.638  18.091  0.00  0.00    +0.000 Cl
ATOM      4  C   UNL     1       1.482   5.030  18.023  0.00  0.00    +0.000 A 
ATOM      5  N   UNL     1       1.924   3.777  17.940  0.00  0.00    +0.000 NA
ATOM      6  N   UNL     1       3.273   3.919  17.956  0.00  0.00    +0.000 N 
ENDROOT
BRANCH   1   8
ATOM      7  N   UNL     1       5.851   6.085  17.419  0.00  0.00    +0.000 N 
ATOM      8  C   UNL     1       5.074   5.573  18.480  0.00  0.00    +0.000 C 
ATOM      9  O   UNL     1       5.559   5.473  19.606  0.00  0.00    +0.000 OA
BRANCH   7  11
ATOM     10  C   UNL     1       7.737   7.691  17.631  0.00  0.00    +0.000 C 
ATOM     11  C   UNL     1       7.286   6.240  17.671  0.00  0.00    +0.000 C 
ENDBRANCH   7  11
BRANCH   7  12
ATOM     12  C   UNL     1       5.378   6.309  16.047  0.00  0.00    +0.000 C 
ATOM     13  C   UNL     1       5.645   5.192  15.048  0.00  0.00    +0.000 C 
ENDBRANCH   7  12
ENDBRANCH   1   8
BRANCH   6  14
ATOM     14  C   UNL     1       4.074   2.747  17.639  0.00  0.00    +0.000 C 
ATOM     15  C   UNL     1       3.579   1.500  18.360  0.00  0.00    +0.000 C 
ENDBRANCH   6  14
TORSDOF 4
ENDMDL
MODEL 5
REMARK VINA RESULT:      -5.4      2.225      4.711
REMARK  Name = 
REMARK  7 active torsions:
REMARK  status: ('A' for Active; 'I' for Inactive)
REMARK    1  A    between atoms: C_1  and  C_2
REMARK    2  A    between atoms: C_2  and  N_3
REMARK    3  A    between atoms: N_3  and  C_4
REMARK    4  A    between atoms: C_4  and  C_5
REMARK    5  A    between atoms: C_6  and  C_8
REMARK    6  A    between atoms: N_13  and  C_14
REMARK    7  A    between atoms: C_14  and  C_15
REMARK                            x       y       z     vdW  Elec       q    Type
REMARK                         _______ _______ _______ _____ _____    ______ ____
ROOT
ATOM      1  C   UNL     1       5.338   4.725  17.074  0.00  0.00    +0.000 A 
ATOM      2  C   UNL     1       5.882   4.468  15.827  0.00  0.00    +0.000 A 
ATOM      3 CL   UNL     1       5.155   4.403  14.293  0.00  0.00    +0.000 Cl
ATOM      4  C   UNL     1       7.255   4.269  16.040  0.00  0.00    +0.000 A 
ATOM      5  N   UNL     1       7.608   4.512  17.300  0.00  0.00    +0.000 NA
ATOM      6  N   UNL     1       6.448   4.913  17.878  0.00  0.00    +0.000 N 
ENDROOT
BRANCH   1   8
ATOM      7  N   UNL     1       3.242   3.881  18.102  0.00  0.00    +0.000 N 
ATOM      8  C   UNL     1       3.974   4.938  17.519  0.00  0.00    +0.000 C 
ATOM      9  O   UNL     1       3.468   6.056  17.421  0.00  0.00    +0.000 OA
BRANCH   7  11
ATOM     10  C   UNL     1       1.487   4.336  19.803  0.00  0.00    +0.000 C 
ATOM     11  C   UNL     1       1.816   4.120  18.335  0.00  0.00    +0.000 C 
ENDBRANCH   7  11
BRANCH   7  12
ATOM     12  C   UNL     1       3.746   2.521  18.331  0.00  0.00    +0.000 C 
ATOM     13  C   UNL     1       4.365   2.249  19.695  0.00  0.00    +0.000 C 
ENDBRANCH   7  12
ENDBRANCH   1   8
BRANCH   6  14
ATOM     14  C   UNL     1       6.528   5.487  19.213  0.00  0.00    +0.000 C 
ATOM     15  C   UNL     1       7.967   5.722  19.653  0.00  0.00    +0.000 C 
ENDBRANCH   6  14
TORSDOF 4
ENDMDL
MODEL 6
REMARK VINA RESULT:      -5.2      2.044      4.810
REMARK  Name = 
REMARK  7 active torsions:
REMARK  status: ('A' for Active; 'I' for Inactive)
REMARK    1  A    between atoms: C_1  and  C_2
REMARK    2  A    between atoms: C_2  and  N_3
REMARK    3  A    between atoms: N_3  and  C_4
REMARK    4  A    between atoms: C_4  and  C_5
REMARK    5  A    between atoms: C_6  and  C_8
REMARK    6  A    between atoms: N_13  and  C_14
REMARK    7  A    between atoms: C_14  and  C_15
REMARK                            x       y       z     vdW  Elec       q    Type
REMARK                         _______ _______ _______ _____ _____    ______ ____
ROOT
ATOM      1  C   UNL     1       5.813   5.078  18.148  0.00  0.00    +0.000 A 
ATOM      2  C   UNL     1       7.005   5.712  18.461  0.00  0.00    +0.000 A 
ATOM      3 CL   UNL     1       7.870   5.784  19.921  0.00  0.00    +0.000 Cl
ATOM      4  C   UNL     1       7.438   6.324  17.275  0.00  0.00    +0.000 A 
ATOM      5  N   UNL     1       6.669   6.006  16.236  0.00  0.00    +0.000 NA
ATOM      6  N   UNL     1       5.766   5.145  16.767  0.00  0.00    +0.000 N 
ENDROOT
BRANCH   1   8
ATOM      7  N   UNL     1       3.574   4.881  19.200  0.00  0.00    +0.000 N 
ATOM      8  C   UNL     1       4.856   4.345  18.954  0.00  0.00    +0.000 C 
ATOM      9  O   UNL     1       5.153   3.234  19.392  0.00  0.00    +0.000 OA
BRANCH   7  11
ATOM     10  C   UNL     1       1.574   3.446  19.551  0.00  0.00    +0.000 C 
ATOM     11  C   UNL     1       2.746   4.179  20.184  0.00  0.00    +0.000 C 
ENDBRANCH   7  11
BRANCH   7  12
ATOM     12  C   UNL     1       3.074   6.163  18.688  0.00  0.00    +0.000 C 
ATOM     13  C   UNL     1       2.339   7.049  19.685  0.00  0.00    +0.000 C 
ENDBRANCH   7  12
ENDBRANCH   1   8
BRANCH   6  14
ATOM     14  C   UNL     1       4.912   4.415  15.842  0.00  0.00    +0.000 C 
ATOM     15  C   UNL     1       5.530   4.304  14.454  0.00  0.00    +0.000 C 
ENDBRANCH   6  14
TORSDOF 4
ENDMDL
MODEL 7
REMARK VINA RESULT:      -5.2      2.091      4.512
REMARK  Name = 
REMARK  7 active torsions:
REMARK  status: ('A' for Active; 'I' for Inactive)
REMARK    1  A    between atoms: C_1  and  C_2
REMARK    2  A    between atoms: C_2  and  N_3
REMARK    3  A    between atoms: N_3  and  C_4
REMARK    4  A    between atoms: C_4  and  C_5
REMARK    5  A    between atoms: C_6  and  C_8
REMARK    6  A    between atoms: N_13  and  C_14
REMARK    7  A    between atoms: C_14  and  C_15
REMARK                            x       y       z     vdW  Elec       q    Type
REMARK                         _______ _______ _______ _____ _____    ______ ____
ROOT
ATOM      1  C   UNL     1       5.400   4.361  16.920  0.00  0.00    +0.000 A 
ATOM      2  C   UNL     1       5.917   4.361  15.634  0.00  0.00    +0.000 A 
ATOM      3 CL   UNL     1       5.137   4.297  14.127  0.00  0.00    +0.000 Cl
ATOM      4  C   UNL     1       7.310   4.448  15.780  0.00  0.00    +0.000 A 
ATOM      5  N   UNL     1       7.672   4.630  17.048  0.00  0.00    +0.000 NA
ATOM      6  N   UNL     1       6.487   4.703  17.704  0.00  0.00    +0.000 N 
ENDROOT
BRANCH   1   8
ATOM      7  N   UNL     1       3.286   5.365  17.746  0.00  0.00    +0.000 N 
ATOM      8  C   UNL     1       4.049   4.221  17.429  0.00  0.00    +0.000 C 
ATOM      9  O   UNL     1       3.557   3.100  17.549  0.00  0.00    +0.000 OA
BRANCH   7  11
ATOM     10  C   UNL     1       2.188   4.998  19.946  0.00  0.00    +0.000 C 
ATOM     11  C   UNL     1       2.018   5.136  18.441  0.00  0.00    +0.000 C 
ENDBRANCH   7  11
BRANCH   7  12
ATOM     12  C   UNL     1       3.732   6.756  17.593  0.00  0.00    +0.000 C 
ATOM     13  C   UNL     1       2.704   7.834  17.910  0.00  0.00    +0.000 C 
ENDBRANCH   7  12
ENDBRANCH   1   8
BRANCH   6  14
ATOM     14  C   UNL     1       6.516   5.140  19.092  0.00  0.00    +0.000 C 
ATOM     15  C   UNL     1       7.824   5.832  19.451  0.00  0.00    +0.000 C 
ENDBRANCH   6  14
TORSDOF 4
ENDMDL
MODEL 8
REMARK VINA RESULT:      -5.2      1.157      1.231
REMARK  Name = 
REMARK  7 active torsions:
REMARK  status: ('A' for Active; 'I' for Inactive)
REMARK    1  A    between atoms: C_1  and  C_2
REMARK    2  A    between atoms: C_2  and  N_3
REMARK    3  A    between atoms: N_3  and  C_4
REMARK    4  A    between atoms: C_4  and  C_5
REMARK    5  A    between atoms: C_6  and  C_8
REMARK    6  A    between atoms: N_13  and  C_14
REMARK    7  A    between atoms: C_14  and  C_15
REMARK                            x       y       z     vdW  Elec       q    Type
REMARK                         _______ _______ _______ _____ _____    ______ ____
ROOT
ATOM      1  C   UNL     1       4.142   4.489  19.282  0.00  0.00    +0.000 A 
ATOM      2  C   UNL     1       3.709   3.270  19.776  0.00  0.00    +0.000 A 
ATOM      3 CL   UNL     1       4.586   1.925  20.332  0.00  0.00    +0.000 Cl
ATOM      4  C   UNL     1       2.307   3.326  19.765  0.00  0.00    +0.000 A 
ATOM      5  N   UNL     1       1.856   4.531  19.423  0.00  0.00    +0.000 NA
ATOM      6  N   UNL     1       2.991   5.256  19.260  0.00  0.00    +0.000 N 
ENDROOT
BRANCH   1   8
ATOM      7  N   UNL     1       5.819   5.336  17.659  0.00  0.00    +0.000 N 
ATOM      8  C   UNL     1       5.464   5.009  18.986  0.00  0.00    +0.000 C 
ATOM      9  O   UNL     1       6.263   5.199  19.902  0.00  0.00    +0.000 OA
BRANCH   7  11
ATOM     10  C   UNL     1       7.506   7.151  17.464  0.00  0.00    +0.000 C 
ATOM     11  C   UNL     1       7.227   5.657  17.417  0.00  0.00    +0.000 C 
ENDBRANCH   7  11
BRANCH   7  12
ATOM     12  C   UNL     1       4.942   5.212  16.487  0.00  0.00    +0.000 C 
ATOM     13  C   UNL     1       5.630   4.963  15.152  0.00  0.00    +0.000 C 
ENDBRANCH   7  12
ENDBRANCH   1   8
BRANCH   6  14
ATOM     14  C   UNL     1       2.851   6.696  19.113  0.00  0.00    +0.000 C 
ATOM     15  C   UNL     1       1.985   7.306  20.208  0.00  0.00    +0.000 C 
ENDBRANCH   6  14
TORSDOF 4
ENDMDL
MODEL 9
REMARK VINA RESULT:      -5.2      2.210      4.514
REMARK  Name = 
REMARK  7 active torsions:
REMARK  status: ('A' for Active; 'I' for Inactive)
REMARK    1  A    between atoms: C_1  and  C_2
REMARK    2  A    between atoms: C_2  and  N_3
REMARK    3  A    between atoms: N_3  and  C_4
REMARK    4  A    between atoms: C_4  and  C_5
REMARK    5  A    between atoms: C_6  and  C_8
REMARK    6  A    between atoms: N_13  and  C_14
REMARK    7  A    between atoms: C_14  and  C_15
REMARK                            x       y       z     vdW  Elec       q    Type
REMARK                         _______ _______ _______ _____ _____    ______ ____
ROOT
ATOM      1  C   UNL     1       4.804   5.298  17.561  0.00  0.00    +0.000 A 
ATOM      2  C   UNL     1       4.119   6.502  17.575  0.00  0.00    +0.000 A 
ATOM      3 CL   UNL     1       3.083   7.173  18.742  0.00  0.00    +0.000 Cl
ATOM      4  C   UNL     1       4.455   7.150  16.377  0.00  0.00    +0.000 A 
ATOM      5  N   UNL     1       5.391   6.492  15.696  0.00  0.00    +0.000 NA
ATOM      6  N   UNL     1       5.680   5.438  16.499  0.00  0.00    +0.000 N 
ENDROOT
BRANCH   1   8
ATOM      7  N   UNL     1       3.805   3.186  18.398  0.00  0.00    +0.000 N 
ATOM      8  C   UNL     1       4.814   4.169  18.472  0.00  0.00    +0.000 C 
ATOM      9  O   UNL     1       5.729   4.052  19.287  0.00  0.00    +0.000 OA
BRANCH   7  11
ATOM     10  C   UNL     1       2.987   2.673  20.689  0.00  0.00    +0.000 C 
ATOM     11  C   UNL     1       3.772   2.196  19.477  0.00  0.00    +0.000 C 
ENDBRANCH   7  11
BRANCH   7  12
ATOM     12  C   UNL     1       2.694   3.175  17.437  0.00  0.00    +0.000 C 
ATOM     13  C   UNL     1       1.470   3.999  17.809  0.00  0.00    +0.000 C 
ENDBRANCH   7  12
ENDBRANCH   1   8
BRANCH   6  14
ATOM     14  C   UNL     1       6.845   4.636  16.159  0.00  0.00    +0.000 C 
ATOM     15  C   UNL     1       7.074   4.560  14.655  0.00  0.00    +0.000 C 
ENDBRANCH   6  14
TORSDOF 4
ENDMDL
