MODEL 1
REMARK VINA RESULT:      -7.8      0.000      0.000
REMARK  Name = 
REMARK  6 active torsions:
REMARK  status: ('A' for Active; 'I' for Inactive)
REMARK    1  A    between atoms: N_2  and  C_4
REMARK    2  A    between atoms: C_6  and  C_7
REMARK    3  A    between atoms: C_12  and  N_13
REMARK    4  A    between atoms: C_16  and  S_17
REMARK    5  A    between atoms: S_17  and  C_18
REMARK    6  A    between atoms: C_21  and  C_22
REMARK                            x       y       z     vdW  Elec       q    Type
REMARK                         _______ _______ _______ _____ _____    ______ ____
ROOT
ATOM      1  C   UNL     1       3.477   5.078  17.758  0.00  0.00    +0.000 A 
ATOM      2  C   UNL     1       2.520   6.098  17.949  0.00  0.00    +0.000 A 
ATOM      3  C   UNL     1       2.918   7.438  18.022  0.00  0.00    +0.000 A 
ATOM      4  C   UNL     1       4.286   7.725  17.924  0.00  0.00    +0.000 A 
ATOM      5  C   UNL     1       5.222   6.685  17.730  0.00  0.00    +0.000 A 
ATOM      6  C   UNL     1       4.855   5.331  17.633  0.00  0.00    +0.000 A 
ENDROOT
BRANCH   3   7
ATOM      7  C   UNL     1       1.911   8.556  18.185  0.00  0.00    +0.000 C 
ATOM      8  F   UNL     1       1.400   8.637  19.442  0.00  0.00    +0.000 F 
ATOM      9  F   UNL     1       2.446   9.774  17.910  0.00  0.00    +0.000 F 
ATOM     10  F   UNL     1       0.847   8.409  17.351  0.00  0.00    +0.000 F 
ENDBRANCH   3   7
BRANCH   1  12
ATOM     11  O   UNL     1       3.057   3.023  18.683  0.00  0.00    +0.000 OA
ATOM     12  N   UNL     1       2.953   3.727  17.670  0.00  0.00    +0.000 N 
ATOM     13  O   UNL     1       2.373   3.412  16.623  0.00  0.00    +0.000 OA
ENDBRANCH   1  12
BRANCH   5  14
ATOM     14  N   UNL     1       6.609   7.096  17.612  0.00  0.00    +0.000 N 
ATOM     15  O   UNL     1       7.402   6.614  18.432  0.00  0.00    +0.000 OA
ATOM     16  O   UNL     1       6.875   7.948  16.756  0.00  0.00    +0.000 OA
ENDBRANCH   5  14
BRANCH   6  17
ATOM     17  S   UNL     1       6.050   4.038  17.306  0.00  0.00    +0.000 S 
BRANCH  17  18
ATOM     18  C   UNL     1       6.536   4.311  15.655  0.00  0.00    +0.000 A 
ATOM     19  N   UNL     1       7.493   5.172  15.297  0.00  0.00    +0.000 NA
ATOM     20  N   UNL     1       7.524   4.997  13.961  0.00  0.00    +0.000 N 
ATOM     21  C   UNL     1       6.619   4.061  13.556  0.00  0.00    +0.000 A 
ATOM     22  N   UNL     1       5.969   3.623  14.621  0.00  0.00    +0.000 NA
ATOM     23  H   UNL     1       8.184   5.526  13.396  0.00  0.00    +0.000 HD
BRANCH  21  24
ATOM     24  C   UNL     1       6.509   3.677  12.129  0.00  0.00    +0.000 C 
ATOM     25  F   UNL     1       7.197   4.543  11.337  0.00  0.00    +0.000 F 
ATOM     26  F   UNL     1       7.016   2.444  11.884  0.00  0.00    +0.000 F 
ATOM     27  F   UNL     1       5.228   3.683  11.684  0.00  0.00    +0.000 F 
ENDBRANCH  21  24
ENDBRANCH  17  18
ENDBRANCH   6  17
TORSDOF 6
ENDMDL
MODEL 2
REMARK VINA RESULT:      -7.7      0.131      1.052
REMARK  Name = 
REMARK  6 active torsions:
REMARK  status: ('A' for Active; 'I' for Inactive)
REMARK    1  A    between atoms: N_2  and  C_4
REMARK    2  A    between atoms: C_6  and  C_7
REMARK    3  A    between atoms: C_12  and  N_13
REMARK    4  A    between atoms: C_16  and  S_17
REMARK    5  A    between atoms: S_17  and  C_18
REMARK    6  A    between atoms: C_21  and  C_22
REMARK                            x       y       z     vdW  Elec       q    Type
REMARK                         _______ _______ _______ _____ _____    ______ ____
ROOT
ATOM      1  C   UNL     1       3.365   5.063  17.800  0.00  0.00    +0.000 A 
ATOM      2  C   UNL     1       2.435   6.110  17.975  0.00  0.00    +0.000 A 
ATOM      3  C   UNL     1       2.867   7.441  18.025  0.00  0.00    +0.000 A 
ATOM      4  C   UNL     1       4.241   7.691  17.921  0.00  0.00    +0.000 A 
ATOM      5  C   UNL     1       5.151   6.625  17.744  0.00  0.00    +0.000 A 
ATOM      6  C   UNL     1       4.749   5.279  17.670  0.00  0.00    +0.000 A 
ENDROOT
BRANCH   3   7
ATOM      7  C   UNL     1       1.889   8.587  18.169  0.00  0.00    +0.000 C 
ATOM      8  F   UNL     1       0.796   8.462  17.371  0.00  0.00    +0.000 F 
ATOM      9  F   UNL     1       1.424   8.709  19.439  0.00  0.00    +0.000 F 
ATOM     10  F   UNL     1       2.456   9.783  17.854  0.00  0.00    +0.000 F 
ENDBRANCH   3   7
BRANCH   1  12
ATOM     11  O   UNL     1       2.745   3.096  18.800  0.00  0.00    +0.000 OA
ATOM     12  N   UNL     1       2.807   3.725  17.736  0.00  0.00    +0.000 N 
ATOM     13  O   UNL     1       2.364   3.349  16.643  0.00  0.00    +0.000 OA
ENDBRANCH   1  12
BRANCH   5  14
ATOM     14  N   UNL     1       6.548   6.998  17.617  0.00  0.00    +0.000 N 
ATOM     15  O   UNL     1       7.324   6.537  18.465  0.00  0.00    +0.000 OA
ATOM     16  O   UNL     1       6.839   7.802  16.725  0.00  0.00    +0.000 OA
ENDBRANCH   5  14
BRANCH   6  17
ATOM     17  S   UNL     1       5.911   3.951  17.364  0.00  0.00    +0.000 S 
BRANCH  17  18
ATOM     18  C   UNL     1       6.455   4.225  15.731  0.00  0.00    +0.000 A 
ATOM     19  N   UNL     1       7.492   5.006  15.417  0.00  0.00    +0.000 NA
ATOM     20  N   UNL     1       7.537   4.867  14.078  0.00  0.00    +0.000 N 
ATOM     21  C   UNL     1       6.561   4.026  13.628  0.00  0.00    +0.000 A 
ATOM     22  N   UNL     1       5.852   3.619  14.666  0.00  0.00    +0.000 NA
ATOM     23  H   UNL     1       8.253   5.350  13.542  0.00  0.00    +0.000 HD
BRANCH  21  24
ATOM     24  C   UNL     1       6.449   3.694  12.189  0.00  0.00    +0.000 C 
ATOM     25  F   UNL     1       6.926   2.443  11.939  0.00  0.00    +0.000 F 
ATOM     26  F   UNL     1       5.166   3.711  11.751  0.00  0.00    +0.000 F 
ATOM     27  F   UNL     1       7.157   4.540  11.400  0.00  0.00    +0.000 F 
ENDBRANCH  21  24
ENDBRANCH  17  18
ENDBRANCH   6  17
TORSDOF 6
ENDMDL
MODEL 3
REMARK VINA RESULT:      -7.7      1.845      6.820
REMARK  Name = 
REMARK  6 active torsions:
REMARK  status: ('A' for Active; 'I' for Inactive)
REMARK    1  A    between atoms: N_2  and  C_4
REMARK    2  A    between atoms: C_6  and  C_7
REMARK    3  A    between atoms: C_12  and  N_13
REMARK    4  A    between atoms: C_16  and  S_17
REMARK    5  A    between atoms: S_17  and  C_18
REMARK    6  A    between atoms: C_21  and  C_22
REMARK                            x       y       z     vdW  Elec       q    Type
REMARK                         _______ _______ _______ _____ _____    ______ ____
ROOT
ATOM      1  C   UNL     1       6.448   4.746  17.299  0.00  0.00    +0.000 A 
ATOM      2  C   UNL     1       6.760   4.689  15.923  0.00  0.00    +0.000 A 
ATOM      3  C   UNL     1       5.886   4.066  15.024  0.00  0.00    +0.000 A 
ATOM      4  C   UNL     1       4.718   3.487  15.535  0.00  0.00    +0.000 A 
ATOM      5  C   UNL     1       4.429   3.560  16.916  0.00  0.00    +0.000 A 
ATOM      6  C   UNL     1       5.274   4.195  17.843  0.00  0.00    +0.000 A 
ENDROOT
BRANCH   3   7
ATOM      7  C   UNL     1       6.174   4.026  13.539  0.00  0.00    +0.000 C 
ATOM      8  F   UNL     1       7.098   4.944  13.147  0.00  0.00    +0.000 F 
ATOM      9  F   UNL     1       6.643   2.816  13.138  0.00  0.00    +0.000 F 
ATOM     10  F   UNL     1       5.059   4.269  12.797  0.00  0.00    +0.000 F 
ENDBRANCH   3   7
BRANCH   1  12
ATOM     11  O   UNL     1       8.197   4.733  18.780  0.00  0.00    +0.000 OA
ATOM     12  N   UNL     1       7.409   5.438  18.137  0.00  0.00    +0.000 N 
ATOM     13  O   UNL     1       7.420   6.675  18.083  0.00  0.00    +0.000 OA
ENDBRANCH   1  12
BRANCH   5  14
ATOM     14  N   UNL     1       3.178   2.954  17.334  0.00  0.00    +0.000 N 
ATOM     15  O   UNL     1       3.249   1.819  17.825  0.00  0.00    +0.000 OA
ATOM     16  O   UNL     1       2.139   3.582  17.099  0.00  0.00    +0.000 OA
ENDBRANCH   5  14
BRANCH   6  17
ATOM     17  S   UNL     1       4.847   4.347  19.576  0.00  0.00    +0.000 S 
BRANCH  17  18
ATOM     18  C   UNL     1       3.604   5.567  19.606  0.00  0.00    +0.000 A 
ATOM     19  N   UNL     1       2.670   5.651  20.558  0.00  0.00    +0.000 NA
ATOM     20  N   UNL     1       1.989   6.747  20.170  0.00  0.00    +0.000 N 
ATOM     21  C   UNL     1       2.514   7.288  19.033  0.00  0.00    +0.000 A 
ATOM     22  N   UNL     1       3.535   6.540  18.650  0.00  0.00    +0.000 NA
ATOM     23  H   UNL     1       1.202   7.076  20.723  0.00  0.00    +0.000 HD
BRANCH  21  24
ATOM     24  C   UNL     1       1.948   8.526  18.449  0.00  0.00    +0.000 C 
ATOM     25  F   UNL     1       2.930   9.312  17.929  0.00  0.00    +0.000 F 
ATOM     26  F   UNL     1       1.081   8.273  17.438  0.00  0.00    +0.000 F 
ATOM     27  F   UNL     1       1.294   9.283  19.364  0.00  0.00    +0.000 F 
ENDBRANCH  21  24
ENDBRANCH  17  18
ENDBRANCH   6  17
TORSDOF 6
ENDMDL
MODEL 4
REMARK VINA RESULT:      -7.7      1.829      6.856
REMARK  Name = 
REMARK  6 active torsions:
REMARK  status: ('A' for Active; 'I' for Inactive)
REMARK    1  A    between atoms: N_2  and  C_4
REMARK    2  A    between atoms: C_6  and  C_7
REMARK    3  A    between atoms: C_12  and  N_13
REMARK    4  A    between atoms: C_16  and  S_17
REMARK    5  A    between atoms: S_17  and  C_18
REMARK    6  A    between atoms: C_21  and  C_22
REMARK                            x       y       z     vdW  Elec       q    Type
REMARK                         _______ _______ _______ _____ _____    ______ ____
ROOT
ATOM      1  C   UNL     1       6.446   4.758  17.266  0.00  0.00    +0.000 A 
ATOM      2  C   UNL     1       6.750   4.698  15.889  0.00  0.00    +0.000 A 
ATOM      3  C   UNL     1       5.879   4.058  14.998  0.00  0.00    +0.000 A 
ATOM      4  C   UNL     1       4.723   3.464  15.521  0.00  0.00    +0.000 A 
ATOM      5  C   UNL     1       4.442   3.541  16.903  0.00  0.00    +0.000 A 
ATOM      6  C   UNL     1       5.284   4.193  17.821  0.00  0.00    +0.000 A 
ENDROOT
BRANCH   3   7
ATOM      7  C   UNL     1       6.157   4.013  13.512  0.00  0.00    +0.000 C 
ATOM      8  F   UNL     1       6.629   2.810  13.090  0.00  0.00    +0.000 F 
ATOM      9  F   UNL     1       5.047   4.269  12.773  0.00  0.00    +0.000 F 
ATOM     10  F   UNL     1       7.085   4.936  13.140  0.00  0.00    +0.000 F 
ENDBRANCH   3   7
BRANCH   1  12
ATOM     11  O   UNL     1       7.335   6.704  18.088  0.00  0.00    +0.000 OA
ATOM     12  N   UNL     1       7.403   5.468  18.094  0.00  0.00    +0.000 N 
ATOM     13  O   UNL     1       8.157   4.785  18.800  0.00  0.00    +0.000 OA
ENDBRANCH   1  12
BRANCH   5  14
ATOM     14  N   UNL     1       3.203   2.919  17.334  0.00  0.00    +0.000 N 
ATOM     15  O   UNL     1       3.292   1.783  17.817  0.00  0.00    +0.000 OA
ATOM     16  O   UNL     1       2.155   3.536  17.114  0.00  0.00    +0.000 OA
ENDBRANCH   5  14
BRANCH   6  17
ATOM     17  S   UNL     1       4.867   4.348  19.556  0.00  0.00    +0.000 S 
BRANCH  17  18
ATOM     18  C   UNL     1       3.617   5.561  19.590  0.00  0.00    +0.000 A 
ATOM     19  N   UNL     1       2.679   5.632  20.538  0.00  0.00    +0.000 NA
ATOM     20  N   UNL     1       1.993   6.728  20.156  0.00  0.00    +0.000 N 
ATOM     21  C   UNL     1       2.520   7.280  19.025  0.00  0.00    +0.000 A 
ATOM     22  N   UNL     1       3.547   6.541  18.641  0.00  0.00    +0.000 NA
ATOM     23  H   UNL     1       1.202   7.048  20.707  0.00  0.00    +0.000 HD
BRANCH  21  24
ATOM     24  C   UNL     1       1.950   8.519  18.448  0.00  0.00    +0.000 C 
ATOM     25  F   UNL     1       1.271   9.228  19.391  0.00  0.00    +0.000 F 
ATOM     26  F   UNL     1       2.903   9.348  17.956  0.00  0.00    +0.000 F 
ATOM     27  F   UNL     1       1.071   8.272  17.445  0.00  0.00    +0.000 F 
ENDBRANCH  21  24
ENDBRANCH  17  18
ENDBRANCH   6  17
TORSDOF 6
ENDMDL
MODEL 5
REMARK VINA RESULT:      -7.7      0.256      1.394
REMARK  Name = 
REMARK  6 active torsions:
REMARK  status: ('A' for Active; 'I' for Inactive)
REMARK    1  A    between atoms: N_2  and  C_4
REMARK    2  A    between atoms: C_6  and  C_7
REMARK    3  A    between atoms: C_12  and  N_13
REMARK    4  A    between atoms: C_16  and  S_17
REMARK    5  A    between atoms: S_17  and  C_18
REMARK    6  A    between atoms: C_21  and  C_22
REMARK                            x       y       z     vdW  Elec       q    Type
REMARK                         _______ _______ _______ _____ _____    ______ ____
ROOT
ATOM      1  C   UNL     1       3.298   5.080  17.836  0.00  0.00    +0.000 A 
ATOM      2  C   UNL     1       2.378   6.141  17.974  0.00  0.00    +0.000 A 
ATOM      3  C   UNL     1       2.824   7.468  18.002  0.00  0.00    +0.000 A 
ATOM      4  C   UNL     1       4.203   7.700  17.914  0.00  0.00    +0.000 A 
ATOM      5  C   UNL     1       5.102   6.619  17.775  0.00  0.00    +0.000 A 
ATOM      6  C   UNL     1       4.686   5.277  17.724  0.00  0.00    +0.000 A 
ENDROOT
BRANCH   3   7
ATOM      7  C   UNL     1       1.858   8.627  18.106  0.00  0.00    +0.000 C 
ATOM      8  F   UNL     1       2.410   9.818  17.753  0.00  0.00    +0.000 F 
ATOM      9  F   UNL     1       0.767   8.462  17.314  0.00  0.00    +0.000 F 
ATOM     10  F   UNL     1       1.389   8.787  19.373  0.00  0.00    +0.000 F 
ENDBRANCH   3   7
BRANCH   1  12
ATOM     11  O   UNL     1       2.372   3.329  16.682  0.00  0.00    +0.000 OA
ATOM     12  N   UNL     1       2.725   3.747  17.792  0.00  0.00    +0.000 N 
ATOM     13  O   UNL     1       2.709   3.103  18.850  0.00  0.00    +0.000 OA
ENDBRANCH   1  12
BRANCH   5  14
ATOM     14  N   UNL     1       6.506   6.974  17.663  0.00  0.00    +0.000 N 
ATOM     15  O   UNL     1       6.826   7.670  16.690  0.00  0.00    +0.000 OA
ATOM     16  O   UNL     1       7.279   6.492  18.499  0.00  0.00    +0.000 OA
ENDBRANCH   5  14
BRANCH   6  17
ATOM     17  S   UNL     1       5.837   3.929  17.465  0.00  0.00    +0.000 S 
BRANCH  17  18
ATOM     18  C   UNL     1       6.384   4.142  15.824  0.00  0.00    +0.000 A 
ATOM     19  N   UNL     1       7.500   4.798  15.494  0.00  0.00    +0.000 NA
ATOM     20  N   UNL     1       7.507   4.657  14.154  0.00  0.00    +0.000 N 
ATOM     21  C   UNL     1       6.433   3.937  13.719  0.00  0.00    +0.000 A 
ATOM     22  N   UNL     1       5.697   3.613  14.769  0.00  0.00    +0.000 NA
ATOM     23  H   UNL     1       8.266   5.055  13.607  0.00  0.00    +0.000 HD
BRANCH  21  24
ATOM     24  C   UNL     1       6.261   3.622  12.282  0.00  0.00    +0.000 C 
ATOM     25  F   UNL     1       6.625   2.338  12.017  0.00  0.00    +0.000 F 
ATOM     26  F   UNL     1       4.974   3.749  11.874  0.00  0.00    +0.000 F 
ATOM     27  F   UNL     1       7.020   4.410  11.480  0.00  0.00    +0.000 F 
ENDBRANCH  21  24
ENDBRANCH  17  18
ENDBRANCH   6  17
TORSDOF 6
ENDMDL
MODEL 6
REMARK VINA RESULT:      -7.6      0.433      1.172
REMARK  Name = 
REMARK  6 active torsions:
REMARK  status: ('A' for Active; 'I' for Inactive)
REMARK    1  A    between atoms: N_2  and  C_4
REMARK    2  A    between atoms: C_6  and  C_7
REMARK    3  A    between atoms: C_12  and  N_13
REMARK    4  A    between atoms: C_16  and  S_17
REMARK    5  A    between atoms: S_17  and  C_18
REMARK    6  A    between atoms: C_21  and  C_22
REMARK                            x       y       z     vdW  Elec       q    Type
REMARK                         _______ _______ _______ _____ _____    ______ ____
ROOT
ATOM      1  C   UNL     1       3.220   5.073  17.852  0.00  0.00    +0.000 A 
ATOM      2  C   UNL     1       2.320   6.149  18.010  0.00  0.00    +0.000 A 
ATOM      3  C   UNL     1       2.791   7.468  18.044  0.00  0.00    +0.000 A 
ATOM      4  C   UNL     1       4.172   7.676  17.942  0.00  0.00    +0.000 A 
ATOM      5  C   UNL     1       5.051   6.581  17.782  0.00  0.00    +0.000 A 
ATOM      6  C   UNL     1       4.610   5.247  17.724  0.00  0.00    +0.000 A 
ENDROOT
BRANCH   3   7
ATOM      7  C   UNL     1       1.847   8.643  18.171  0.00  0.00    +0.000 C 
ATOM      8  F   UNL     1       1.308   8.766  19.413  0.00  0.00    +0.000 F 
ATOM      9  F   UNL     1       2.458   9.826  17.900  0.00  0.00    +0.000 F 
ATOM     10  F   UNL     1       0.798   8.549  17.309  0.00  0.00    +0.000 F 
ENDBRANCH   3   7
BRANCH   1  12
ATOM     11  O   UNL     1       2.260   3.345  16.692  0.00  0.00    +0.000 OA
ATOM     12  N   UNL     1       2.623   3.751  17.803  0.00  0.00    +0.000 N 
ATOM     13  O   UNL     1       2.597   3.104  18.858  0.00  0.00    +0.000 OA
ENDBRANCH   1  12
BRANCH   5  14
ATOM     14  N   UNL     1       6.458   6.912  17.656  0.00  0.00    +0.000 N 
ATOM     15  O   UNL     1       6.779   7.612  16.686  0.00  0.00    +0.000 OA
ATOM     16  O   UNL     1       7.233   6.408  18.477  0.00  0.00    +0.000 OA
ENDBRANCH   5  14
BRANCH   6  17
ATOM     17  S   UNL     1       5.733   3.881  17.439  0.00  0.00    +0.000 S 
BRANCH  17  18
ATOM     18  C   UNL     1       6.201   4.052  15.769  0.00  0.00    +0.000 A 
ATOM     19  N   UNL     1       7.302   4.694  15.370  0.00  0.00    +0.000 NA
ATOM     20  N   UNL     1       7.243   4.521  14.034  0.00  0.00    +0.000 N 
ATOM     21  C   UNL     1       6.146   3.796  13.670  0.00  0.00    +0.000 A 
ATOM     22  N   UNL     1       5.462   3.501  14.762  0.00  0.00    +0.000 NA
ATOM     23  H   UNL     1       7.976   4.901  13.442  0.00  0.00    +0.000 HD
BRANCH  21  24
ATOM     24  C   UNL     1       5.903   3.447  12.251  0.00  0.00    +0.000 C 
ATOM     25  F   UNL     1       4.646   3.805  11.871  0.00  0.00    +0.000 F 
ATOM     26  F   UNL     1       6.755   4.081  11.408  0.00  0.00    +0.000 F 
ATOM     27  F   UNL     1       6.013   2.117  12.014  0.00  0.00    +0.000 F 
ENDBRANCH  21  24
ENDBRANCH  17  18
ENDBRANCH   6  17
TORSDOF 6
ENDMDL
MODEL 7
REMARK VINA RESULT:      -7.6      3.121      3.854
REMARK  Name = 
REMARK  6 active torsions:
REMARK  status: ('A' for Active; 'I' for Inactive)
REMARK    1  A    between atoms: N_2  and  C_4
REMARK    2  A    between atoms: C_6  and  C_7
REMARK    3  A    between atoms: C_12  and  N_13
REMARK    4  A    between atoms: C_16  and  S_17
REMARK    5  A    between atoms: S_17  and  C_18
REMARK    6  A    between atoms: C_21  and  C_22
REMARK                            x       y       z     vdW  Elec       q    Type
REMARK                         _______ _______ _______ _____ _____    ______ ____
ROOT
ATOM      1  C   UNL     1       4.821   5.181  19.189  0.00  0.00    +0.000 A 
ATOM      2  C   UNL     1       3.948   4.273  19.826  0.00  0.00    +0.000 A 
ATOM      3  C   UNL     1       2.580   4.553  19.920  0.00  0.00    +0.000 A 
ATOM      4  C   UNL     1       2.118   5.764  19.389  0.00  0.00    +0.000 A 
ATOM      5  C   UNL     1       3.013   6.654  18.755  0.00  0.00    +0.000 A 
ATOM      6  C   UNL     1       4.389   6.395  18.626  0.00  0.00    +0.000 A 
ENDROOT
BRANCH   3   7
ATOM      7  C   UNL     1       1.613   3.580  20.559  0.00  0.00    +0.000 C 
ATOM      8  F   UNL     1       1.788   2.298  20.140  0.00  0.00    +0.000 F 
ATOM      9  F   UNL     1       1.725   3.558  21.913  0.00  0.00    +0.000 F 
ATOM     10  F   UNL     1       0.318   3.895  20.288  0.00  0.00    +0.000 F 
ENDBRANCH   3   7
BRANCH   1  12
ATOM     11  O   UNL     1       6.985   5.307  19.935  0.00  0.00    +0.000 OA
ATOM     12  N   UNL     1       6.214   4.779  19.124  0.00  0.00    +0.000 N 
ATOM     13  O   UNL     1       6.507   3.884  18.320  0.00  0.00    +0.000 OA
ENDBRANCH   1  12
BRANCH   5  14
ATOM     14  N   UNL     1       2.424   7.866  18.213  0.00  0.00    +0.000 N 
ATOM     15  O   UNL     1       1.799   8.582  19.007  0.00  0.00    +0.000 OA
ATOM     16  O   UNL     1       2.527   8.048  16.995  0.00  0.00    +0.000 OA
ENDBRANCH   5  14
BRANCH   6  17
ATOM     17  S   UNL     1       5.491   7.500  17.746  0.00  0.00    +0.000 S 
BRANCH  17  18
ATOM     18  C   UNL     1       6.176   6.510  16.487  0.00  0.00    +0.000 A 
ATOM     19  N   UNL     1       7.488   6.397  16.264  0.00  0.00    +0.000 NA
ATOM     20  N   UNL     1       7.513   5.516  15.245  0.00  0.00    +0.000 N 
ATOM     21  C   UNL     1       6.255   5.124  14.891  0.00  0.00    +0.000 A 
ATOM     22  N   UNL     1       5.389   5.758  15.662  0.00  0.00    +0.000 NA
ATOM     23  H   UNL     1       8.403   5.218  14.855  0.00  0.00    +0.000 HD
BRANCH  21  24
ATOM     24  C   UNL     1       6.045   4.124  13.818  0.00  0.00    +0.000 C 
ATOM     25  F   UNL     1       4.774   4.187  13.336  0.00  0.00    +0.000 F 
ATOM     26  F   UNL     1       6.868   4.319  12.759  0.00  0.00    +0.000 F 
ATOM     27  F   UNL     1       6.230   2.851  14.247  0.00  0.00    +0.000 F 
ENDBRANCH  21  24
ENDBRANCH  17  18
ENDBRANCH   6  17
TORSDOF 6
ENDMDL
MODEL 8
REMARK VINA RESULT:      -7.6      1.755      6.308
REMARK  Name = 
REMARK  6 active torsions:
REMARK  status: ('A' for Active; 'I' for Inactive)
REMARK    1  A    between atoms: N_2  and  C_4
REMARK    2  A    between atoms: C_6  and  C_7
REMARK    3  A    between atoms: C_12  and  N_13
REMARK    4  A    between atoms: C_16  and  S_17
REMARK    5  A    between atoms: S_17  and  C_18
REMARK    6  A    between atoms: C_21  and  C_22
REMARK                            x       y       z     vdW  Elec       q    Type
REMARK                         _______ _______ _______ _____ _____    ______ ____
ROOT
ATOM      1  C   UNL     1       4.337   3.687  16.699  0.00  0.00    +0.000 A 
ATOM      2  C   UNL     1       4.625   3.561  15.323  0.00  0.00    +0.000 A 
ATOM      3  C   UNL     1       5.833   4.045  14.805  0.00  0.00    +0.000 A 
ATOM      4  C   UNL     1       6.722   4.673  15.687  0.00  0.00    +0.000 A 
ATOM      5  C   UNL     1       6.409   4.783  17.060  0.00  0.00    +0.000 A 
ATOM      6  C   UNL     1       5.215   4.291  17.616  0.00  0.00    +0.000 A 
ENDROOT
BRANCH   3   7
ATOM      7  C   UNL     1       6.187   3.888  13.343  0.00  0.00    +0.000 C 
ATOM      8  F   UNL     1       6.654   2.648  13.035  0.00  0.00    +0.000 F 
ATOM      9  F   UNL     1       5.123   4.109  12.528  0.00  0.00    +0.000 F 
ATOM     10  F   UNL     1       7.153   4.764  12.956  0.00  0.00    +0.000 F 
ENDBRANCH   3   7
BRANCH   1  12
ATOM     11  O   UNL     1       3.107   2.008  17.662  0.00  0.00    +0.000 OA
ATOM     12  N   UNL     1       3.069   3.127  17.133  0.00  0.00    +0.000 N 
ATOM     13  O   UNL     1       2.066   3.842  17.016  0.00  0.00    +0.000 OA
ENDBRANCH   1  12
BRANCH   5  14
ATOM     14  N   UNL     1       7.414   5.424  17.889  0.00  0.00    +0.000 N 
ATOM     15  O   UNL     1       7.498   6.656  17.805  0.00  0.00    +0.000 OA
ATOM     16  O   UNL     1       8.154   4.687  18.551  0.00  0.00    +0.000 OA
ENDBRANCH   5  14
BRANCH   6  17
ATOM     17  S   UNL     1       4.877   4.369  19.373  0.00  0.00    +0.000 S 
BRANCH  17  18
ATOM     18  C   UNL     1       3.638   5.586  19.518  0.00  0.00    +0.000 A 
ATOM     19  N   UNL     1       2.782   5.654  20.541  0.00  0.00    +0.000 NA
ATOM     20  N   UNL     1       2.072   6.755  20.223  0.00  0.00    +0.000 N 
ATOM     21  C   UNL     1       2.506   7.312  19.056  0.00  0.00    +0.000 A 
ATOM     22  N   UNL     1       3.494   6.572  18.584  0.00  0.00    +0.000 NA
ATOM     23  H   UNL     1       1.331   7.074  20.841  0.00  0.00    +0.000 HD
BRANCH  21  24
ATOM     24  C   UNL     1       1.895   8.557  18.536  0.00  0.00    +0.000 C 
ATOM     25  F   UNL     1       2.850   9.420  18.094  0.00  0.00    +0.000 F 
ATOM     26  F   UNL     1       1.067   8.330  17.488  0.00  0.00    +0.000 F 
ATOM     27  F   UNL     1       1.182   9.223  19.478  0.00  0.00    +0.000 F 
ENDBRANCH  21  24
ENDBRANCH  17  18
ENDBRANCH   6  17
TORSDOF 6
ENDMDL
MODEL 9
REMARK VINA RESULT:      -7.6      1.762      6.299
REMARK  Name = 
REMARK  6 active torsions:
REMARK  status: ('A' for Active; 'I' for Inactive)
REMARK    1  A    between atoms: N_2  and  C_4
REMARK    2  A    between atoms: C_6  and  C_7
REMARK    3  A    between atoms: C_12  and  N_13
REMARK    4  A    between atoms: C_16  and  S_17
REMARK    5  A    between atoms: S_17  and  C_18
REMARK    6  A    between atoms: C_21  and  C_22
REMARK                            x       y       z     vdW  Elec       q    Type
REMARK                         _______ _______ _______ _____ _____    ______ ____
ROOT
ATOM      1  C   UNL     1       4.314   3.705  16.711  0.00  0.00    +0.000 A 
ATOM      2  C   UNL     1       4.592   3.571  15.334  0.00  0.00    +0.000 A 
ATOM      3  C   UNL     1       5.805   4.032  14.808  0.00  0.00    +0.000 A 
ATOM      4  C   UNL     1       6.711   4.646  15.682  0.00  0.00    +0.000 A 
ATOM      5  C   UNL     1       6.408   4.764  17.057  0.00  0.00    +0.000 A 
ATOM      6  C   UNL     1       5.209   4.294  17.621  0.00  0.00    +0.000 A 
ENDROOT
BRANCH   3   7
ATOM      7  C   UNL     1       6.147   3.866  13.343  0.00  0.00    +0.000 C 
ATOM      8  F   UNL     1       7.109   4.728  12.917  0.00  0.00    +0.000 F 
ATOM      9  F   UNL     1       6.601   2.618  13.059  0.00  0.00    +0.000 F 
ATOM     10  F   UNL     1       5.069   4.073  12.541  0.00  0.00    +0.000 F 
ENDBRANCH   3   7
BRANCH   1  12
ATOM     11  O   UNL     1       2.043   3.879  16.971  0.00  0.00    +0.000 OA
ATOM     12  N   UNL     1       3.040   3.169  17.154  0.00  0.00    +0.000 N 
ATOM     13  O   UNL     1       3.037   2.016  17.605  0.00  0.00    +0.000 OA
ENDBRANCH   1  12
BRANCH   5  14
ATOM     14  N   UNL     1       7.429   5.388  17.879  0.00  0.00    +0.000 N 
ATOM     15  O   UNL     1       8.179   4.628  18.505  0.00  0.00    +0.000 OA
ATOM     16  O   UNL     1       7.422   6.623  17.949  0.00  0.00    +0.000 OA
ENDBRANCH   5  14
BRANCH   6  17
ATOM     17  S   UNL     1       4.883   4.382  19.381  0.00  0.00    +0.000 S 
BRANCH  17  18
ATOM     18  C   UNL     1       3.638   5.592  19.526  0.00  0.00    +0.000 A 
ATOM     19  N   UNL     1       2.776   5.650  20.545  0.00  0.00    +0.000 NA
ATOM     20  N   UNL     1       2.063   6.749  20.231  0.00  0.00    +0.000 N 
ATOM     21  C   UNL     1       2.500   7.316  19.070  0.00  0.00    +0.000 A 
ATOM     22  N   UNL     1       3.494   6.583  18.598  0.00  0.00    +0.000 NA
ATOM     23  H   UNL     1       1.317   7.061  20.847  0.00  0.00    +0.000 HD
BRANCH  21  24
ATOM     24  C   UNL     1       1.886   8.561  18.554  0.00  0.00    +0.000 C 
ATOM     25  F   UNL     1       2.838   9.424  18.105  0.00  0.00    +0.000 F 
ATOM     26  F   UNL     1       1.050   8.334  17.512  0.00  0.00    +0.000 F 
ATOM     27  F   UNL     1       1.180   9.227  19.502  0.00  0.00    +0.000 F 
ENDBRANCH  21  24
ENDBRANCH  17  18
ENDBRANCH   6  17
TORSDOF 6
ENDMDL
