MODEL 1
REMARK VINA RESULT:      -7.9      0.000      0.000
REMARK  Name = 
REMARK  6 active torsions:
REMARK  status: ('A' for Active; 'I' for Inactive)
REMARK    1  A    between atoms: N_11  and  C_12
REMARK    2  A    between atoms: C_12  and  C_13
REMARK    3  A    between atoms: C_13  and  O_14
REMARK    4  A    between atoms: O_14  and  C_15
REMARK    5  A    between atoms: C_15  and  N_17
REMARK    6  A    between atoms: N_17  and  C_18
REMARK                            x       y       z     vdW  Elec       q    Type
REMARK                         _______ _______ _______ _____ _____    ______ ____
ROOT
ATOM      1  C   UNL     1       4.177   6.583  17.891  0.00  0.00    +0.000 C 
ENDROOT
BRANCH   1   2
ATOM      2  C   UNL     1       2.669   6.429  18.108  0.00  0.00    +0.000 C 
BRANCH   2  13
ATOM      3  O   UNL     1       1.683   6.400  20.903  0.00  0.00    +0.000 OA
ATOM      4  C   UNL     1       1.688   7.387  20.195  0.00  0.00    +0.000 C 
ATOM      5  C   UNL     1       1.156   8.690  20.599  0.00  0.00    +0.000 A 
ATOM      6  C   UNL     1       0.619   9.112  21.800  0.00  0.00    +0.000 A 
ATOM      7  C   UNL     1       0.185  10.440  21.880  0.00  0.00    +0.000 A 
ATOM      8  C   UNL     1       0.290  11.302  20.769  0.00  0.00    +0.000 A 
ATOM      9  C   UNL     1       0.833  10.851  19.559  0.00  0.00    +0.000 A 
ATOM     10  C   UNL     1       1.264   9.538  19.508  0.00  0.00    +0.000 A 
ATOM     11  C   UNL     1       1.865   8.773  18.417  0.00  0.00    +0.000 C 
ATOM     12  O   UNL     1       2.050   9.208  17.296  0.00  0.00    +0.000 OA
ATOM     13  N   UNL     1       2.130   7.524  18.908  0.00  0.00    +0.000 N 
ENDBRANCH   2  13
ENDBRANCH   1   2
BRANCH   1  14
ATOM     14  O   UNL     1       4.921   5.553  18.595  0.00  0.00    +0.000 OA
BRANCH  14  15
ATOM     15  C   UNL     1       5.169   4.354  17.994  0.00  0.00    +0.000 C 
ATOM     16  S   UNL     1       5.287   4.125  16.349  0.00  0.00    +0.000 S 
BRANCH  15  17
ATOM     17  N   UNL     1       5.334   3.289  18.830  0.00  0.00    +0.000 N 
ATOM     18  H   UNL     1       6.256   2.870  18.781  0.00  0.00    +0.000 HD
BRANCH  17  19
ATOM     19  C   UNL     1       4.326   2.615  19.655  0.00  0.00    +0.000 C 
ATOM     20  C   UNL     1       3.623   3.651  20.539  0.00  0.00    +0.000 C 
ATOM     21  C   UNL     1       2.635   3.086  21.559  0.00  0.00    +0.000 C 
ATOM     22  C   UNL     1       1.337   2.464  21.039  0.00  0.00    +0.000 C 
ATOM     23  C   UNL     1       0.684   3.187  19.862  0.00  0.00    +0.000 C 
ATOM     24  C   UNL     1       0.923   2.519  18.507  0.00  0.00    +0.000 C 
ATOM     25  C   UNL     1       2.348   2.561  17.945  0.00  0.00    +0.000 C 
ATOM     26  C   UNL     1       3.404   1.782  18.742  0.00  0.00    +0.000 C 
ENDBRANCH  17  19
ENDBRANCH  15  17
ENDBRANCH  14  15
ENDBRANCH   1  14
TORSDOF 6
ENDMDL
MODEL 2
REMARK VINA RESULT:      -7.9      2.094      7.281
REMARK  Name = 
REMARK  6 active torsions:
REMARK  status: ('A' for Active; 'I' for Inactive)
REMARK    1  A    between atoms: N_11  and  C_12
REMARK    2  A    between atoms: C_12  and  C_13
REMARK    3  A    between atoms: C_13  and  O_14
REMARK    4  A    between atoms: O_14  and  C_15
REMARK    5  A    between atoms: C_15  and  N_17
REMARK    6  A    between atoms: N_17  and  C_18
REMARK                            x       y       z     vdW  Elec       q    Type
REMARK                         _______ _______ _______ _____ _____    ______ ____
ROOT
ATOM      1  C   UNL     1       1.732   4.625  19.783  0.00  0.00    +0.000 C 
ENDROOT
BRANCH   1   2
ATOM      2  C   UNL     1       2.874   3.608  19.709  0.00  0.00    +0.000 C 
BRANCH   2  13
ATOM      3  O   UNL     1       2.553   3.241  16.785  0.00  0.00    +0.000 OA
ATOM      4  C   UNL     1       3.551   3.697  17.307  0.00  0.00    +0.000 C 
ATOM      5  C   UNL     1       4.760   4.079  16.574  0.00  0.00    +0.000 A 
ATOM      6  C   UNL     1       5.031   4.079  15.219  0.00  0.00    +0.000 A 
ATOM      7  C   UNL     1       6.303   4.502  14.816  0.00  0.00    +0.000 A 
ATOM      8  C   UNL     1       7.264   4.904  15.767  0.00  0.00    +0.000 A 
ATOM      9  C   UNL     1       6.969   4.891  17.136  0.00  0.00    +0.000 A 
ATOM     10  C   UNL     1       5.702   4.478  17.508  0.00  0.00    +0.000 A 
ATOM     11  C   UNL     1       5.090   4.352  18.829  0.00  0.00    +0.000 C 
ATOM     12  O   UNL     1       5.669   4.572  19.877  0.00  0.00    +0.000 OA
ATOM     13  N   UNL     1       3.805   3.928  18.631  0.00  0.00    +0.000 N 
ENDBRANCH   2  13
ENDBRANCH   1   2
BRANCH   1  14
ATOM     14  O   UNL     1       2.106   5.784  20.574  0.00  0.00    +0.000 OA
BRANCH  14  15
ATOM     15  C   UNL     1       2.173   7.018  19.995  0.00  0.00    +0.000 C 
ATOM     16  S   UNL     1       2.509   7.292  18.387  0.00  0.00    +0.000 S 
BRANCH  15  17
ATOM     17  N   UNL     1       1.936   8.079  20.819  0.00  0.00    +0.000 N 
ATOM     18  H   UNL     1       2.773   8.466  21.237  0.00  0.00    +0.000 HD
BRANCH  17  19
ATOM     19  C   UNL     1       0.645   8.613  21.265  0.00  0.00    +0.000 C 
ATOM     20  C   UNL     1       0.833   9.333  22.605  0.00  0.00    +0.000 C 
ATOM     21  C   UNL     1      -0.448   9.829  23.274  0.00  0.00    +0.000 C 
ATOM     22  C   UNL     1      -1.203  10.986  22.616  0.00  0.00    +0.000 C 
ATOM     23  C   UNL     1      -0.332  12.093  22.024  0.00  0.00    +0.000 C 
ATOM     24  C   UNL     1      -0.182  12.025  20.503  0.00  0.00    +0.000 C 
ATOM     25  C   UNL     1       0.631  10.861  19.929  0.00  0.00    +0.000 C 
ATOM     26  C   UNL     1       0.032   9.462  20.133  0.00  0.00    +0.000 C 
ENDBRANCH  17  19
ENDBRANCH  15  17
ENDBRANCH  14  15
ENDBRANCH   1  14
TORSDOF 6
ENDMDL
MODEL 3
REMARK VINA RESULT:      -7.8      2.056      7.168
REMARK  Name = 
REMARK  6 active torsions:
REMARK  status: ('A' for Active; 'I' for Inactive)
REMARK    1  A    between atoms: N_11  and  C_12
REMARK    2  A    between atoms: C_12  and  C_13
REMARK    3  A    between atoms: C_13  and  O_14
REMARK    4  A    between atoms: O_14  and  C_15
REMARK    5  A    between atoms: C_15  and  N_17
REMARK    6  A    between atoms: N_17  and  C_18
REMARK                            x       y       z     vdW  Elec       q    Type
REMARK                         _______ _______ _______ _____ _____    ______ ____
ROOT
ATOM      1  C   UNL     1       2.018   4.517  19.858  0.00  0.00    +0.000 C 
ENDROOT
BRANCH   1   2
ATOM      2  C   UNL     1       3.189   3.532  19.826  0.00  0.00    +0.000 C 
BRANCH   2  13
ATOM      3  O   UNL     1       5.932   4.655  19.779  0.00  0.00    +0.000 OA
ATOM      4  C   UNL     1       5.318   4.321  18.785  0.00  0.00    +0.000 C 
ATOM      5  C   UNL     1       5.820   4.477  17.418  0.00  0.00    +0.000 A 
ATOM      6  C   UNL     1       7.034   4.943  16.951  0.00  0.00    +0.000 A 
ATOM      7  C   UNL     1       7.219   4.978  15.564  0.00  0.00    +0.000 A 
ATOM      8  C   UNL     1       6.197   4.559  14.689  0.00  0.00    +0.000 A 
ATOM      9  C   UNL     1       4.971   4.096  15.185  0.00  0.00    +0.000 A 
ATOM     10  C   UNL     1       4.816   4.061  16.559  0.00  0.00    +0.000 A 
ATOM     11  C   UNL     1       3.683   3.641  17.379  0.00  0.00    +0.000 C 
ATOM     12  O   UNL     1       2.613   3.269  16.933  0.00  0.00    +0.000 OA
ATOM     13  N   UNL     1       4.066   3.780  18.685  0.00  0.00    +0.000 N 
ENDBRANCH   2  13
ENDBRANCH   1   2
BRANCH   1  14
ATOM     14  O   UNL     1       2.389   5.760  20.511  0.00  0.00    +0.000 OA
BRANCH  14  15
ATOM     15  C   UNL     1       2.316   6.940  19.832  0.00  0.00    +0.000 C 
ATOM     16  S   UNL     1       2.498   7.098  18.184  0.00  0.00    +0.000 S 
BRANCH  15  17
ATOM     17  N   UNL     1       2.068   8.050  20.586  0.00  0.00    +0.000 N 
ATOM     18  H   UNL     1       2.904   8.545  20.872  0.00  0.00    +0.000 HD
BRANCH  17  19
ATOM     19  C   UNL     1       0.787   8.511  21.132  0.00  0.00    +0.000 C 
ATOM     20  C   UNL     1       1.027   9.170  22.495  0.00  0.00    +0.000 C 
ATOM     21  C   UNL     1      -0.229   9.582  23.260  0.00  0.00    +0.000 C 
ATOM     22  C   UNL     1      -1.063  10.740  22.707  0.00  0.00    +0.000 C 
ATOM     23  C   UNL     1      -0.268  11.908  22.125  0.00  0.00    +0.000 C 
ATOM     24  C   UNL     1      -0.205  11.922  20.596  0.00  0.00    +0.000 C 
ATOM     25  C   UNL     1       0.614  10.820  19.917  0.00  0.00    +0.000 C 
ATOM     26  C   UNL     1       0.079   9.390  20.082  0.00  0.00    +0.000 C 
ENDBRANCH  17  19
ENDBRANCH  15  17
ENDBRANCH  14  15
ENDBRANCH   1  14
TORSDOF 6
ENDMDL
MODEL 4
REMARK VINA RESULT:      -7.6      0.239      1.762
REMARK  Name = 
REMARK  6 active torsions:
REMARK  status: ('A' for Active; 'I' for Inactive)
REMARK    1  A    between atoms: N_11  and  C_12
REMARK    2  A    between atoms: C_12  and  C_13
REMARK    3  A    between atoms: C_13  and  O_14
REMARK    4  A    between atoms: O_14  and  C_15
REMARK    5  A    between atoms: C_15  and  N_17
REMARK    6  A    between atoms: N_17  and  C_18
REMARK                            x       y       z     vdW  Elec       q    Type
REMARK                         _______ _______ _______ _____ _____    ______ ____
ROOT
ATOM      1  C   UNL     1       4.459   6.664  18.237  0.00  0.00    +0.000 C 
ENDROOT
BRANCH   1   2
ATOM      2  C   UNL     1       2.951   6.405  18.185  0.00  0.00    +0.000 C 
BRANCH   2  13
ATOM      3  O   UNL     1       2.314   9.121  17.186  0.00  0.00    +0.000 OA
ATOM      4  C   UNL     1       1.982   8.704  18.278  0.00  0.00    +0.000 C 
ATOM      5  C   UNL     1       1.270   9.500  19.280  0.00  0.00    +0.000 A 
ATOM      6  C   UNL     1       0.780  10.791  19.224  0.00  0.00    +0.000 A 
ATOM      7  C   UNL     1       0.137  11.285  20.365  0.00  0.00    +0.000 A 
ATOM      8  C   UNL     1       0.008  10.490  21.522  0.00  0.00    +0.000 A 
ATOM      9  C   UNL     1       0.517   9.185  21.557  0.00  0.00    +0.000 A 
ATOM     10  C   UNL     1       1.139   8.716  20.415  0.00  0.00    +0.000 A 
ATOM     11  C   UNL     1       1.764   7.427  20.131  0.00  0.00    +0.000 C 
ATOM     12  O   UNL     1       1.871   6.523  20.939  0.00  0.00    +0.000 OA
ATOM     13  N   UNL     1       2.202   7.475  18.836  0.00  0.00    +0.000 N 
ENDBRANCH   2  13
ENDBRANCH   1   2
BRANCH   1  14
ATOM     14  O   UNL     1       5.171   5.537  18.814  0.00  0.00    +0.000 OA
BRANCH  14  15
ATOM     15  C   UNL     1       5.294   4.373  18.113  0.00  0.00    +0.000 C 
ATOM     16  S   UNL     1       5.377   4.270  16.453  0.00  0.00    +0.000 S 
BRANCH  15  17
ATOM     17  N   UNL     1       5.357   3.231  18.858  0.00  0.00    +0.000 N 
ATOM     18  H   UNL     1       6.220   2.713  18.738  0.00  0.00    +0.000 HD
BRANCH  17  19
ATOM     19  C   UNL     1       4.303   2.614  19.669  0.00  0.00    +0.000 C 
ATOM     20  C   UNL     1       3.638   3.690  20.535  0.00  0.00    +0.000 C 
ATOM     21  C   UNL     1       2.607   3.184  21.542  0.00  0.00    +0.000 C 
ATOM     22  C   UNL     1       1.288   2.624  21.004  0.00  0.00    +0.000 C 
ATOM     23  C   UNL     1       0.691   3.370  19.811  0.00  0.00    +0.000 C 
ATOM     24  C   UNL     1       0.919   2.681  18.465  0.00  0.00    +0.000 C 
ATOM     25  C   UNL     1       2.353   2.647  17.927  0.00  0.00    +0.000 C 
ATOM     26  C   UNL     1       3.355   1.822  18.746  0.00  0.00    +0.000 C 
ENDBRANCH  17  19
ENDBRANCH  15  17
ENDBRANCH  14  15
ENDBRANCH   1  14
TORSDOF 6
ENDMDL
MODEL 5
REMARK VINA RESULT:      -7.5      2.524      6.061
REMARK  Name = 
REMARK  6 active torsions:
REMARK  status: ('A' for Active; 'I' for Inactive)
REMARK    1  A    between atoms: N_11  and  C_12
REMARK    2  A    between atoms: C_12  and  C_13
REMARK    3  A    between atoms: C_13  and  O_14
REMARK    4  A    between atoms: O_14  and  C_15
REMARK    5  A    between atoms: C_15  and  N_17
REMARK    6  A    between atoms: N_17  and  C_18
REMARK                            x       y       z     vdW  Elec       q    Type
REMARK                         _______ _______ _______ _____ _____    ______ ____
ROOT
ATOM      1  C   UNL     1       2.071   2.599  17.896  0.00  0.00    +0.000 C 
ENDROOT
BRANCH   1   2
ATOM      2  C   UNL     1       3.501   2.052  17.870  0.00  0.00    +0.000 C 
BRANCH   2  13
ATOM      3  O   UNL     1       5.088   3.172  20.108  0.00  0.00    +0.000 OA
ATOM      4  C   UNL     1       5.151   3.574  18.964  0.00  0.00    +0.000 C 
ATOM      5  C   UNL     1       5.976   4.706  18.534  0.00  0.00    +0.000 A 
ATOM      6  C   UNL     1       6.862   5.495  19.242  0.00  0.00    +0.000 A 
ATOM      7  C   UNL     1       7.509   6.521  18.543  0.00  0.00    +0.000 A 
ATOM      8  C   UNL     1       7.251   6.736  17.174  0.00  0.00    +0.000 A 
ATOM      9  C   UNL     1       6.345   5.926  16.478  0.00  0.00    +0.000 A 
ATOM     10  C   UNL     1       5.726   4.913  17.188  0.00  0.00    +0.000 A 
ATOM     11  C   UNL     1       4.747   3.913  16.765  0.00  0.00    +0.000 C 
ATOM     12  O   UNL     1       4.269   3.851  15.647  0.00  0.00    +0.000 OA
ATOM     13  N   UNL     1       4.486   3.129  17.854  0.00  0.00    +0.000 N 
ENDBRANCH   2  13
ENDBRANCH   1   2
BRANCH   1  14
ATOM     14  O   UNL     1       1.426   2.334  19.170  0.00  0.00    +0.000 OA
BRANCH  14  15
ATOM     15  C   UNL     1       1.545   3.224  20.198  0.00  0.00    +0.000 C 
ATOM     16  S   UNL     1       1.986   2.823  21.753  0.00  0.00    +0.000 S 
BRANCH  15  17
ATOM     17  N   UNL     1       1.283   4.528  19.893  0.00  0.00    +0.000 N 
ATOM     18  H   UNL     1       0.295   4.739  19.815  0.00  0.00    +0.000 HD
BRANCH  17  19
ATOM     19  C   UNL     1       2.233   5.587  19.535  0.00  0.00    +0.000 C 
ATOM     20  C   UNL     1       1.951   6.053  18.102  0.00  0.00    +0.000 C 
ATOM     21  C   UNL     1       2.946   7.061  17.529  0.00  0.00    +0.000 C 
ATOM     22  C   UNL     1       2.962   8.473  18.118  0.00  0.00    +0.000 C 
ATOM     23  C   UNL     1       1.594   9.062  18.461  0.00  0.00    +0.000 C 
ATOM     24  C   UNL     1       1.250   9.017  19.951  0.00  0.00    +0.000 C 
ATOM     25  C   UNL     1       0.988   7.640  20.570  0.00  0.00    +0.000 C 
ATOM     26  C   UNL     1       2.191   6.687  20.614  0.00  0.00    +0.000 C 
ENDBRANCH  17  19
ENDBRANCH  15  17
ENDBRANCH  14  15
ENDBRANCH   1  14
TORSDOF 6
ENDMDL
MODEL 6
REMARK VINA RESULT:      -7.3      2.130      7.458
REMARK  Name = 
REMARK  6 active torsions:
REMARK  status: ('A' for Active; 'I' for Inactive)
REMARK    1  A    between atoms: N_11  and  C_12
REMARK    2  A    between atoms: C_12  and  C_13
REMARK    3  A    between atoms: C_13  and  O_14
REMARK    4  A    between atoms: O_14  and  C_15
REMARK    5  A    between atoms: C_15  and  N_17
REMARK    6  A    between atoms: N_17  and  C_18
REMARK                            x       y       z     vdW  Elec       q    Type
REMARK                         _______ _______ _______ _____ _____    ______ ____
ROOT
ATOM      1  C   UNL     1       2.077   5.355  19.772  0.00  0.00    +0.000 C 
ENDROOT
BRANCH   1   2
ATOM      2  C   UNL     1       3.263   4.388  19.833  0.00  0.00    +0.000 C 
BRANCH   2  13
ATOM      3  O   UNL     1       2.754   3.477  17.059  0.00  0.00    +0.000 OA
ATOM      4  C   UNL     1       3.774   4.032  17.415  0.00  0.00    +0.000 C 
ATOM      5  C   UNL     1       4.922   4.281  16.540  0.00  0.00    +0.000 A 
ATOM      6  C   UNL     1       5.101   4.029  15.193  0.00  0.00    +0.000 A 
ATOM      7  C   UNL     1       6.333   4.382  14.630  0.00  0.00    +0.000 A 
ATOM      8  C   UNL     1       7.347   4.964  15.419  0.00  0.00    +0.000 A 
ATOM      9  C   UNL     1       7.145   5.206  16.784  0.00  0.00    +0.000 A 
ATOM     10  C   UNL     1       5.916   4.857  17.314  0.00  0.00    +0.000 A 
ATOM     11  C   UNL     1       5.397   4.975  18.676  0.00  0.00    +0.000 C 
ATOM     12  O   UNL     1       6.040   5.393  19.621  0.00  0.00    +0.000 OA
ATOM     13  N   UNL     1       4.112   4.509  18.651  0.00  0.00    +0.000 N 
ENDBRANCH   2  13
ENDBRANCH   1   2
BRANCH   1  14
ATOM     14  O   UNL     1       2.487   6.716  20.072  0.00  0.00    +0.000 OA
BRANCH  14  15
ATOM     15  C   UNL     1       2.108   7.742  19.257  0.00  0.00    +0.000 C 
ATOM     16  S   UNL     1       2.789   8.077  17.776  0.00  0.00    +0.000 S 
BRANCH  15  17
ATOM     17  N   UNL     1       1.089   8.525  19.717  0.00  0.00    +0.000 N 
ATOM     18  H   UNL     1       0.171   8.217  19.421  0.00  0.00    +0.000 HD
BRANCH  17  19
ATOM     19  C   UNL     1       1.177   9.797  20.442  0.00  0.00    +0.000 C 
ATOM     20  C   UNL     1       0.140  10.774  19.874  0.00  0.00    +0.000 C 
ATOM     21  C   UNL     1       0.197  12.194  20.433  0.00  0.00    +0.000 C 
ATOM     22  C   UNL     1      -0.212  12.413  21.891  0.00  0.00    +0.000 C 
ATOM     23  C   UNL     1      -1.409  11.593  22.372  0.00  0.00    +0.000 C 
ATOM     24  C   UNL     1      -1.034  10.373  23.215  0.00  0.00    +0.000 C 
ATOM     25  C   UNL     1      -0.328   9.216  22.500  0.00  0.00    +0.000 C 
ATOM     26  C   UNL     1       1.074   9.522  21.956  0.00  0.00    +0.000 C 
ENDBRANCH  17  19
ENDBRANCH  15  17
ENDBRANCH  14  15
ENDBRANCH   1  14
TORSDOF 6
ENDMDL
MODEL 7
REMARK VINA RESULT:      -7.3      2.607      4.651
REMARK  Name = 
REMARK  6 active torsions:
REMARK  status: ('A' for Active; 'I' for Inactive)
REMARK    1  A    between atoms: N_11  and  C_12
REMARK    2  A    between atoms: C_12  and  C_13
REMARK    3  A    between atoms: C_13  and  O_14
REMARK    4  A    between atoms: O_14  and  C_15
REMARK    5  A    between atoms: C_15  and  N_17
REMARK    6  A    between atoms: N_17  and  C_18
REMARK                            x       y       z     vdW  Elec       q    Type
REMARK                         _______ _______ _______ _____ _____    ______ ____
ROOT
ATOM      1  C   UNL     1       1.226   7.245  21.012  0.00  0.00    +0.000 C 
ENDROOT
BRANCH   1   2
ATOM      2  C   UNL     1       1.705   8.650  21.387  0.00  0.00    +0.000 C 
BRANCH   2  13
ATOM      3  O   UNL     1       0.420  10.213  19.221  0.00  0.00    +0.000 OA
ATOM      4  C   UNL     1       0.090  10.272  20.388  0.00  0.00    +0.000 C 
ATOM      5  C   UNL     1      -0.952  11.164  20.904  0.00  0.00    +0.000 A 
ATOM      6  C   UNL     1      -1.793  12.042  20.247  0.00  0.00    +0.000 A 
ATOM      7  C   UNL     1      -2.696  12.773  21.027  0.00  0.00    +0.000 A 
ATOM      8  C   UNL     1      -2.731  12.616  22.428  0.00  0.00    +0.000 A 
ATOM      9  C   UNL     1      -1.864  11.724  23.073  0.00  0.00    +0.000 A 
ATOM     10  C   UNL     1      -0.988  11.006  22.279  0.00  0.00    +0.000 A 
ATOM     11  C   UNL     1       0.025  10.015  22.634  0.00  0.00    +0.000 C 
ATOM     12  O   UNL     1       0.291   9.683  23.775  0.00  0.00    +0.000 OA
ATOM     13  N   UNL     1       0.592   9.592  21.463  0.00  0.00    +0.000 N 
ENDBRANCH   2  13
ENDBRANCH   1   2
BRANCH   1  14
ATOM     14  O   UNL     1       2.078   6.648  19.998  0.00  0.00    +0.000 OA
BRANCH  14  15
ATOM     15  C   UNL     1       2.235   5.294  19.946  0.00  0.00    +0.000 C 
ATOM     16  S   UNL     1       1.143   4.189  20.545  0.00  0.00    +0.000 S 
BRANCH  15  17
ATOM     17  N   UNL     1       3.377   4.847  19.347  0.00  0.00    +0.000 N 
ATOM     18  H   UNL     1       3.533   3.852  19.456  0.00  0.00    +0.000 HD
BRANCH  17  19
ATOM     19  C   UNL     1       4.440   5.635  18.713  0.00  0.00    +0.000 C 
ATOM     20  C   UNL     1       5.801   5.142  19.215  0.00  0.00    +0.000 C 
ATOM     21  C   UNL     1       7.009   5.954  18.751  0.00  0.00    +0.000 C 
ATOM     22  C   UNL     1       7.393   5.894  17.271  0.00  0.00    +0.000 C 
ATOM     23  C   UNL     1       7.264   4.522  16.610  0.00  0.00    +0.000 C 
ATOM     24  C   UNL     1       6.012   4.360  15.745  0.00  0.00    +0.000 C 
ATOM     25  C   UNL     1       4.661   4.315  16.466  0.00  0.00    +0.000 C 
ATOM     26  C   UNL     1       4.243   5.606  17.184  0.00  0.00    +0.000 C 
ENDBRANCH  17  19
ENDBRANCH  15  17
ENDBRANCH  14  15
ENDBRANCH   1  14
TORSDOF 6
ENDMDL
MODEL 8
REMARK VINA RESULT:      -7.2      3.039      7.642
REMARK  Name = 
REMARK  6 active torsions:
REMARK  status: ('A' for Active; 'I' for Inactive)
REMARK    1  A    between atoms: N_11  and  C_12
REMARK    2  A    between atoms: C_12  and  C_13
REMARK    3  A    between atoms: C_13  and  O_14
REMARK    4  A    between atoms: O_14  and  C_15
REMARK    5  A    between atoms: C_15  and  N_17
REMARK    6  A    between atoms: N_17  and  C_18
REMARK                            x       y       z     vdW  Elec       q    Type
REMARK                         _______ _______ _______ _____ _____    ______ ____
ROOT
ATOM      1  C   UNL     1       4.716   5.837  18.428  0.00  0.00    +0.000 C 
ENDROOT
BRANCH   1   2
ATOM      2  C   UNL     1       5.915   4.909  18.218  0.00  0.00    +0.000 C 
BRANCH   2  13
ATOM      3  O   UNL     1       7.743   6.389  16.415  0.00  0.00    +0.000 OA
ATOM      4  C   UNL     1       7.045   5.460  16.061  0.00  0.00    +0.000 C 
ATOM      5  C   UNL     1       6.964   4.973  14.682  0.00  0.00    +0.000 A 
ATOM      6  C   UNL     1       7.644   5.367  13.545  0.00  0.00    +0.000 A 
ATOM      7  C   UNL     1       7.339   4.702  12.351  0.00  0.00    +0.000 A 
ATOM      8  C   UNL     1       6.370   3.679  12.321  0.00  0.00    +0.000 A 
ATOM      9  C   UNL     1       5.690   3.300  13.486  0.00  0.00    +0.000 A 
ATOM     10  C   UNL     1       6.015   3.964  14.654  0.00  0.00    +0.000 A 
ATOM     11  C   UNL     1       5.499   3.811  16.013  0.00  0.00    +0.000 C 
ATOM     12  O   UNL     1       4.608   3.042  16.326  0.00  0.00    +0.000 OA
ATOM     13  N   UNL     1       6.184   4.696  16.799  0.00  0.00    +0.000 N 
ENDBRANCH   2  13
ENDBRANCH   1   2
BRANCH   1  14
ATOM     14  O   UNL     1       4.095   5.614  19.722  0.00  0.00    +0.000 OA
BRANCH  14  15
ATOM     15  C   UNL     1       2.747   5.421  19.812  0.00  0.00    +0.000 C 
ATOM     16  S   UNL     1       1.959   4.022  19.372  0.00  0.00    +0.000 S 
BRANCH  15  17
ATOM     17  N   UNL     1       2.025   6.467  20.309  0.00  0.00    +0.000 N 
ATOM     18  H   UNL     1       1.240   6.185  20.884  0.00  0.00    +0.000 HD
BRANCH  17  19
ATOM     19  C   UNL     1       2.161   7.895  20.000  0.00  0.00    +0.000 C 
ATOM     20  C   UNL     1       1.696   8.146  18.561  0.00  0.00    +0.000 C 
ATOM     21  C   UNL     1       1.904   9.566  18.039  0.00  0.00    +0.000 C 
ATOM     22  C   UNL     1       1.055  10.688  18.642  0.00  0.00    +0.000 C 
ATOM     23  C   UNL     1      -0.401  10.330  18.933  0.00  0.00    +0.000 C 
ATOM     24  C   UNL     1      -0.691  10.040  20.407  0.00  0.00    +0.000 C 
ATOM     25  C   UNL     1      -0.094   8.761  21.002  0.00  0.00    +0.000 C 
ATOM     26  C   UNL     1       1.438   8.716  21.086  0.00  0.00    +0.000 C 
ENDBRANCH  17  19
ENDBRANCH  15  17
ENDBRANCH  14  15
ENDBRANCH   1  14
TORSDOF 6
ENDMDL
MODEL 9
REMARK VINA RESULT:      -7.2      2.583      4.323
REMARK  Name = 
REMARK  6 active torsions:
REMARK  status: ('A' for Active; 'I' for Inactive)
REMARK    1  A    between atoms: N_11  and  C_12
REMARK    2  A    between atoms: C_12  and  C_13
REMARK    3  A    between atoms: C_13  and  O_14
REMARK    4  A    between atoms: O_14  and  C_15
REMARK    5  A    between atoms: C_15  and  N_17
REMARK    6  A    between atoms: N_17  and  C_18
REMARK                            x       y       z     vdW  Elec       q    Type
REMARK                         _______ _______ _______ _____ _____    ______ ____
ROOT
ATOM      1  C   UNL     1       1.180   7.140  20.899  0.00  0.00    +0.000 C 
ENDROOT
BRANCH   1   2
ATOM      2  C   UNL     1       1.728   8.397  21.578  0.00  0.00    +0.000 C 
BRANCH   2  13
ATOM      3  O   UNL     1       0.262   9.580  23.865  0.00  0.00    +0.000 OA
ATOM      4  C   UNL     1       0.116   9.930  22.712  0.00  0.00    +0.000 C 
ATOM      5  C   UNL     1      -0.845  10.947  22.276  0.00  0.00    +0.000 A 
ATOM      6  C   UNL     1      -1.709  11.741  23.005  0.00  0.00    +0.000 A 
ATOM      7  C   UNL     1      -2.521  12.631  22.292  0.00  0.00    +0.000 A 
ATOM      8  C   UNL     1      -2.456  12.698  20.885  0.00  0.00    +0.000 A 
ATOM      9  C   UNL     1      -1.576  11.878  20.167  0.00  0.00    +0.000 A 
ATOM     10  C   UNL     1      -0.777  11.015  20.894  0.00  0.00    +0.000 A 
ATOM     11  C   UNL     1       0.226  10.047  20.456  0.00  0.00    +0.000 C 
ATOM     12  O   UNL     1       0.493   9.816  19.291  0.00  0.00    +0.000 OA
ATOM     13  N   UNL     1       0.743   9.474  21.585  0.00  0.00    +0.000 N 
ENDBRANCH   2  13
ENDBRANCH   1   2
BRANCH   1  14
ATOM     14  O   UNL     1       2.166   6.541  20.017  0.00  0.00    +0.000 OA
BRANCH  14  15
ATOM     15  C   UNL     1       2.503   5.226  20.157  0.00  0.00    +0.000 C 
ATOM     16  S   UNL     1       1.590   4.095  20.969  0.00  0.00    +0.000 S 
BRANCH  15  17
ATOM     17  N   UNL     1       3.675   4.843  19.571  0.00  0.00    +0.000 N 
ATOM     18  H   UNL     1       3.995   3.927  19.861  0.00  0.00    +0.000 HD
BRANCH  17  19
ATOM     19  C   UNL     1       4.565   5.634  18.714  0.00  0.00    +0.000 C 
ATOM     20  C   UNL     1       6.021   5.293  19.049  0.00  0.00    +0.000 C 
ATOM     21  C   UNL     1       7.077   6.135  18.335  0.00  0.00    +0.000 C 
ATOM     22  C   UNL     1       7.248   5.951  16.826  0.00  0.00    +0.000 C 
ATOM     23  C   UNL     1       7.142   4.513  16.320  0.00  0.00    +0.000 C 
ATOM     24  C   UNL     1       5.798   4.175  15.673  0.00  0.00    +0.000 C 
ATOM     25  C   UNL     1       4.573   4.110  16.590  0.00  0.00    +0.000 C 
ATOM     26  C   UNL     1       4.154   5.435  17.242  0.00  0.00    +0.000 C 
ENDBRANCH  17  19
ENDBRANCH  15  17
ENDBRANCH  14  15
ENDBRANCH   1  14
TORSDOF 6
ENDMDL
