MODEL 1
REMARK VINA RESULT:      -7.0      0.000      0.000
REMARK  Name = 
REMARK  3 active torsions:
REMARK  status: ('A' for Active; 'I' for Inactive)
REMARK    1  A    between atoms: C_2  and  C_3
REMARK    2  A    between atoms: C_4  and  N_5
REMARK    3  A    between atoms: N_8  and  C_9
REMARK                            x       y       z     vdW  Elec       q    Type
REMARK                         _______ _______ _______ _____ _____    ______ ____
ROOT
ATOM      1  C   UNL     1      -0.086  12.213  19.217  0.00  0.00    +0.000 A 
ATOM      2  C   UNL     1       1.010  11.471  18.937  0.00  0.00    +0.000 A 
ATOM      3  N   UNL     1       2.199  12.070  18.568  0.00  0.00    +0.000 NA
ATOM      4  C   UNL     1       2.277  13.365  18.529  0.00  0.00    +0.000 A 
ATOM      5  C   UNL     1       3.565  14.015  18.126  0.00  0.00    +0.000 A 
ATOM      6  C   UNL     1       3.653  15.352  18.061  0.00  0.00    +0.000 A 
ATOM      7  C   UNL     1       2.521  16.173  18.382  0.00  0.00    +0.000 A 
ATOM      8  C   UNL     1       1.370  15.600  18.753  0.00  0.00    +0.000 A 
ATOM      9  N   UNL     1       1.231  14.216  18.833  0.00  0.00    +0.000 N 
ATOM     10  C   UNL     1       0.006  13.688  19.208  0.00  0.00    +0.000 A 
ATOM     11  O   UNL     1      -0.965  14.389  19.489  0.00  0.00    +0.000 OA
ENDROOT
BRANCH   2  12
ATOM     12  N   UNL     1       0.976  10.068  18.989  0.00  0.00    +0.000 N 
ATOM     13  C   UNL     1       1.330   9.226  17.828  0.00  0.00    +0.000 C 
ATOM     14  C   UNL     1       2.452   8.228  18.163  0.00  0.00    +0.000 C 
ATOM     15  N   UNL     1       2.118   7.448  19.369  0.00  0.00    +0.000 N 
ATOM     16  C   UNL     1       1.790   8.259  20.552  0.00  0.00    +0.000 C 
ATOM     17  C   UNL     1       0.679   9.282  20.214  0.00  0.00    +0.000 C 
BRANCH  15  18
ATOM     18  C   UNL     1       2.075   6.069  19.386  0.00  0.00    +0.000 A 
ATOM     19  C   UNL     1       2.308   5.309  18.229  0.00  0.00    +0.000 A 
ATOM     20  C   UNL     1       2.258   3.909  18.239  0.00  0.00    +0.000 A 
ATOM     21  C   UNL     1       1.979   3.231  19.420  0.00  0.00    +0.000 A 
ATOM     22  C   UNL     1       1.754   3.955  20.585  0.00  0.00    +0.000 A 
ATOM     23  C   UNL     1       1.802   5.354  20.561  0.00  0.00    +0.000 A 
ENDBRANCH  15  18
ENDBRANCH   2  12
BRANCH   1  25
ATOM     24  O   UNL     1      -2.262  11.421  18.574  0.00  0.00    +0.000 OA
ATOM     25  C   UNL     1      -1.391  11.545  19.426  0.00  0.00    +0.000 C 
ENDBRANCH   1  25
TORSDOF 3
ENDMDL
MODEL 2
REMARK VINA RESULT:      -7.0      3.452      8.347
REMARK  Name = 
REMARK  3 active torsions:
REMARK  status: ('A' for Active; 'I' for Inactive)
REMARK    1  A    between atoms: C_2  and  C_3
REMARK    2  A    between atoms: C_4  and  N_5
REMARK    3  A    between atoms: N_8  and  C_9
REMARK                            x       y       z     vdW  Elec       q    Type
REMARK                         _______ _______ _______ _____ _____    ______ ____
ROOT
ATOM      1  C   UNL     1       2.534   7.226  18.937  0.00  0.00    +0.000 A 
ATOM      2  C   UNL     1       1.796   7.294  20.069  0.00  0.00    +0.000 A 
ATOM      3  N   UNL     1       1.392   6.146  20.724  0.00  0.00    +0.000 NA
ATOM      4  C   UNL     1       1.763   4.988  20.270  0.00  0.00    +0.000 A 
ATOM      5  C   UNL     1       1.324   3.743  20.980  0.00  0.00    +0.000 A 
ATOM      6  C   UNL     1       1.681   2.539  20.509  0.00  0.00    +0.000 A 
ATOM      7  C   UNL     1       2.491   2.428  19.330  0.00  0.00    +0.000 A 
ATOM      8  C   UNL     1       2.896   3.536  18.697  0.00  0.00    +0.000 A 
ATOM      9  N   UNL     1       2.547   4.808  19.147  0.00  0.00    +0.000 N 
ATOM     10  C   UNL     1       2.987   5.912  18.435  0.00  0.00    +0.000 A 
ATOM     11  O   UNL     1       3.685   5.821  17.426  0.00  0.00    +0.000 OA
ENDROOT
BRANCH   2  12
ATOM     12  N   UNL     1       1.393   8.526  20.607  0.00  0.00    +0.000 N 
ATOM     13  C   UNL     1       0.777   9.585  19.781  0.00  0.00    +0.000 C 
ATOM     14  C   UNL     1      -0.595  10.017  20.329  0.00  0.00    +0.000 C 
ATOM     15  N   UNL     1      -0.500  10.372  21.758  0.00  0.00    +0.000 N 
ATOM     16  C   UNL     1       0.083   9.325  22.612  0.00  0.00    +0.000 C 
ATOM     17  C   UNL     1       1.451   8.870  22.051  0.00  0.00    +0.000 C 
BRANCH  15  18
ATOM     18  C   UNL     1      -0.887  11.599  22.255  0.00  0.00    +0.000 A 
ATOM     19  C   UNL     1      -0.189  12.776  21.943  0.00  0.00    +0.000 A 
ATOM     20  C   UNL     1      -0.574  14.023  22.452  0.00  0.00    +0.000 A 
ATOM     21  C   UNL     1      -1.681  14.123  23.287  0.00  0.00    +0.000 A 
ATOM     22  C   UNL     1      -2.399  12.977  23.607  0.00  0.00    +0.000 A 
ATOM     23  C   UNL     1      -2.002  11.736  23.096  0.00  0.00    +0.000 A 
ENDBRANCH  15  18
ENDBRANCH   2  12
BRANCH   1  25
ATOM     24  O   UNL     1       2.270   8.729  17.081  0.00  0.00    +0.000 OA
ATOM     25  C   UNL     1       2.792   8.457  18.154  0.00  0.00    +0.000 C 
ENDBRANCH   1  25
TORSDOF 3
ENDMDL
MODEL 3
REMARK VINA RESULT:      -6.7      4.052      7.942
REMARK  Name = 
REMARK  3 active torsions:
REMARK  status: ('A' for Active; 'I' for Inactive)
REMARK    1  A    between atoms: C_2  and  C_3
REMARK    2  A    between atoms: C_4  and  N_5
REMARK    3  A    between atoms: N_8  and  C_9
REMARK                            x       y       z     vdW  Elec       q    Type
REMARK                         _______ _______ _______ _____ _____    ______ ____
ROOT
ATOM      1  C   UNL     1       2.651   5.026  18.176  0.00  0.00    +0.000 A 
ATOM      2  C   UNL     1       2.905   6.330  18.431  0.00  0.00    +0.000 A 
ATOM      3  N   UNL     1       4.132   6.888  18.127  0.00  0.00    +0.000 NA
ATOM      4  C   UNL     1       5.040   6.160  17.551  0.00  0.00    +0.000 A 
ATOM      5  C   UNL     1       6.372   6.764  17.223  0.00  0.00    +0.000 A 
ATOM      6  C   UNL     1       7.326   6.017  16.647  0.00  0.00    +0.000 A 
ATOM      7  C   UNL     1       7.081   4.639  16.333  0.00  0.00    +0.000 A 
ATOM      8  C   UNL     1       5.891   4.095  16.613  0.00  0.00    +0.000 A 
ATOM      9  N   UNL     1       4.871   4.830  17.213  0.00  0.00    +0.000 N 
ATOM     10  C   UNL     1       3.668   4.202  17.490  0.00  0.00    +0.000 A 
ATOM     11  O   UNL     1       3.454   3.022  17.217  0.00  0.00    +0.000 OA
ENDROOT
BRANCH   2  12
ATOM     12  N   UNL     1       1.945   7.159  19.032  0.00  0.00    +0.000 N 
ATOM     13  C   UNL     1       1.564   7.025  20.453  0.00  0.00    +0.000 C 
ATOM     14  C   UNL     1       1.748   8.345  21.224  0.00  0.00    +0.000 C 
ATOM     15  N   UNL     1       1.060   9.454  20.537  0.00  0.00    +0.000 N 
ATOM     16  C   UNL     1       1.440   9.632  19.126  0.00  0.00    +0.000 C 
ATOM     17  C   UNL     1       1.280   8.301  18.352  0.00  0.00    +0.000 C 
BRANCH  15  18
ATOM     18  C   UNL     1       0.106  10.241  21.148  0.00  0.00    +0.000 A 
ATOM     19  C   UNL     1      -0.252  10.057  22.493  0.00  0.00    +0.000 A 
ATOM     20  C   UNL     1      -1.226  10.848  23.115  0.00  0.00    +0.000 A 
ATOM     21  C   UNL     1      -1.865  11.856  22.402  0.00  0.00    +0.000 A 
ATOM     22  C   UNL     1      -1.525  12.070  21.072  0.00  0.00    +0.000 A 
ATOM     23  C   UNL     1      -0.554  11.269  20.459  0.00  0.00    +0.000 A 
ENDBRANCH  15  18
ENDBRANCH   2  12
BRANCH   1  25
ATOM     24  O   UNL     1       1.332   3.643  19.634  0.00  0.00    +0.000 OA
ATOM     25  C   UNL     1       1.403   4.410  18.681  0.00  0.00    +0.000 C 
ENDBRANCH   1  25
TORSDOF 3
ENDMDL
MODEL 4
REMARK VINA RESULT:      -6.7      3.874      7.870
REMARK  Name = 
REMARK  3 active torsions:
REMARK  status: ('A' for Active; 'I' for Inactive)
REMARK    1  A    between atoms: C_2  and  C_3
REMARK    2  A    between atoms: C_4  and  N_5
REMARK    3  A    between atoms: N_8  and  C_9
REMARK                            x       y       z     vdW  Elec       q    Type
REMARK                         _______ _______ _______ _____ _____    ______ ____
ROOT
ATOM      1  C   UNL     1       2.502   5.683  19.259  0.00  0.00    +0.000 A 
ATOM      2  C   UNL     1       2.717   6.955  18.851  0.00  0.00    +0.000 A 
ATOM      3  N   UNL     1       3.563   7.228  17.794  0.00  0.00    +0.000 NA
ATOM      4  C   UNL     1       4.128   6.248  17.157  0.00  0.00    +0.000 A 
ATOM      5  C   UNL     1       5.048   6.544  16.013  0.00  0.00    +0.000 A 
ATOM      6  C   UNL     1       5.655   5.542  15.360  0.00  0.00    +0.000 A 
ATOM      7  C   UNL     1       5.425   4.179  15.744  0.00  0.00    +0.000 A 
ATOM      8  C   UNL     1       4.597   3.906  16.759  0.00  0.00    +0.000 A 
ATOM      9  N   UNL     1       3.947   4.913  17.467  0.00  0.00    +0.000 N 
ATOM     10  C   UNL     1       3.114   4.562  18.517  0.00  0.00    +0.000 A 
ATOM     11  O   UNL     1       2.912   3.393  18.846  0.00  0.00    +0.000 OA
ENDROOT
BRANCH   2  12
ATOM     12  N   UNL     1       2.108   8.043  19.497  0.00  0.00    +0.000 N 
ATOM     13  C   UNL     1       1.680   9.254  18.768  0.00  0.00    +0.000 C 
ATOM     14  C   UNL     1       0.186   9.558  18.987  0.00  0.00    +0.000 C 
ATOM     15  N   UNL     1      -0.136   9.598  20.426  0.00  0.00    +0.000 N 
ATOM     16  C   UNL     1       0.253   8.392  21.174  0.00  0.00    +0.000 C 
ATOM     17  C   UNL     1       1.747   8.068  20.938  0.00  0.00    +0.000 C 
BRANCH  15  18
ATOM     18  C   UNL     1      -0.718  10.689  21.036  0.00  0.00    +0.000 A 
ATOM     19  C   UNL     1      -0.780  10.808  22.434  0.00  0.00    +0.000 A 
ATOM     20  C   UNL     1      -1.377  11.910  23.058  0.00  0.00    +0.000 A 
ATOM     21  C   UNL     1      -1.923  12.933  22.291  0.00  0.00    +0.000 A 
ATOM     22  C   UNL     1      -1.868  12.850  20.906  0.00  0.00    +0.000 A 
ATOM     23  C   UNL     1      -1.274  11.741  20.292  0.00  0.00    +0.000 A 
ENDBRANCH  15  18
ENDBRANCH   2  12
BRANCH   1  25
ATOM     24  O   UNL     1       0.777   4.684  20.602  0.00  0.00    +0.000 OA
ATOM     25  C   UNL     1       1.743   5.431  20.506  0.00  0.00    +0.000 C 
ENDBRANCH   1  25
TORSDOF 3
ENDMDL
MODEL 5
REMARK VINA RESULT:      -6.6      3.090      4.518
REMARK  Name = 
REMARK  3 active torsions:
REMARK  status: ('A' for Active; 'I' for Inactive)
REMARK    1  A    between atoms: C_2  and  C_3
REMARK    2  A    between atoms: C_4  and  N_5
REMARK    3  A    between atoms: N_8  and  C_9
REMARK                            x       y       z     vdW  Elec       q    Type
REMARK                         _______ _______ _______ _____ _____    ______ ____
ROOT
ATOM      1  C   UNL     1      -0.077  10.775  19.930  0.00  0.00    +0.000 A 
ATOM      2  C   UNL     1       0.229   9.905  18.940  0.00  0.00    +0.000 A 
ATOM      3  N   UNL     1      -0.664   9.648  17.917  0.00  0.00    +0.000 NA
ATOM      4  C   UNL     1      -1.797  10.283  17.884  0.00  0.00    +0.000 A 
ATOM      5  C   UNL     1      -2.767  10.003  16.777  0.00  0.00    +0.000 A 
ATOM      6  C   UNL     1      -3.949  10.636  16.742  0.00  0.00    +0.000 A 
ATOM      7  C   UNL     1      -4.295  11.589  17.757  0.00  0.00    +0.000 A 
ATOM      8  C   UNL     1      -3.429  11.852  18.743  0.00  0.00    +0.000 A 
ATOM      9  N   UNL     1      -2.191  11.218  18.822  0.00  0.00    +0.000 N 
ATOM     10  C   UNL     1      -1.349  11.525  19.878  0.00  0.00    +0.000 A 
ATOM     11  O   UNL     1      -1.641  12.345  20.747  0.00  0.00    +0.000 OA
ENDROOT
BRANCH   2  12
ATOM     12  N   UNL     1       1.451   9.215  18.925  0.00  0.00    +0.000 N 
ATOM     13  C   UNL     1       1.760   8.134  19.883  0.00  0.00    +0.000 C 
ATOM     14  C   UNL     1       2.141   6.824  19.169  0.00  0.00    +0.000 C 
ATOM     15  N   UNL     1       3.215   7.056  18.185  0.00  0.00    +0.000 N 
ATOM     16  C   UNL     1       2.924   8.108  17.198  0.00  0.00    +0.000 C 
ATOM     17  C   UNL     1       2.517   9.420  17.910  0.00  0.00    +0.000 C 
BRANCH  15  18
ATOM     18  C   UNL     1       4.414   6.375  18.206  0.00  0.00    +0.000 A 
ATOM     19  C   UNL     1       4.678   5.374  19.155  0.00  0.00    +0.000 A 
ATOM     20  C   UNL     1       5.898   4.685  19.184  0.00  0.00    +0.000 A 
ATOM     21  C   UNL     1       6.886   4.979  18.253  0.00  0.00    +0.000 A 
ATOM     22  C   UNL     1       6.651   5.957  17.294  0.00  0.00    +0.000 A 
ATOM     23  C   UNL     1       5.430   6.643  17.277  0.00  0.00    +0.000 A 
ENDBRANCH  15  18
ENDBRANCH   2  12
BRANCH   1  25
ATOM     24  O   UNL     1       0.554  10.473  22.229  0.00  0.00    +0.000 OA
ATOM     25  C   UNL     1       0.814  10.890  21.107  0.00  0.00    +0.000 C 
ENDBRANCH   1  25
TORSDOF 3
ENDMDL
MODEL 6
REMARK VINA RESULT:      -6.4      3.873      7.884
REMARK  Name = 
REMARK  3 active torsions:
REMARK  status: ('A' for Active; 'I' for Inactive)
REMARK    1  A    between atoms: C_2  and  C_3
REMARK    2  A    between atoms: C_4  and  N_5
REMARK    3  A    between atoms: N_8  and  C_9
REMARK                            x       y       z     vdW  Elec       q    Type
REMARK                         _______ _______ _______ _____ _____    ______ ____
ROOT
ATOM      1  C   UNL     1       2.849   5.334  19.580  0.00  0.00    +0.000 A 
ATOM      2  C   UNL     1       2.834   6.627  19.181  0.00  0.00    +0.000 A 
ATOM      3  N   UNL     1       3.838   7.136  18.382  0.00  0.00    +0.000 NA
ATOM      4  C   UNL     1       4.789   6.352  17.972  0.00  0.00    +0.000 A 
ATOM      5  C   UNL     1       5.880   6.905  17.107  0.00  0.00    +0.000 A 
ATOM      6  C   UNL     1       6.880   6.110  16.695  0.00  0.00    +0.000 A 
ATOM      7  C   UNL     1       6.912   4.726  17.070  0.00  0.00    +0.000 A 
ATOM      8  C   UNL     1       5.935   4.223  17.835  0.00  0.00    +0.000 A 
ATOM      9  N   UNL     1       4.879   5.010  18.288  0.00  0.00    +0.000 N 
ATOM     10  C   UNL     1       3.909   4.429  19.090  0.00  0.00    +0.000 A 
ATOM     11  O   UNL     1       3.932   3.241  19.410  0.00  0.00    +0.000 OA
ENDROOT
BRANCH   2  12
ATOM     12  N   UNL     1       1.813   7.503  19.581  0.00  0.00    +0.000 N 
ATOM     13  C   UNL     1       1.286   7.524  20.961  0.00  0.00    +0.000 C 
ATOM     14  C   UNL     1       1.384   8.925  21.593  0.00  0.00    +0.000 C 
ATOM     15  N   UNL     1       0.768   9.940  20.717  0.00  0.00    +0.000 N 
ATOM     16  C   UNL     1       1.294   9.963  19.343  0.00  0.00    +0.000 C 
ATOM     17  C   UNL     1       1.220   8.553  18.712  0.00  0.00    +0.000 C 
BRANCH  15  18
ATOM     18  C   UNL     1      -0.247  10.776  21.133  0.00  0.00    +0.000 A 
ATOM     19  C   UNL     1      -1.007  11.525  20.222  0.00  0.00    +0.000 A 
ATOM     20  C   UNL     1      -2.034  12.382  20.641  0.00  0.00    +0.000 A 
ATOM     21  C   UNL     1      -2.331  12.503  21.993  0.00  0.00    +0.000 A 
ATOM     22  C   UNL     1      -1.604  11.766  22.919  0.00  0.00    +0.000 A 
ATOM     23  C   UNL     1      -0.577  10.917  22.490  0.00  0.00    +0.000 A 
ENDBRANCH  15  18
ENDBRANCH   2  12
BRANCH   1  25
ATOM     24  O   UNL     1       0.891   4.168  20.341  0.00  0.00    +0.000 OA
ATOM     25  C   UNL     1       1.868   4.864  20.585  0.00  0.00    +0.000 C 
ENDBRANCH   1  25
TORSDOF 3
ENDMDL
MODEL 7
REMARK VINA RESULT:      -6.3      3.274      4.570
REMARK  Name = 
REMARK  3 active torsions:
REMARK  status: ('A' for Active; 'I' for Inactive)
REMARK    1  A    between atoms: C_2  and  C_3
REMARK    2  A    between atoms: C_4  and  N_5
REMARK    3  A    between atoms: N_8  and  C_9
REMARK                            x       y       z     vdW  Elec       q    Type
REMARK                         _______ _______ _______ _____ _____    ______ ____
ROOT
ATOM      1  C   UNL     1      -0.261  12.731  21.545  0.00  0.00    +0.000 A 
ATOM      2  C   UNL     1      -0.899  11.578  21.853  0.00  0.00    +0.000 A 
ATOM      3  N   UNL     1      -2.015  11.579  22.667  0.00  0.00    +0.000 NA
ATOM      4  C   UNL     1      -2.482  12.707  23.109  0.00  0.00    +0.000 A 
ATOM      5  C   UNL     1      -3.692  12.708  23.994  0.00  0.00    +0.000 A 
ATOM      6  C   UNL     1      -4.172  13.865  24.475  0.00  0.00    +0.000 A 
ATOM      7  C   UNL     1      -3.541  15.110  24.143  0.00  0.00    +0.000 A 
ATOM      8  C   UNL     1      -2.467  15.117  23.345  0.00  0.00    +0.000 A 
ATOM      9  N   UNL     1      -1.931  13.942  22.824  0.00  0.00    +0.000 N 
ATOM     10  C   UNL     1      -0.808  14.020  22.017  0.00  0.00    +0.000 A 
ATOM     11  O   UNL     1      -0.267  15.086  21.728  0.00  0.00    +0.000 OA
ENDROOT
BRANCH   2  12
ATOM     12  N   UNL     1      -0.440  10.339  21.378  0.00  0.00    +0.000 N 
ATOM     13  C   UNL     1      -0.422  10.003  19.940  0.00  0.00    +0.000 C 
ATOM     14  C   UNL     1       0.983   9.591  19.464  0.00  0.00    +0.000 C 
ATOM     15  N   UNL     1       1.535   8.524  20.320  0.00  0.00    +0.000 N 
ATOM     16  C   UNL     1       1.557   8.842  21.756  0.00  0.00    +0.000 C 
ATOM     17  C   UNL     1       0.153   9.280  22.235  0.00  0.00    +0.000 C 
BRANCH  15  18
ATOM     18  C   UNL     1       1.961   7.309  19.826  0.00  0.00    +0.000 A 
ATOM     19  C   UNL     1       2.546   7.192  18.555  0.00  0.00    +0.000 A 
ATOM     20  C   UNL     1       2.973   5.958  18.047  0.00  0.00    +0.000 A 
ATOM     21  C   UNL     1       2.830   4.804  18.808  0.00  0.00    +0.000 A 
ATOM     22  C   UNL     1       2.264   4.889  20.074  0.00  0.00    +0.000 A 
ATOM     23  C   UNL     1       1.836   6.126  20.570  0.00  0.00    +0.000 A 
ENDBRANCH  15  18
ENDBRANCH   2  12
BRANCH   1  25
ATOM     24  O   UNL     1       2.134  12.819  21.355  0.00  0.00    +0.000 OA
ATOM     25  C   UNL     1       1.036  12.684  20.830  0.00  0.00    +0.000 C 
ENDBRANCH   1  25
TORSDOF 3
ENDMDL
MODEL 8
REMARK VINA RESULT:      -6.3      1.571      1.604
REMARK  Name = 
REMARK  3 active torsions:
REMARK  status: ('A' for Active; 'I' for Inactive)
REMARK    1  A    between atoms: C_2  and  C_3
REMARK    2  A    between atoms: C_4  and  N_5
REMARK    3  A    between atoms: N_8  and  C_9
REMARK                            x       y       z     vdW  Elec       q    Type
REMARK                         _______ _______ _______ _____ _____    ______ ____
ROOT
ATOM      1  C   UNL     1       0.569  11.568  20.882  0.00  0.00    +0.000 A 
ATOM      2  C   UNL     1       1.142  10.983  19.805  0.00  0.00    +0.000 A 
ATOM      3  N   UNL     1       1.817  11.734  18.862  0.00  0.00    +0.000 NA
ATOM      4  C   UNL     1       1.939  13.016  19.034  0.00  0.00    +0.000 A 
ATOM      5  C   UNL     1       2.669  13.832  18.011  0.00  0.00    +0.000 A 
ATOM      6  C   UNL     1       2.783  15.159  18.166  0.00  0.00    +0.000 A 
ATOM      7  C   UNL     1       2.217  15.810  19.312  0.00  0.00    +0.000 A 
ATOM      8  C   UNL     1       1.572  15.087  20.236  0.00  0.00    +0.000 A 
ATOM      9  N   UNL     1       1.426  13.706  20.116  0.00  0.00    +0.000 N 
ATOM     10  C   UNL     1       0.734  13.020  21.100  0.00  0.00    +0.000 A 
ATOM     11  O   UNL     1       0.251  13.575  22.087  0.00  0.00    +0.000 OA
ENDROOT
BRANCH   2  12
ATOM     12  N   UNL     1       1.055   9.598  19.592  0.00  0.00    +0.000 N 
ATOM     13  C   UNL     1       1.220   8.993  18.254  0.00  0.00    +0.000 C 
ATOM     14  C   UNL     1       2.332   7.928  18.239  0.00  0.00    +0.000 C 
ATOM     15  N   UNL     1       2.121   6.934  19.308  0.00  0.00    +0.000 N 
ATOM     16  C   UNL     1       1.982   7.504  20.657  0.00  0.00    +0.000 C 
ATOM     17  C   UNL     1       0.882   8.593  20.672  0.00  0.00    +0.000 C 
BRANCH  15  18
ATOM     18  C   UNL     1       2.021   5.579  19.066  0.00  0.00    +0.000 A 
ATOM     19  C   UNL     1       2.477   5.007  17.868  0.00  0.00    +0.000 A 
ATOM     20  C   UNL     1       2.370   3.633  17.615  0.00  0.00    +0.000 A 
ATOM     21  C   UNL     1       1.806   2.792  18.566  0.00  0.00    +0.000 A 
ATOM     22  C   UNL     1       1.354   3.327  19.767  0.00  0.00    +0.000 A 
ATOM     23  C   UNL     1       1.462   4.702  20.007  0.00  0.00    +0.000 A 
ENDBRANCH  15  18
ENDBRANCH   2  12
BRANCH   1  25
ATOM     24  O   UNL     1      -0.200  10.712  22.992  0.00  0.00    +0.000 OA
ATOM     25  C   UNL     1      -0.304  10.770  21.773  0.00  0.00    +0.000 C 
ENDBRANCH   1  25
TORSDOF 3
ENDMDL
MODEL 9
REMARK VINA RESULT:      -6.3      3.158      8.694
REMARK  Name = 
REMARK  3 active torsions:
REMARK  status: ('A' for Active; 'I' for Inactive)
REMARK    1  A    between atoms: C_2  and  C_3
REMARK    2  A    between atoms: C_4  and  N_5
REMARK    3  A    between atoms: N_8  and  C_9
REMARK                            x       y       z     vdW  Elec       q    Type
REMARK                         _______ _______ _______ _____ _____    ______ ____
ROOT
ATOM      1  C   UNL     1       3.772   6.069  18.028  0.00  0.00    +0.000 A 
ATOM      2  C   UNL     1       2.645   6.431  18.683  0.00  0.00    +0.000 A 
ATOM      3  N   UNL     1       1.764   5.481  19.161  0.00  0.00    +0.000 NA
ATOM      4  C   UNL     1       2.043   4.221  19.017  0.00  0.00    +0.000 A 
ATOM      5  C   UNL     1       1.087   3.190  19.534  0.00  0.00    +0.000 A 
ATOM      6  C   UNL     1       1.352   1.885  19.372  0.00  0.00    +0.000 A 
ATOM      7  C   UNL     1       2.554   1.462  18.712  0.00  0.00    +0.000 A 
ATOM      8  C   UNL     1       3.418   2.378  18.257  0.00  0.00    +0.000 A 
ATOM      9  N   UNL     1       3.183   3.743  18.399  0.00  0.00    +0.000 N 
ATOM     10  C   UNL     1       4.111   4.638  17.891  0.00  0.00    +0.000 A 
ATOM     11  O   UNL     1       5.145   4.278  17.328  0.00  0.00    +0.000 OA
ENDROOT
BRANCH   2  12
ATOM     12  N   UNL     1       2.316   7.782  18.881  0.00  0.00    +0.000 N 
ATOM     13  C   UNL     1       2.139   8.724  17.758  0.00  0.00    +0.000 C 
ATOM     14  C   UNL     1       0.759   9.406  17.791  0.00  0.00    +0.000 C 
ATOM     15  N   UNL     1       0.507  10.016  19.110  0.00  0.00    +0.000 N 
ATOM     16  C   UNL     1       0.646   9.093  20.248  0.00  0.00    +0.000 C 
ATOM     17  C   UNL     1       2.023   8.387  20.206  0.00  0.00    +0.000 C 
BRANCH  15  18
ATOM     18  C   UNL     1       0.203  11.351  19.276  0.00  0.00    +0.000 A 
ATOM     19  C   UNL     1       1.125  12.362  18.963  0.00  0.00    +0.000 A 
ATOM     20  C   UNL     1       0.824  13.719  19.137  0.00  0.00    +0.000 A 
ATOM     21  C   UNL     1      -0.421  14.099  19.625  0.00  0.00    +0.000 A 
ATOM     22  C   UNL     1      -1.359  13.122  19.934  0.00  0.00    +0.000 A 
ATOM     23  C   UNL     1      -1.045  11.769  19.761  0.00  0.00    +0.000 A 
ENDBRANCH  15  18
ENDBRANCH   2  12
BRANCH   1  25
ATOM     24  O   UNL     1       4.879   7.120  16.172  0.00  0.00    +0.000 OA
ATOM     25  C   UNL     1       4.599   7.103  17.364  0.00  0.00    +0.000 C 
ENDBRANCH   1  25
TORSDOF 3
ENDMDL
