MODEL 1
REMARK VINA RESULT:      -8.4      0.000      0.000
REMARK  Name = 
REMARK  6 active torsions:
REMARK  status: ('A' for Active; 'I' for Inactive)
REMARK    1  A    between atoms: C_1  and  C_2
REMARK    2  A    between atoms: C_2  and  C_3
REMARK    3  A    between atoms: C_7  and  C_8
REMARK    4  A    between atoms: C_8  and  C_10
REMARK    5  A    between atoms: C_20  and  O_21
REMARK    6  A    between atoms: C_25  and  O_26
REMARK                            x       y       z     vdW  Elec       q    Type
REMARK                         _______ _______ _______ _____ _____    ______ ____
ROOT
ATOM      1  C   UNL     1      -1.914  11.548  20.580  0.00  0.00    +0.000 C 
ATOM      2  C   UNL     1      -0.591  11.585  21.374  0.00  0.00    +0.000 C 
ATOM      3  C   UNL     1      -0.943  12.113  22.781  0.00  0.00    +0.000 C 
ATOM      4  O   UNL     1      -0.093  10.234  21.568  0.00  0.00    +0.000 OA
ATOM      5  C   UNL     1       0.710   9.677  20.591  0.00  0.00    +0.000 A 
ATOM      6  C   UNL     1       1.045   8.290  20.794  0.00  0.00    +0.000 A 
ATOM      7  C   UNL     1       1.752   7.510  19.849  0.00  0.00    +0.000 A 
ATOM      8  C   UNL     1       2.142   8.228  18.703  0.00  0.00    +0.000 A 
ATOM      9  C   UNL     1       1.856   9.604  18.524  0.00  0.00    +0.000 A 
ATOM     10  C   UNL     1       1.165  10.391  19.475  0.00  0.00    +0.000 A 
ATOM     11  C   UNL     1       0.831  11.888  19.318  0.00  0.00    +0.000 C 
ATOM     12  C   UNL     1       1.863  12.804  18.609  0.00  0.00    +0.000 C 
ATOM     13  C   UNL     1       1.436  14.281  18.592  0.00  0.00    +0.000 C 
ATOM     14  C   UNL     1       1.214  14.814  19.997  0.00  0.00    +0.000 C 
ATOM     15  C   UNL     1       0.163  13.982  20.712  0.00  0.00    +0.000 C 
ATOM     16  C   UNL     1       0.502  12.470  20.722  0.00  0.00    +0.000 C 
ENDROOT
BRANCH   7  17
ATOM     17  C   UNL     1       2.135   5.970  19.909  0.00  0.00    +0.000 C 
ATOM     18  O   UNL     1       1.981   5.389  20.981  0.00  0.00    +0.000 OA
BRANCH  17  19
ATOM     19  C   UNL     1       2.639   5.213  18.715  0.00  0.00    +0.000 A 
ATOM     20  C   UNL     1       1.841   4.315  18.034  0.00  0.00    +0.000 A 
ATOM     21  S   UNL     1       2.764   3.142  17.222  0.00  0.00    +0.000 S 
ATOM     22  C   UNL     1       4.011   4.291  16.984  0.00  0.00    +0.000 A 
ATOM     23  C   UNL     1       5.032   4.175  16.015  0.00  0.00    +0.000 A 
ATOM     24  C   UNL     1       5.879   5.249  15.803  0.00  0.00    +0.000 A 
ATOM     25  C   UNL     1       5.785   6.359  16.629  0.00  0.00    +0.000 A 
ATOM     26  C   UNL     1       4.833   6.421  17.682  0.00  0.00    +0.000 A 
ATOM     27  C   UNL     1       3.855   5.390  17.852  0.00  0.00    +0.000 A 
ENDBRANCH  17  19
ENDBRANCH   7  17
BRANCH   9  28
ATOM     28  O   UNL     1       2.244  10.220  17.352  0.00  0.00    +0.000 OA
ATOM     29  H   UNL     1       2.778   9.599  16.830  0.00  0.00    +0.000 HD
ENDBRANCH   9  28
BRANCH  13  30
ATOM     30  O   UNL     1       2.420  15.078  17.939  0.00  0.00    +0.000 OA
ATOM     31  H   UNL     1       3.293  14.690  18.117  0.00  0.00    +0.000 HD
ENDBRANCH  13  30
TORSDOF 4
ENDMDL
MODEL 2
REMARK VINA RESULT:      -8.2      1.767      2.437
REMARK  Name = 
REMARK  6 active torsions:
REMARK  status: ('A' for Active; 'I' for Inactive)
REMARK    1  A    between atoms: C_1  and  C_2
REMARK    2  A    between atoms: C_2  and  C_3
REMARK    3  A    between atoms: C_7  and  C_8
REMARK    4  A    between atoms: C_8  and  C_10
REMARK    5  A    between atoms: C_20  and  O_21
REMARK    6  A    between atoms: C_25  and  O_26
REMARK                            x       y       z     vdW  Elec       q    Type
REMARK                         _______ _______ _______ _____ _____    ______ ____
ROOT
ATOM      1  C   UNL     1      -1.295   9.117  21.375  0.00  0.00    +0.000 C 
ATOM      2  C   UNL     1       0.148   9.395  21.848  0.00  0.00    +0.000 C 
ATOM      3  C   UNL     1       0.076   9.588  23.377  0.00  0.00    +0.000 C 
ATOM      4  O   UNL     1       0.974   8.218  21.633  0.00  0.00    +0.000 OA
ATOM      5  C   UNL     1       1.590   8.055  20.407  0.00  0.00    +0.000 A 
ATOM      6  C   UNL     1       2.272   6.798  20.229  0.00  0.00    +0.000 A 
ATOM      7  C   UNL     1       2.859   6.394  19.007  0.00  0.00    +0.000 A 
ATOM      8  C   UNL     1       2.753   7.355  17.984  0.00  0.00    +0.000 A 
ATOM      9  C   UNL     1       2.126   8.610  18.172  0.00  0.00    +0.000 A 
ATOM     10  C   UNL     1       1.555   9.027  19.398  0.00  0.00    +0.000 A 
ATOM     11  C   UNL     1       0.860  10.381  19.643  0.00  0.00    +0.000 C 
ATOM     12  C   UNL     1       1.429  11.640  18.937  0.00  0.00    +0.000 C 
ATOM     13  C   UNL     1       0.690  12.929  19.332  0.00  0.00    +0.000 C 
ATOM     14  C   UNL     1       0.737  13.164  20.831  0.00  0.00    +0.000 C 
ATOM     15  C   UNL     1       0.133  11.977  21.565  0.00  0.00    +0.000 C 
ATOM     16  C   UNL     1       0.796  10.633  21.176  0.00  0.00    +0.000 C 
ENDROOT
BRANCH   7  17
ATOM     17  C   UNL     1       3.583   5.025  18.650  0.00  0.00    +0.000 C 
ATOM     18  O   UNL     1       2.973   3.984  18.881  0.00  0.00    +0.000 OA
BRANCH  17  19
ATOM     19  C   UNL     1       4.946   4.970  18.026  0.00  0.00    +0.000 A 
ATOM     20  C   UNL     1       6.085   4.787  18.784  0.00  0.00    +0.000 A 
ATOM     21  S   UNL     1       7.463   5.419  18.016  0.00  0.00    +0.000 S 
ATOM     22  C   UNL     1       6.781   5.044  16.491  0.00  0.00    +0.000 A 
ATOM     23  C   UNL     1       7.518   4.932  15.291  0.00  0.00    +0.000 A 
ATOM     24  C   UNL     1       6.883   4.455  14.157  0.00  0.00    +0.000 A 
ATOM     25  C   UNL     1       5.517   4.220  14.195  0.00  0.00    +0.000 A 
ATOM     26  C   UNL     1       4.757   4.449  15.374  0.00  0.00    +0.000 A 
ATOM     27  C   UNL     1       5.395   4.817  16.601  0.00  0.00    +0.000 A 
ENDBRANCH  17  19
ENDBRANCH   7  17
BRANCH   9  28
ATOM     28  O   UNL     1       2.035   9.479  17.103  0.00  0.00    +0.000 OA
ATOM     29  H   UNL     1       2.931   9.739  16.831  0.00  0.00    +0.000 HD
ENDBRANCH   9  28
BRANCH  13  30
ATOM     30  O   UNL     1       1.255  14.053  18.664  0.00  0.00    +0.000 OA
ATOM     31  H   UNL     1       1.225  14.813  19.269  0.00  0.00    +0.000 HD
ENDBRANCH  13  30
TORSDOF 4
ENDMDL
MODEL 3
REMARK VINA RESULT:      -8.1      1.909      3.943
REMARK  Name = 
REMARK  6 active torsions:
REMARK  status: ('A' for Active; 'I' for Inactive)
REMARK    1  A    between atoms: C_1  and  C_2
REMARK    2  A    between atoms: C_2  and  C_3
REMARK    3  A    between atoms: C_7  and  C_8
REMARK    4  A    between atoms: C_8  and  C_10
REMARK    5  A    between atoms: C_20  and  O_21
REMARK    6  A    between atoms: C_25  and  O_26
REMARK                            x       y       z     vdW  Elec       q    Type
REMARK                         _______ _______ _______ _____ _____    ______ ____
ROOT
ATOM      1  C   UNL     1       1.688  13.648  20.277  0.00  0.00    +0.000 C 
ATOM      2  C   UNL     1       0.554  13.007  19.450  0.00  0.00    +0.000 C 
ATOM      3  C   UNL     1       0.020  14.111  18.513  0.00  0.00    +0.000 C 
ATOM      4  O   UNL     1       1.098  11.976  18.582  0.00  0.00    +0.000 OA
ATOM      5  C   UNL     1       1.229  10.693  19.077  0.00  0.00    +0.000 A 
ATOM      6  C   UNL     1       1.904   9.767  18.203  0.00  0.00    +0.000 A 
ATOM      7  C   UNL     1       2.242   8.445  18.577  0.00  0.00    +0.000 A 
ATOM      8  C   UNL     1       1.818   8.098  19.873  0.00  0.00    +0.000 A 
ATOM      9  C   UNL     1       1.111   8.991  20.715  0.00  0.00    +0.000 A 
ATOM     10  C   UNL     1       0.755  10.307  20.338  0.00  0.00    +0.000 A 
ATOM     11  C   UNL     1      -0.010  11.312  21.225  0.00  0.00    +0.000 C 
ATOM     12  C   UNL     1      -1.123  10.772  22.159  0.00  0.00    +0.000 C 
ATOM     13  C   UNL     1      -1.852  11.889  22.924  0.00  0.00    +0.000 C 
ATOM     14  C   UNL     1      -2.476  12.899  21.978  0.00  0.00    +0.000 C 
ATOM     15  C   UNL     1      -1.409  13.501  21.078  0.00  0.00    +0.000 C 
ATOM     16  C   UNL     1      -0.595  12.428  20.314  0.00  0.00    +0.000 C 
ENDROOT
BRANCH   7  17
ATOM     17  C   UNL     1       3.032   7.343  17.749  0.00  0.00    +0.000 C 
ATOM     18  O   UNL     1       3.347   7.619  16.594  0.00  0.00    +0.000 OA
BRANCH  17  19
ATOM     19  C   UNL     1       3.420   6.016  18.332  0.00  0.00    +0.000 A 
ATOM     20  C   UNL     1       4.521   5.877  19.153  0.00  0.00    +0.000 A 
ATOM     21  S   UNL     1       5.136   4.293  19.123  0.00  0.00    +0.000 S 
ATOM     22  C   UNL     1       3.555   3.687  18.870  0.00  0.00    +0.000 A 
ATOM     23  C   UNL     1       3.161   2.352  19.112  0.00  0.00    +0.000 A 
ATOM     24  C   UNL     1       1.819   2.025  19.036  0.00  0.00    +0.000 A 
ATOM     25  C   UNL     1       0.913   2.982  18.605  0.00  0.00    +0.000 A 
ATOM     26  C   UNL     1       1.331   4.293  18.249  0.00  0.00    +0.000 A 
ATOM     27  C   UNL     1       2.687   4.710  18.436  0.00  0.00    +0.000 A 
ENDBRANCH  17  19
ENDBRANCH   7  17
BRANCH   9  28
ATOM     28  O   UNL     1       0.765   8.580  21.986  0.00  0.00    +0.000 OA
ATOM     29  H   UNL     1       1.443   8.884  22.612  0.00  0.00    +0.000 HD
ENDBRANCH   9  28
BRANCH  13  30
ATOM     30  O   UNL     1      -2.868  11.341  23.760  0.00  0.00    +0.000 OA
ATOM     31  H   UNL     1      -2.948  10.394  23.560  0.00  0.00    +0.000 HD
ENDBRANCH  13  30
TORSDOF 4
ENDMDL
MODEL 4
REMARK VINA RESULT:      -8.0      1.883      4.083
REMARK  Name = 
REMARK  6 active torsions:
REMARK  status: ('A' for Active; 'I' for Inactive)
REMARK    1  A    between atoms: C_1  and  C_2
REMARK    2  A    between atoms: C_2  and  C_3
REMARK    3  A    between atoms: C_7  and  C_8
REMARK    4  A    between atoms: C_8  and  C_10
REMARK    5  A    between atoms: C_20  and  O_21
REMARK    6  A    between atoms: C_25  and  O_26
REMARK                            x       y       z     vdW  Elec       q    Type
REMARK                         _______ _______ _______ _____ _____    ______ ____
ROOT
ATOM      1  C   UNL     1       1.530  13.549  19.997  0.00  0.00    +0.000 C 
ATOM      2  C   UNL     1       0.400  12.794  19.265  0.00  0.00    +0.000 C 
ATOM      3  C   UNL     1      -0.144  13.759  18.190  0.00  0.00    +0.000 C 
ATOM      4  O   UNL     1       0.951  11.660  18.542  0.00  0.00    +0.000 OA
ATOM      5  C   UNL     1       1.092  10.456  19.205  0.00  0.00    +0.000 A 
ATOM      6  C   UNL     1       1.773   9.426  18.461  0.00  0.00    +0.000 A 
ATOM      7  C   UNL     1       2.122   8.169  19.007  0.00  0.00    +0.000 A 
ATOM      8  C   UNL     1       1.702   7.995  20.339  0.00  0.00    +0.000 A 
ATOM      9  C   UNL     1       0.989   8.988  21.055  0.00  0.00    +0.000 A 
ATOM     10  C   UNL     1       0.622  10.239  20.507  0.00  0.00    +0.000 A 
ATOM     11  C   UNL     1      -0.149  11.347  21.252  0.00  0.00    +0.000 C 
ATOM     12  C   UNL     1      -1.257  10.928  22.253  0.00  0.00    +0.000 C 
ATOM     13  C   UNL     1      -1.994  12.132  22.864  0.00  0.00    +0.000 C 
ATOM     14  C   UNL     1      -2.626  13.002  21.792  0.00  0.00    +0.000 C 
ATOM     15  C   UNL     1      -1.565  13.487  20.818  0.00  0.00    +0.000 C 
ATOM     16  C   UNL     1      -0.744  12.327  20.202  0.00  0.00    +0.000 C 
ENDROOT
BRANCH   7  17
ATOM     17  C   UNL     1       2.919   6.972  18.332  0.00  0.00    +0.000 C 
ATOM     18  O   UNL     1       3.936   7.252  17.702  0.00  0.00    +0.000 OA
BRANCH  17  19
ATOM     19  C   UNL     1       2.493   5.539  18.463  0.00  0.00    +0.000 A 
ATOM     20  C   UNL     1       2.551   4.664  17.397  0.00  0.00    +0.000 A 
ATOM     21  S   UNL     1       1.440   3.389  17.567  0.00  0.00    +0.000 S 
ATOM     22  C   UNL     1       1.623   3.459  19.268  0.00  0.00    +0.000 A 
ATOM     23  C   UNL     1       1.278   2.415  20.154  0.00  0.00    +0.000 A 
ATOM     24  C   UNL     1       1.632   2.523  21.487  0.00  0.00    +0.000 A 
ATOM     25  C   UNL     1       2.203   3.702  21.942  0.00  0.00    +0.000 A 
ATOM     26  C   UNL     1       2.439   4.798  21.068  0.00  0.00    +0.000 A 
ATOM     27  C   UNL     1       2.208   4.680  19.661  0.00  0.00    +0.000 A 
ENDBRANCH  17  19
ENDBRANCH   7  17
BRANCH   9  28
ATOM     28  O   UNL     1       0.648   8.747  22.371  0.00  0.00    +0.000 OA
ATOM     29  H   UNL     1       1.247   9.249  22.949  0.00  0.00    +0.000 HD
ENDBRANCH   9  28
BRANCH  13  30
ATOM     30  O   UNL     1      -3.004  11.694  23.767  0.00  0.00    +0.000 OA
ATOM     31  H   UNL     1      -3.206  12.424  24.375  0.00  0.00    +0.000 HD
ENDBRANCH  13  30
TORSDOF 4
ENDMDL
MODEL 5
REMARK VINA RESULT:      -7.9      1.406      1.754
REMARK  Name = 
REMARK  6 active torsions:
REMARK  status: ('A' for Active; 'I' for Inactive)
REMARK    1  A    between atoms: C_1  and  C_2
REMARK    2  A    between atoms: C_2  and  C_3
REMARK    3  A    between atoms: C_7  and  C_8
REMARK    4  A    between atoms: C_8  and  C_10
REMARK    5  A    between atoms: C_20  and  O_21
REMARK    6  A    between atoms: C_25  and  O_26
REMARK                            x       y       z     vdW  Elec       q    Type
REMARK                         _______ _______ _______ _____ _____    ______ ____
ROOT
ATOM      1  C   UNL     1      -1.675  10.895  20.495  0.00  0.00    +0.000 C 
ATOM      2  C   UNL     1      -0.351  10.815  21.283  0.00  0.00    +0.000 C 
ATOM      3  C   UNL     1      -0.722  10.950  22.775  0.00  0.00    +0.000 C 
ATOM      4  O   UNL     1       0.233   9.492  21.135  0.00  0.00    +0.000 OA
ATOM      5  C   UNL     1       1.060   9.249  20.055  0.00  0.00    +0.000 A 
ATOM      6  C   UNL     1       1.482   7.879  19.907  0.00  0.00    +0.000 A 
ATOM      7  C   UNL     1       2.229   7.407  18.801  0.00  0.00    +0.000 A 
ATOM      8  C   UNL     1       2.562   8.412  17.874  0.00  0.00    +0.000 A 
ATOM      9  C   UNL     1       2.190   9.768  18.045  0.00  0.00    +0.000 A 
ATOM     10  C   UNL     1       1.460  10.247  19.157  0.00  0.00    +0.000 A 
ATOM     11  C   UNL     1       1.032  11.712  19.378  0.00  0.00    +0.000 C 
ATOM     12  C   UNL     1       1.998  12.839  18.929  0.00  0.00    +0.000 C 
ATOM     13  C   UNL     1       1.480  14.243  19.280  0.00  0.00    +0.000 C 
ATOM     14  C   UNL     1       1.237  14.393  20.772  0.00  0.00    +0.000 C 
ATOM     15  C   UNL     1       0.247  13.343  21.248  0.00  0.00    +0.000 C 
ATOM     16  C   UNL     1       0.679  11.902  20.881  0.00  0.00    +0.000 C 
ENDROOT
BRANCH   7  17
ATOM     17  C   UNL     1       2.707   5.928  18.476  0.00  0.00    +0.000 C 
ATOM     18  O   UNL     1       1.839   5.073  18.317  0.00  0.00    +0.000 OA
BRANCH  17  19
ATOM     19  C   UNL     1       4.154   5.558  18.331  0.00  0.00    +0.000 A 
ATOM     20  C   UNL     1       4.920   5.183  19.417  0.00  0.00    +0.000 A 
ATOM     21  S   UNL     1       6.573   5.475  19.153  0.00  0.00    +0.000 S 
ATOM     22  C   UNL     1       6.359   5.171  17.482  0.00  0.00    +0.000 A 
ATOM     23  C   UNL     1       7.402   4.845  16.587  0.00  0.00    +0.000 A 
ATOM     24  C   UNL     1       7.082   4.452  15.300  0.00  0.00    +0.000 A 
ATOM     25  C   UNL     1       5.760   4.507  14.884  0.00  0.00    +0.000 A 
ATOM     26  C   UNL     1       4.727   4.950  15.754  0.00  0.00    +0.000 A 
ATOM     27  C   UNL     1       4.996   5.241  17.129  0.00  0.00    +0.000 A 
ENDBRANCH  17  19
ENDBRANCH   7  17
BRANCH   9  28
ATOM     28  O   UNL     1       2.528  10.682  17.067  0.00  0.00    +0.000 OA
ATOM     29  H   UNL     1       2.543  11.572  17.458  0.00  0.00    +0.000 HD
ENDBRANCH   9  28
BRANCH  13  30
ATOM     30  O   UNL     1       2.406  15.238  18.854  0.00  0.00    +0.000 OA
ATOM     31  H   UNL     1       2.875  15.572  19.637  0.00  0.00    +0.000 HD
ENDBRANCH  13  30
TORSDOF 4
ENDMDL
MODEL 6
REMARK VINA RESULT:      -7.7      2.968      8.639
REMARK  Name = 
REMARK  6 active torsions:
REMARK  status: ('A' for Active; 'I' for Inactive)
REMARK    1  A    between atoms: C_1  and  C_2
REMARK    2  A    between atoms: C_2  and  C_3
REMARK    3  A    between atoms: C_7  and  C_8
REMARK    4  A    between atoms: C_8  and  C_10
REMARK    5  A    between atoms: C_20  and  O_21
REMARK    6  A    between atoms: C_25  and  O_26
REMARK                            x       y       z     vdW  Elec       q    Type
REMARK                         _______ _______ _______ _____ _____    ______ ____
ROOT
ATOM      1  C   UNL     1       2.809   3.982  16.460  0.00  0.00    +0.000 C 
ATOM      2  C   UNL     1       3.952   4.629  17.271  0.00  0.00    +0.000 C 
ATOM      3  C   UNL     1       5.267   4.223  16.572  0.00  0.00    +0.000 C 
ATOM      4  O   UNL     1       3.874   6.076  17.166  0.00  0.00    +0.000 OA
ATOM      5  C   UNL     1       3.079   6.765  18.062  0.00  0.00    +0.000 A 
ATOM      6  C   UNL     1       2.948   8.176  17.802  0.00  0.00    +0.000 A 
ATOM      7  C   UNL     1       2.084   9.028  18.531  0.00  0.00    +0.000 A 
ATOM      8  C   UNL     1       1.393   8.377  19.570  0.00  0.00    +0.000 A 
ATOM      9  C   UNL     1       1.559   7.000  19.858  0.00  0.00    +0.000 A 
ATOM     10  C   UNL     1       2.435   6.150  19.144  0.00  0.00    +0.000 A 
ATOM     11  C   UNL     1       2.642   4.647  19.422  0.00  0.00    +0.000 C 
ATOM     12  C   UNL     1       2.606   4.158  20.893  0.00  0.00    +0.000 C 
ATOM     13  C   UNL     1       2.904   2.655  21.029  0.00  0.00    +0.000 C 
ATOM     14  C   UNL     1       4.258   2.299  20.443  0.00  0.00    +0.000 C 
ATOM     15  C   UNL     1       4.319   2.707  18.980  0.00  0.00    +0.000 C 
ATOM     16  C   UNL     1       3.977   4.202  18.761  0.00  0.00    +0.000 C 
ENDROOT
BRANCH   7  17
ATOM     17  C   UNL     1       1.792  10.575  18.319  0.00  0.00    +0.000 C 
ATOM     18  O   UNL     1       2.706  11.270  17.881  0.00  0.00    +0.000 OA
BRANCH  17  19
ATOM     19  C   UNL     1       0.455  11.193  18.604  0.00  0.00    +0.000 A 
ATOM     20  C   UNL     1       0.340  12.473  19.112  0.00  0.00    +0.000 A 
ATOM     21  S   UNL     1      -1.118  12.686  19.958  0.00  0.00    +0.000 S 
ATOM     22  C   UNL     1      -1.888  11.575  18.908  0.00  0.00    +0.000 A 
ATOM     23  C   UNL     1      -3.286  11.481  18.728  0.00  0.00    +0.000 A 
ATOM     24  C   UNL     1      -3.779  10.664  17.725  0.00  0.00    +0.000 A 
ATOM     25  C   UNL     1      -2.899   9.868  17.007  0.00  0.00    +0.000 A 
ATOM     26  C   UNL     1      -1.503   9.878  17.273  0.00  0.00    +0.000 A 
ATOM     27  C   UNL     1      -0.939  10.801  18.211  0.00  0.00    +0.000 A 
ENDBRANCH  17  19
ENDBRANCH   7  17
BRANCH   9  28
ATOM     28  O   UNL     1       0.813   6.435  20.872  0.00  0.00    +0.000 OA
ATOM     29  H   UNL     1       0.560   7.129  21.503  0.00  0.00    +0.000 HD
ENDBRANCH   9  28
BRANCH  13  30
ATOM     30  O   UNL     1       2.867   2.260  22.397  0.00  0.00    +0.000 OA
ATOM     31  H   UNL     1       2.025   1.802  22.559  0.00  0.00    +0.000 HD
ENDBRANCH  13  30
TORSDOF 4
ENDMDL
MODEL 7
REMARK VINA RESULT:      -7.7      2.248      4.132
REMARK  Name = 
REMARK  6 active torsions:
REMARK  status: ('A' for Active; 'I' for Inactive)
REMARK    1  A    between atoms: C_1  and  C_2
REMARK    2  A    between atoms: C_2  and  C_3
REMARK    3  A    between atoms: C_7  and  C_8
REMARK    4  A    between atoms: C_8  and  C_10
REMARK    5  A    between atoms: C_20  and  O_21
REMARK    6  A    between atoms: C_25  and  O_26
REMARK                            x       y       z     vdW  Elec       q    Type
REMARK                         _______ _______ _______ _____ _____    ______ ____
ROOT
ATOM      1  C   UNL     1      -0.632  12.937  18.037  0.00  0.00    +0.000 C 
ATOM      2  C   UNL     1      -1.464  11.644  18.179  0.00  0.00    +0.000 C 
ATOM      3  C   UNL     1      -2.644  11.775  17.193  0.00  0.00    +0.000 C 
ATOM      4  O   UNL     1      -0.687  10.504  17.722  0.00  0.00    +0.000 OA
ATOM      5  C   UNL     1       0.143   9.864  18.621  0.00  0.00    +0.000 A 
ATOM      6  C   UNL     1       0.980   8.836  18.055  0.00  0.00    +0.000 A 
ATOM      7  C   UNL     1       1.980   8.152  18.786  0.00  0.00    +0.000 A 
ATOM      8  C   UNL     1       2.056   8.537  20.137  0.00  0.00    +0.000 A 
ATOM      9  C   UNL     1       1.201   9.512  20.707  0.00  0.00    +0.000 A 
ATOM     10  C   UNL     1       0.187  10.185  19.985  0.00  0.00    +0.000 A 
ATOM     11  C   UNL     1      -0.761  11.253  20.565  0.00  0.00    +0.000 C 
ATOM     12  C   UNL     1      -1.256  11.086  22.025  0.00  0.00    +0.000 C 
ATOM     13  C   UNL     1      -2.253  12.178  22.446  0.00  0.00    +0.000 C 
ATOM     14  C   UNL     1      -3.467  12.207  21.533  0.00  0.00    +0.000 C 
ATOM     15  C   UNL     1      -3.033  12.430  20.094  0.00  0.00    +0.000 C 
ATOM     16  C   UNL     1      -1.985  11.395  19.617  0.00  0.00    +0.000 C 
ENDROOT
BRANCH   7  17
ATOM     17  C   UNL     1       3.009   7.051  18.283  0.00  0.00    +0.000 C 
ATOM     18  O   UNL     1       4.076   7.442  17.818  0.00  0.00    +0.000 OA
BRANCH  17  19
ATOM     19  C   UNL     1       2.734   5.579  18.385  0.00  0.00    +0.000 A 
ATOM     20  C   UNL     1       3.109   4.699  17.389  0.00  0.00    +0.000 A 
ATOM     21  S   UNL     1       2.143   3.302  17.385  0.00  0.00    +0.000 S 
ATOM     22  C   UNL     1       1.964   3.423  19.084  0.00  0.00    +0.000 A 
ATOM     23  C   UNL     1       1.569   2.359  19.925  0.00  0.00    +0.000 A 
ATOM     24  C   UNL     1       1.629   2.532  21.297  0.00  0.00    +0.000 A 
ATOM     25  C   UNL     1       1.954   3.780  21.808  0.00  0.00    +0.000 A 
ATOM     26  C   UNL     1       2.236   4.881  20.955  0.00  0.00    +0.000 A 
ATOM     27  C   UNL     1       2.312   4.712  19.535  0.00  0.00    +0.000 A 
ENDBRANCH  17  19
ENDBRANCH   7  17
BRANCH   9  28
ATOM     28  O   UNL     1       1.369   9.856  22.033  0.00  0.00    +0.000 OA
ATOM     29  H   UNL     1       2.109   9.345  22.401  0.00  0.00    +0.000 HD
ENDBRANCH   9  28
BRANCH  13  30
ATOM     30  O   UNL     1      -2.682  11.973  23.789  0.00  0.00    +0.000 OA
ATOM     31  H   UNL     1      -1.975  12.274  24.383  0.00  0.00    +0.000 HD
ENDBRANCH  13  30
TORSDOF 4
ENDMDL
MODEL 8
REMARK VINA RESULT:      -7.6      2.013      3.849
REMARK  Name = 
REMARK  6 active torsions:
REMARK  status: ('A' for Active; 'I' for Inactive)
REMARK    1  A    between atoms: C_1  and  C_2
REMARK    2  A    between atoms: C_2  and  C_3
REMARK    3  A    between atoms: C_7  and  C_8
REMARK    4  A    between atoms: C_8  and  C_10
REMARK    5  A    between atoms: C_20  and  O_21
REMARK    6  A    between atoms: C_25  and  O_26
REMARK                            x       y       z     vdW  Elec       q    Type
REMARK                         _______ _______ _______ _____ _____    ______ ____
ROOT
ATOM      1  C   UNL     1       1.355  13.888  20.434  0.00  0.00    +0.000 C 
ATOM      2  C   UNL     1       0.216  13.171  19.678  0.00  0.00    +0.000 C 
ATOM      3  C   UNL     1      -0.268  14.151  18.588  0.00  0.00    +0.000 C 
ATOM      4  O   UNL     1       0.743  12.016  18.971  0.00  0.00    +0.000 OA
ATOM      5  C   UNL     1       0.826  10.810  19.640  0.00  0.00    +0.000 A 
ATOM      6  C   UNL     1       1.487   9.754  18.916  0.00  0.00    +0.000 A 
ATOM      7  C   UNL     1       1.778   8.486  19.474  0.00  0.00    +0.000 A 
ATOM      8  C   UNL     1       1.321   8.333  20.795  0.00  0.00    +0.000 A 
ATOM      9  C   UNL     1       0.627   9.353  21.492  0.00  0.00    +0.000 A 
ATOM     10  C   UNL     1       0.318  10.614  20.932  0.00  0.00    +0.000 A 
ATOM     11  C   UNL     1      -0.430  11.752  21.656  0.00  0.00    +0.000 C 
ATOM     12  C   UNL     1      -1.576  11.377  22.631  0.00  0.00    +0.000 C 
ATOM     13  C   UNL     1      -2.284  12.608  23.221  0.00  0.00    +0.000 C 
ATOM     14  C   UNL     1      -2.859  13.496  22.132  0.00  0.00    +0.000 C 
ATOM     15  C   UNL     1      -1.759  13.939  21.181  0.00  0.00    +0.000 C 
ATOM     16  C   UNL     1      -0.965  12.748  20.588  0.00  0.00    +0.000 C 
ENDROOT
BRANCH   7  17
ATOM     17  C   UNL     1       2.547   7.259  18.821  0.00  0.00    +0.000 C 
ATOM     18  O   UNL     1       3.281   7.494  17.863  0.00  0.00    +0.000 OA
BRANCH  17  19
ATOM     19  C   UNL     1       2.431   5.859  19.346  0.00  0.00    +0.000 A 
ATOM     20  C   UNL     1       1.601   5.546  20.405  0.00  0.00    +0.000 A 
ATOM     21  S   UNL     1       2.122   4.153  21.225  0.00  0.00    +0.000 S 
ATOM     22  C   UNL     1       2.734   3.520  19.757  0.00  0.00    +0.000 A 
ATOM     23  C   UNL     1       3.020   2.155  19.530  0.00  0.00    +0.000 A 
ATOM     24  C   UNL     1       3.344   1.742  18.250  0.00  0.00    +0.000 A 
ATOM     25  C   UNL     1       3.503   2.692  17.252  0.00  0.00    +0.000 A 
ATOM     26  C   UNL     1       3.331   4.078  17.514  0.00  0.00    +0.000 A 
ATOM     27  C   UNL     1       2.869   4.536  18.789  0.00  0.00    +0.000 A 
ENDBRANCH  17  19
ENDBRANCH   7  17
BRANCH   9  28
ATOM     28  O   UNL     1       0.247   9.130  22.800  0.00  0.00    +0.000 OA
ATOM     29  H   UNL     1      -0.617   8.684  22.806  0.00  0.00    +0.000 HD
ENDBRANCH   9  28
BRANCH  13  30
ATOM     30  O   UNL     1      -3.330  12.209  24.101  0.00  0.00    +0.000 OA
ATOM     31  H   UNL     1      -4.112  12.753  23.910  0.00  0.00    +0.000 HD
ENDBRANCH  13  30
TORSDOF 4
ENDMDL
MODEL 9
REMARK VINA RESULT:      -7.5      1.962      3.258
REMARK  Name = 
REMARK  6 active torsions:
REMARK  status: ('A' for Active; 'I' for Inactive)
REMARK    1  A    between atoms: C_1  and  C_2
REMARK    2  A    between atoms: C_2  and  C_3
REMARK    3  A    between atoms: C_7  and  C_8
REMARK    4  A    between atoms: C_8  and  C_10
REMARK    5  A    between atoms: C_20  and  O_21
REMARK    6  A    between atoms: C_25  and  O_26
REMARK                            x       y       z     vdW  Elec       q    Type
REMARK                         _______ _______ _______ _____ _____    ______ ____
ROOT
ATOM      1  C   UNL     1      -1.178   8.598  22.493  0.00  0.00    +0.000 C 
ATOM      2  C   UNL     1       0.135   9.409  22.503  0.00  0.00    +0.000 C 
ATOM      3  C   UNL     1       0.567   9.520  23.981  0.00  0.00    +0.000 C 
ATOM      4  O   UNL     1       1.185   8.658  21.835  0.00  0.00    +0.000 OA
ATOM      5  C   UNL     1       1.321   8.781  20.466  0.00  0.00    +0.000 A 
ATOM      6  C   UNL     1       2.290   7.899  19.867  0.00  0.00    +0.000 A 
ATOM      7  C   UNL     1       2.488   7.789  18.470  0.00  0.00    +0.000 A 
ATOM      8  C   UNL     1       1.678   8.656  17.715  0.00  0.00    +0.000 A 
ATOM      9  C   UNL     1       0.759   9.558  18.305  0.00  0.00    +0.000 A 
ATOM     10  C   UNL     1       0.572   9.686  19.701  0.00  0.00    +0.000 A 
ATOM     11  C   UNL     1      -0.418  10.651  20.383  0.00  0.00    +0.000 C 
ATOM     12  C   UNL     1      -0.640  12.049  19.749  0.00  0.00    +0.000 C 
ATOM     13  C   UNL     1      -1.590  12.933  20.574  0.00  0.00    +0.000 C 
ATOM     14  C   UNL     1      -1.081  13.130  21.991  0.00  0.00    +0.000 C 
ATOM     15  C   UNL     1      -0.905  11.784  22.675  0.00  0.00    +0.000 C 
ATOM     16  C   UNL     1       0.001  10.818  21.871  0.00  0.00    +0.000 C 
ENDROOT
BRANCH   7  17
ATOM     17  C   UNL     1       3.467   6.825  17.672  0.00  0.00    +0.000 C 
ATOM     18  O   UNL     1       4.261   7.344  16.891  0.00  0.00    +0.000 OA
BRANCH  17  19
ATOM     19  C   UNL     1       3.470   5.337  17.862  0.00  0.00    +0.000 A 
ATOM     20  C   UNL     1       4.535   4.555  17.459  0.00  0.00    +0.000 A 
ATOM     21  S   UNL     1       4.060   2.954  17.147  0.00  0.00    +0.000 S 
ATOM     22  C   UNL     1       2.858   3.077  18.360  0.00  0.00    +0.000 A 
ATOM     23  C   UNL     1       2.239   1.974  18.988  0.00  0.00    +0.000 A 
ATOM     24  C   UNL     1       1.410   2.198  20.073  0.00  0.00    +0.000 A 
ATOM     25  C   UNL     1       1.110   3.503  20.437  0.00  0.00    +0.000 A 
ATOM     26  C   UNL     1       1.643   4.612  19.726  0.00  0.00    +0.000 A 
ATOM     27  C   UNL     1       2.604   4.425  18.682  0.00  0.00    +0.000 A 
ENDBRANCH  17  19
ENDBRANCH   7  17
BRANCH   9  28
ATOM     28  O   UNL     1      -0.023  10.348  17.486  0.00  0.00    +0.000 OA
ATOM     29  H   UNL     1      -0.750   9.810  17.130  0.00  0.00    +0.000 HD
ENDBRANCH   9  28
BRANCH  13  30
ATOM     30  O   UNL     1      -1.753  14.205  19.954  0.00  0.00    +0.000 OA
ATOM     31  H   UNL     1      -1.384  14.882  20.546  0.00  0.00    +0.000 HD
ENDBRANCH  13  30
TORSDOF 4
ENDMDL
