MODEL 1
REMARK VINA RESULT:      -6.7      0.000      0.000
REMARK  Name = 
REMARK  8 active torsions:
REMARK  status: ('A' for Active; 'I' for Inactive)
REMARK    1  A    between atoms: C_1  and  C_2
REMARK    2  A    between atoms: C_2  and  C_3
REMARK    3  A    between atoms: C_3  and  N_4
REMARK    4  A    between atoms: C_8  and  C_9
REMARK    5  A    between atoms: C_12  and  C_13
REMARK    6  A    between atoms: N_17  and  C_18
REMARK    7  A    between atoms: C_21  and  O_22
REMARK    8  A    between atoms: O_22  and  C_23
REMARK                            x       y       z     vdW  Elec       q    Type
REMARK                         _______ _______ _______ _____ _____    ______ ____
ROOT
ATOM      1  N   UNL     1       1.680   7.616  20.005  0.00  0.00    +0.000 N 
ATOM      2  C   UNL     1       2.405   6.434  20.082  0.00  0.00    +0.000 C 
ATOM      3  O   UNL     1       2.359   5.585  20.964  0.00  0.00    +0.000 OA
ATOM      4  C   UNL     1       3.338   6.288  18.941  0.00  0.00    +0.000 C 
ATOM      5  C   UNL     1       4.141   5.222  18.913  0.00  0.00    +0.000 C 
ATOM      6  S   UNL     1       3.130   7.577  17.851  0.00  0.00    +0.000 S 
ATOM      7  C   UNL     1       1.955   8.396  18.892  0.00  0.00    +0.000 C 
ATOM      8  N   UNL     1       1.578   9.547  18.445  0.00  0.00    +0.000 NA
ENDROOT
BRANCH   5   9
ATOM      9  C   UNL     1       5.105   4.928  17.914  0.00  0.00    +0.000 A 
ATOM     10  C   UNL     1       6.486   4.962  17.948  0.00  0.00    +0.000 A 
ATOM     11  C   UNL     1       7.079   4.587  16.709  0.00  0.00    +0.000 A 
ATOM     12  C   UNL     1       6.138   4.248  15.765  0.00  0.00    +0.000 A 
ATOM     13  C   UNL     1       6.348   3.811  14.359  0.00  0.00    +0.000 C 
ATOM     14  S   UNL     1       4.553   4.365  16.383  0.00  0.00    +0.000 S 
ENDBRANCH   5   9
BRANCH   8  15
ATOM     15  C   UNL     1       0.703  10.483  18.992  0.00  0.00    +0.000 A 
ATOM     16  C   UNL     1       1.130  11.655  19.603  0.00  0.00    +0.000 A 
ATOM     17  C   UNL     1       0.230  12.531  20.200  0.00  0.00    +0.000 A 
ATOM     18  C   UNL     1      -1.133  12.369  19.989  0.00  0.00    +0.000 A 
ATOM     19  C   UNL     1      -1.592  11.290  19.239  0.00  0.00    +0.000 A 
ATOM     20  C   UNL     1      -0.676  10.339  18.764  0.00  0.00    +0.000 A 
BRANCH  18  21
ATOM     21  O   UNL     1      -1.942  13.309  20.558  0.00  0.00    +0.000 OA
ATOM     22  C   UNL     1      -3.327  12.992  20.450  0.00  0.00    +0.000 C 
ENDBRANCH  18  21
ENDBRANCH   8  15
BRANCH   1  23
ATOM     23  C   UNL     1       0.764   7.972  21.082  0.00  0.00    +0.000 C 
BRANCH  23  25
ATOM     24  C   UNL     1       0.020   9.669  22.811  0.00  0.00    +0.000 C 
ATOM     25  C   UNL     1       1.200   8.979  22.156  0.00  0.00    +0.000 C 
ENDBRANCH  23  25
ENDBRANCH   1  23
TORSDOF 5
ENDMDL
MODEL 2
REMARK VINA RESULT:      -6.4      0.943      1.364
REMARK  Name = 
REMARK  8 active torsions:
REMARK  status: ('A' for Active; 'I' for Inactive)
REMARK    1  A    between atoms: C_1  and  C_2
REMARK    2  A    between atoms: C_2  and  C_3
REMARK    3  A    between atoms: C_3  and  N_4
REMARK    4  A    between atoms: C_8  and  C_9
REMARK    5  A    between atoms: C_12  and  C_13
REMARK    6  A    between atoms: N_17  and  C_18
REMARK    7  A    between atoms: C_21  and  O_22
REMARK    8  A    between atoms: O_22  and  C_23
REMARK                            x       y       z     vdW  Elec       q    Type
REMARK                         _______ _______ _______ _____ _____    ______ ____
ROOT
ATOM      1  N   UNL     1       1.198   8.192  20.097  0.00  0.00    +0.000 N 
ATOM      2  C   UNL     1       1.920   7.007  20.067  0.00  0.00    +0.000 C 
ATOM      3  O   UNL     1       1.881   6.087  20.873  0.00  0.00    +0.000 OA
ATOM      4  C   UNL     1       2.840   6.956  18.907  0.00  0.00    +0.000 C 
ATOM      5  C   UNL     1       3.640   5.895  18.780  0.00  0.00    +0.000 C 
ATOM      6  S   UNL     1       2.625   8.333  17.933  0.00  0.00    +0.000 S 
ATOM      7  C   UNL     1       1.464   9.063  19.051  0.00  0.00    +0.000 C 
ATOM      8  N   UNL     1       1.085  10.250  18.708  0.00  0.00    +0.000 NA
ENDROOT
BRANCH   5   9
ATOM      9  C   UNL     1       4.593   5.685  17.750  0.00  0.00    +0.000 A 
ATOM     10  C   UNL     1       5.749   6.370  17.429  0.00  0.00    +0.000 A 
ATOM     11  C   UNL     1       6.424   5.819  16.303  0.00  0.00    +0.000 A 
ATOM     12  C   UNL     1       5.783   4.709  15.806  0.00  0.00    +0.000 A 
ATOM     13  C   UNL     1       6.162   3.860  14.645  0.00  0.00    +0.000 C 
ATOM     14  S   UNL     1       4.388   4.328  16.709  0.00  0.00    +0.000 S 
ENDBRANCH   5   9
BRANCH   8  15
ATOM     15  C   UNL     1       0.218  11.137  19.341  0.00  0.00    +0.000 A 
ATOM     16  C   UNL     1      -1.165  11.052  19.234  0.00  0.00    +0.000 A 
ATOM     17  C   UNL     1      -1.996  11.998  19.823  0.00  0.00    +0.000 A 
ATOM     18  C   UNL     1      -1.470  12.909  20.730  0.00  0.00    +0.000 A 
ATOM     19  C   UNL     1      -0.102  12.915  20.988  0.00  0.00    +0.000 A 
ATOM     20  C   UNL     1       0.738  12.046  20.276  0.00  0.00    +0.000 A 
BRANCH  18  21
ATOM     21  O   UNL     1      -2.366  13.760  21.310  0.00  0.00    +0.000 OA
ATOM     22  C   UNL     1      -2.872  13.275  22.551  0.00  0.00    +0.000 C 
ENDBRANCH  18  21
ENDBRANCH   8  15
BRANCH   1  23
ATOM     23  C   UNL     1       0.294   8.458  21.210  0.00  0.00    +0.000 C 
BRANCH  23  25
ATOM     24  C   UNL     1      -0.308   9.862  23.232  0.00  0.00    +0.000 C 
ATOM     25  C   UNL     1       0.809   9.195  22.455  0.00  0.00    +0.000 C 
ENDBRANCH  23  25
ENDBRANCH   1  23
TORSDOF 5
ENDMDL
MODEL 3
REMARK VINA RESULT:      -6.1      2.288      2.998
REMARK  Name = 
REMARK  8 active torsions:
REMARK  status: ('A' for Active; 'I' for Inactive)
REMARK    1  A    between atoms: C_1  and  C_2
REMARK    2  A    between atoms: C_2  and  C_3
REMARK    3  A    between atoms: C_3  and  N_4
REMARK    4  A    between atoms: C_8  and  C_9
REMARK    5  A    between atoms: C_12  and  C_13
REMARK    6  A    between atoms: N_17  and  C_18
REMARK    7  A    between atoms: C_21  and  O_22
REMARK    8  A    between atoms: O_22  and  C_23
REMARK                            x       y       z     vdW  Elec       q    Type
REMARK                         _______ _______ _______ _____ _____    ______ ____
ROOT
ATOM      1  N   UNL     1       1.200   9.956  20.287  0.00  0.00    +0.000 N 
ATOM      2  C   UNL     1       1.380   8.629  20.653  0.00  0.00    +0.000 C 
ATOM      3  O   UNL     1       1.220   8.131  21.760  0.00  0.00    +0.000 OA
ATOM      4  C   UNL     1       1.853   7.806  19.515  0.00  0.00    +0.000 C 
ATOM      5  C   UNL     1       2.122   6.518  19.736  0.00  0.00    +0.000 C 
ATOM      6  S   UNL     1       1.916   8.750  18.102  0.00  0.00    +0.000 S 
ATOM      7  C   UNL     1       1.475  10.236  18.957  0.00  0.00    +0.000 C 
ATOM      8  N   UNL     1       1.496  11.291  18.211  0.00  0.00    +0.000 NA
ENDROOT
BRANCH   5   9
ATOM      9  C   UNL     1       2.599   5.587  18.776  0.00  0.00    +0.000 A 
ATOM     10  C   UNL     1       1.959   4.556  18.116  0.00  0.00    +0.000 A 
ATOM     11  C   UNL     1       2.817   3.855  17.222  0.00  0.00    +0.000 A 
ATOM     12  C   UNL     1       4.086   4.385  17.199  0.00  0.00    +0.000 A 
ATOM     13  C   UNL     1       5.265   3.938  16.408  0.00  0.00    +0.000 C 
ATOM     14  S   UNL     1       4.228   5.730  18.237  0.00  0.00    +0.000 S 
ENDBRANCH   5   9
BRANCH   8  15
ATOM     15  C   UNL     1       1.242  12.623  18.529  0.00  0.00    +0.000 A 
ATOM     16  C   UNL     1       2.248  13.560  18.729  0.00  0.00    +0.000 A 
ATOM     17  C   UNL     1       1.957  14.864  19.114  0.00  0.00    +0.000 A 
ATOM     18  C   UNL     1       0.645  15.319  19.074  0.00  0.00    +0.000 A 
ATOM     19  C   UNL     1      -0.378  14.445  18.718  0.00  0.00    +0.000 A 
ATOM     20  C   UNL     1      -0.079  13.096  18.470  0.00  0.00    +0.000 A 
BRANCH  18  21
ATOM     21  O   UNL     1       0.456  16.629  19.407  0.00  0.00    +0.000 OA
ATOM     22  C   UNL     1      -0.542  17.266  18.615  0.00  0.00    +0.000 C 
ENDBRANCH  18  21
ENDBRANCH   8  15
BRANCH   1  23
ATOM     23  C   UNL     1       0.809  10.936  21.294  0.00  0.00    +0.000 C 
BRANCH  23  25
ATOM     24  C   UNL     1      -0.979  10.597  23.058  0.00  0.00    +0.000 C 
ATOM     25  C   UNL     1      -0.672  11.104  21.664  0.00  0.00    +0.000 C 
ENDBRANCH  23  25
ENDBRANCH   1  23
TORSDOF 5
ENDMDL
MODEL 4
REMARK VINA RESULT:      -6.1      2.729      8.328
REMARK  Name = 
REMARK  8 active torsions:
REMARK  status: ('A' for Active; 'I' for Inactive)
REMARK    1  A    between atoms: C_1  and  C_2
REMARK    2  A    between atoms: C_2  and  C_3
REMARK    3  A    between atoms: C_3  and  N_4
REMARK    4  A    between atoms: C_8  and  C_9
REMARK    5  A    between atoms: C_12  and  C_13
REMARK    6  A    between atoms: N_17  and  C_18
REMARK    7  A    between atoms: C_21  and  O_22
REMARK    8  A    between atoms: O_22  and  C_23
REMARK                            x       y       z     vdW  Elec       q    Type
REMARK                         _______ _______ _______ _____ _____    ______ ____
ROOT
ATOM      1  N   UNL     1       1.852   7.316  20.222  0.00  0.00    +0.000 N 
ATOM      2  C   UNL     1       1.322   8.412  20.887  0.00  0.00    +0.000 C 
ATOM      3  O   UNL     1       0.970   8.478  22.059  0.00  0.00    +0.000 OA
ATOM      4  C   UNL     1       1.170   9.579  19.987  0.00  0.00    +0.000 C 
ATOM      5  C   UNL     1       0.619  10.690  20.480  0.00  0.00    +0.000 C 
ATOM      6  S   UNL     1       1.801   9.214  18.451  0.00  0.00    +0.000 S 
ATOM      7  C   UNL     1       2.143   7.532  18.883  0.00  0.00    +0.000 C 
ATOM      8  N   UNL     1       2.584   6.821  17.898  0.00  0.00    +0.000 NA
ENDROOT
BRANCH   5   9
ATOM      9  C   UNL     1       0.378  11.892  19.765  0.00  0.00    +0.000 A 
ATOM     10  C   UNL     1      -0.542  12.193  18.779  0.00  0.00    +0.000 A 
ATOM     11  C   UNL     1      -0.444  13.538  18.323  0.00  0.00    +0.000 A 
ATOM     12  C   UNL     1       0.530  14.243  18.990  0.00  0.00    +0.000 A 
ATOM     13  C   UNL     1       0.943  15.660  18.805  0.00  0.00    +0.000 C 
ATOM     14  S   UNL     1       1.304  13.286  20.171  0.00  0.00    +0.000 S 
ENDBRANCH   5   9
BRANCH   8  15
ATOM     15  C   UNL     1       2.930   5.473  17.846  0.00  0.00    +0.000 A 
ATOM     16  C   UNL     1       4.144   4.983  18.309  0.00  0.00    +0.000 A 
ATOM     17  C   UNL     1       4.482   3.641  18.175  0.00  0.00    +0.000 A 
ATOM     18  C   UNL     1       3.515   2.721  17.792  0.00  0.00    +0.000 A 
ATOM     19  C   UNL     1       2.232   3.159  17.477  0.00  0.00    +0.000 A 
ATOM     20  C   UNL     1       1.952   4.534  17.482  0.00  0.00    +0.000 A 
BRANCH  18  21
ATOM     21  O   UNL     1       3.915   1.417  17.747  0.00  0.00    +0.000 OA
ATOM     22  C   UNL     1       4.162   0.865  19.038  0.00  0.00    +0.000 C 
ENDBRANCH  18  21
ENDBRANCH   8  15
BRANCH   1  23
ATOM     23  C   UNL     1       2.005   6.048  20.926  0.00  0.00    +0.000 C 
BRANCH  23  25
ATOM     24  C   UNL     1       1.586   3.555  21.099  0.00  0.00    +0.000 C 
ATOM     25  C   UNL     1       1.041   4.889  20.632  0.00  0.00    +0.000 C 
ENDBRANCH  23  25
ENDBRANCH   1  23
TORSDOF 5
ENDMDL
MODEL 5
REMARK VINA RESULT:      -6.0      2.531      3.735
REMARK  Name = 
REMARK  8 active torsions:
REMARK  status: ('A' for Active; 'I' for Inactive)
REMARK    1  A    between atoms: C_1  and  C_2
REMARK    2  A    between atoms: C_2  and  C_3
REMARK    3  A    between atoms: C_3  and  N_4
REMARK    4  A    between atoms: C_8  and  C_9
REMARK    5  A    between atoms: C_12  and  C_13
REMARK    6  A    between atoms: N_17  and  C_18
REMARK    7  A    between atoms: C_21  and  O_22
REMARK    8  A    between atoms: O_22  and  C_23
REMARK                            x       y       z     vdW  Elec       q    Type
REMARK                         _______ _______ _______ _____ _____    ______ ____
ROOT
ATOM      1  N   UNL     1       0.951  10.016  19.421  0.00  0.00    +0.000 N 
ATOM      2  C   UNL     1       1.583   9.235  18.463  0.00  0.00    +0.000 C 
ATOM      3  O   UNL     1       1.752   9.495  17.278  0.00  0.00    +0.000 OA
ATOM      4  C   UNL     1       2.042   7.943  19.025  0.00  0.00    +0.000 C 
ATOM      5  C   UNL     1       2.620   7.065  18.202  0.00  0.00    +0.000 C 
ATOM      6  S   UNL     1       1.733   7.893  20.696  0.00  0.00    +0.000 S 
ATOM      7  C   UNL     1       0.893   9.451  20.686  0.00  0.00    +0.000 C 
ATOM      8  N   UNL     1       0.381   9.773  21.828  0.00  0.00    +0.000 NA
ENDROOT
BRANCH   5   9
ATOM      9  C   UNL     1       3.103   5.778  18.556  0.00  0.00    +0.000 A 
ATOM     10  C   UNL     1       4.190   5.395  19.318  0.00  0.00    +0.000 A 
ATOM     11  C   UNL     1       4.317   3.981  19.427  0.00  0.00    +0.000 A 
ATOM     12  C   UNL     1       3.308   3.317  18.770  0.00  0.00    +0.000 A 
ATOM     13  C   UNL     1       3.090   1.851  18.643  0.00  0.00    +0.000 C 
ATOM     14  S   UNL     1       2.208   4.399  18.044  0.00  0.00    +0.000 S 
ENDBRANCH   5   9
BRANCH   8  15
ATOM     15  C   UNL     1      -0.365  10.890  22.197  0.00  0.00    +0.000 A 
ATOM     16  C   UNL     1      -1.517  10.810  22.970  0.00  0.00    +0.000 A 
ATOM     17  C   UNL     1      -2.275  11.939  23.259  0.00  0.00    +0.000 A 
ATOM     18  C   UNL     1      -1.766  13.201  22.981  0.00  0.00    +0.000 A 
ATOM     19  C   UNL     1      -0.531  13.324  22.350  0.00  0.00    +0.000 A 
ATOM     20  C   UNL     1       0.152  12.169  21.940  0.00  0.00    +0.000 A 
BRANCH  18  21
ATOM     21  O   UNL     1      -2.547  14.256  23.355  0.00  0.00    +0.000 OA
ATOM     22  C   UNL     1      -3.463  13.929  24.396  0.00  0.00    +0.000 C 
ENDBRANCH  18  21
ENDBRANCH   8  15
BRANCH   1  23
ATOM     23  C   UNL     1       0.363  11.293  19.037  0.00  0.00    +0.000 C 
BRANCH  23  25
ATOM     24  C   UNL     1      -1.996  12.219  19.107  0.00  0.00    +0.000 C 
ATOM     25  C   UNL     1      -1.019  11.329  18.366  0.00  0.00    +0.000 C 
ENDBRANCH  23  25
ENDBRANCH   1  23
TORSDOF 5
ENDMDL
MODEL 6
REMARK VINA RESULT:      -6.0      1.350      1.622
REMARK  Name = 
REMARK  8 active torsions:
REMARK  status: ('A' for Active; 'I' for Inactive)
REMARK    1  A    between atoms: C_1  and  C_2
REMARK    2  A    between atoms: C_2  and  C_3
REMARK    3  A    between atoms: C_3  and  N_4
REMARK    4  A    between atoms: C_8  and  C_9
REMARK    5  A    between atoms: C_12  and  C_13
REMARK    6  A    between atoms: N_17  and  C_18
REMARK    7  A    between atoms: C_21  and  O_22
REMARK    8  A    between atoms: O_22  and  C_23
REMARK                            x       y       z     vdW  Elec       q    Type
REMARK                         _______ _______ _______ _____ _____    ______ ____
ROOT
ATOM      1  N   UNL     1       1.217   8.467  19.984  0.00  0.00    +0.000 N 
ATOM      2  C   UNL     1       1.680   7.168  20.138  0.00  0.00    +0.000 C 
ATOM      3  O   UNL     1       1.439   6.392  21.054  0.00  0.00    +0.000 OA
ATOM      4  C   UNL     1       2.590   6.776  19.037  0.00  0.00    +0.000 C 
ATOM      5  C   UNL     1       3.157   5.568  19.084  0.00  0.00    +0.000 C 
ATOM      6  S   UNL     1       2.681   8.023  17.885  0.00  0.00    +0.000 S 
ATOM      7  C   UNL     1       1.675   9.117  18.847  0.00  0.00    +0.000 C 
ATOM      8  N   UNL     1       1.555  10.298  18.337  0.00  0.00    +0.000 NA
ENDROOT
BRANCH   5   9
ATOM      9  C   UNL     1       4.064   5.032  18.133  0.00  0.00    +0.000 A 
ATOM     10  C   UNL     1       3.867   4.148  17.090  0.00  0.00    +0.000 A 
ATOM     11  C   UNL     1       5.063   3.868  16.370  0.00  0.00    +0.000 A 
ATOM     12  C   UNL     1       6.141   4.566  16.862  0.00  0.00    +0.000 A 
ATOM     13  C   UNL     1       7.553   4.546  16.395  0.00  0.00    +0.000 C 
ATOM     14  S   UNL     1       5.701   5.565  18.172  0.00  0.00    +0.000 S 
ENDBRANCH   5   9
BRANCH   8  15
ATOM     15  C   UNL     1       0.879  11.419  18.811  0.00  0.00    +0.000 A 
ATOM     16  C   UNL     1       1.518  12.482  19.438  0.00  0.00    +0.000 A 
ATOM     17  C   UNL     1       0.801  13.552  19.961  0.00  0.00    +0.000 A 
ATOM     18  C   UNL     1      -0.547  13.694  19.657  0.00  0.00    +0.000 A 
ATOM     19  C   UNL     1      -1.186  12.725  18.889  0.00  0.00    +0.000 A 
ATOM     20  C   UNL     1      -0.478  11.582  18.489  0.00  0.00    +0.000 A 
BRANCH  18  21
ATOM     21  O   UNL     1      -1.159  14.806  20.159  0.00  0.00    +0.000 OA
ATOM     22  C   UNL     1      -0.726  16.010  19.533  0.00  0.00    +0.000 C 
ENDBRANCH  18  21
ENDBRANCH   8  15
BRANCH   1  23
ATOM     23  C   UNL     1       0.368   9.058  21.011  0.00  0.00    +0.000 C 
BRANCH  23  25
ATOM     24  C   UNL     1      -0.099   9.580  23.447  0.00  0.00    +0.000 C 
ATOM     25  C   UNL     1       0.964   9.426  22.378  0.00  0.00    +0.000 C 
ENDBRANCH  23  25
ENDBRANCH   1  23
TORSDOF 5
ENDMDL
MODEL 7
REMARK VINA RESULT:      -6.0      1.030      1.538
REMARK  Name = 
REMARK  8 active torsions:
REMARK  status: ('A' for Active; 'I' for Inactive)
REMARK    1  A    between atoms: C_1  and  C_2
REMARK    2  A    between atoms: C_2  and  C_3
REMARK    3  A    between atoms: C_3  and  N_4
REMARK    4  A    between atoms: C_8  and  C_9
REMARK    5  A    between atoms: C_12  and  C_13
REMARK    6  A    between atoms: N_17  and  C_18
REMARK    7  A    between atoms: C_21  and  O_22
REMARK    8  A    between atoms: O_22  and  C_23
REMARK                            x       y       z     vdW  Elec       q    Type
REMARK                         _______ _______ _______ _____ _____    ______ ____
ROOT
ATOM      1  N   UNL     1       1.269   8.039  20.084  0.00  0.00    +0.000 N 
ATOM      2  C   UNL     1       1.834   6.771  20.112  0.00  0.00    +0.000 C 
ATOM      3  O   UNL     1       1.708   5.915  20.979  0.00  0.00    +0.000 OA
ATOM      4  C   UNL     1       2.698   6.530  18.933  0.00  0.00    +0.000 C 
ATOM      5  C   UNL     1       3.352   5.369  18.855  0.00  0.00    +0.000 C 
ATOM      6  S   UNL     1       2.624   7.860  17.876  0.00  0.00    +0.000 S 
ATOM      7  C   UNL     1       1.605   8.801  18.975  0.00  0.00    +0.000 C 
ATOM      8  N   UNL     1       1.368  10.003  18.564  0.00  0.00    +0.000 NA
ENDROOT
BRANCH   5   9
ATOM      9  C   UNL     1       4.234   4.974  17.816  0.00  0.00    +0.000 A 
ATOM     10  C   UNL     1       4.097   4.022  16.823  0.00  0.00    +0.000 A 
ATOM     11  C   UNL     1       5.236   3.944  15.973  0.00  0.00    +0.000 A 
ATOM     12  C   UNL     1       6.205   4.856  16.317  0.00  0.00    +0.000 A 
ATOM     13  C   UNL     1       7.533   5.085  15.686  0.00  0.00    +0.000 C 
ATOM     14  S   UNL     1       5.729   5.811  17.648  0.00  0.00    +0.000 S 
ENDBRANCH   5   9
BRANCH   8  15
ATOM     15  C   UNL     1       0.643  11.032  19.161  0.00  0.00    +0.000 A 
ATOM     16  C   UNL     1      -0.743  11.117  19.101  0.00  0.00    +0.000 A 
ATOM     17  C   UNL     1      -1.426  12.196  19.649  0.00  0.00    +0.000 A 
ATOM     18  C   UNL     1      -0.756  13.090  20.475  0.00  0.00    +0.000 A 
ATOM     19  C   UNL     1       0.610  12.939  20.690  0.00  0.00    +0.000 A 
ATOM     20  C   UNL     1       1.308  11.926  20.015  0.00  0.00    +0.000 A 
BRANCH  18  21
ATOM     21  O   UNL     1      -1.516  14.084  21.022  0.00  0.00    +0.000 OA
ATOM     22  C   UNL     1      -2.305  13.640  22.122  0.00  0.00    +0.000 C 
ENDBRANCH  18  21
ENDBRANCH   8  15
BRANCH   1  23
ATOM     23  C   UNL     1       0.446   8.487  21.201  0.00  0.00    +0.000 C 
BRANCH  23  25
ATOM     24  C   UNL     1       0.087   9.611  23.444  0.00  0.00    +0.000 C 
ATOM     25  C   UNL     1       1.101   9.189  22.400  0.00  0.00    +0.000 C 
ENDBRANCH  23  25
ENDBRANCH   1  23
TORSDOF 5
ENDMDL
MODEL 8
REMARK VINA RESULT:      -5.8      2.509      3.444
REMARK  Name = 
REMARK  8 active torsions:
REMARK  status: ('A' for Active; 'I' for Inactive)
REMARK    1  A    between atoms: C_1  and  C_2
REMARK    2  A    between atoms: C_2  and  C_3
REMARK    3  A    between atoms: C_3  and  N_4
REMARK    4  A    between atoms: C_8  and  C_9
REMARK    5  A    between atoms: C_12  and  C_13
REMARK    6  A    between atoms: N_17  and  C_18
REMARK    7  A    between atoms: C_21  and  O_22
REMARK    8  A    between atoms: O_22  and  C_23
REMARK                            x       y       z     vdW  Elec       q    Type
REMARK                         _______ _______ _______ _____ _____    ______ ____
ROOT
ATOM      1  N   UNL     1       1.014  10.270  20.417  0.00  0.00    +0.000 N 
ATOM      2  C   UNL     1       1.174   8.966  20.867  0.00  0.00    +0.000 C 
ATOM      3  O   UNL     1       0.968   8.533  21.993  0.00  0.00    +0.000 OA
ATOM      4  C   UNL     1       1.689   8.077  19.799  0.00  0.00    +0.000 C 
ATOM      5  C   UNL     1       1.945   6.804  20.105  0.00  0.00    +0.000 C 
ATOM      6  S   UNL     1       1.812   8.936  18.336  0.00  0.00    +0.000 S 
ATOM      7  C   UNL     1       1.343  10.470  19.084  0.00  0.00    +0.000 C 
ATOM      8  N   UNL     1       1.398  11.480  18.280  0.00  0.00    +0.000 NA
ENDROOT
BRANCH   5   9
ATOM      9  C   UNL     1       2.456   5.818  19.221  0.00  0.00    +0.000 A 
ATOM     10  C   UNL     1       3.466   5.879  18.280  0.00  0.00    +0.000 A 
ATOM     11  C   UNL     1       3.662   4.644  17.599  0.00  0.00    +0.000 A 
ATOM     12  C   UNL     1       2.817   3.660  18.055  0.00  0.00    +0.000 A 
ATOM     13  C   UNL     1       2.705   2.248  17.601  0.00  0.00    +0.000 C 
ATOM     14  S   UNL     1       1.809   4.224  19.310  0.00  0.00    +0.000 S 
ENDBRANCH   5   9
BRANCH   8  15
ATOM     15  C   UNL     1       1.135  12.828  18.509  0.00  0.00    +0.000 A 
ATOM     16  C   UNL     1      -0.146  13.365  18.494  0.00  0.00    +0.000 A 
ATOM     17  C   UNL     1      -0.362  14.728  18.657  0.00  0.00    +0.000 A 
ATOM     18  C   UNL     1       0.678  15.547  19.076  0.00  0.00    +0.000 A 
ATOM     19  C   UNL     1       1.948  15.008  19.261  0.00  0.00    +0.000 A 
ATOM     20  C   UNL     1       2.177  13.658  18.955  0.00  0.00    +0.000 A 
BRANCH  18  21
ATOM     21  O   UNL     1       0.364  16.860  19.273  0.00  0.00    +0.000 OA
ATOM     22  C   UNL     1      -1.001  17.155  18.989  0.00  0.00    +0.000 C 
ENDBRANCH  18  21
ENDBRANCH   8  15
BRANCH   1  23
ATOM     23  C   UNL     1       0.587  11.307  21.348  0.00  0.00    +0.000 C 
BRANCH  23  25
ATOM     24  C   UNL     1      -1.306  11.133  23.024  0.00  0.00    +0.000 C 
ATOM     25  C   UNL     1      -0.910  11.526  21.615  0.00  0.00    +0.000 C 
ENDBRANCH  23  25
ENDBRANCH   1  23
TORSDOF 5
ENDMDL
MODEL 9
REMARK VINA RESULT:      -5.7      2.689      3.726
REMARK  Name = 
REMARK  8 active torsions:
REMARK  status: ('A' for Active; 'I' for Inactive)
REMARK    1  A    between atoms: C_1  and  C_2
REMARK    2  A    between atoms: C_2  and  C_3
REMARK    3  A    between atoms: C_3  and  N_4
REMARK    4  A    between atoms: C_8  and  C_9
REMARK    5  A    between atoms: C_12  and  C_13
REMARK    6  A    between atoms: N_17  and  C_18
REMARK    7  A    between atoms: C_21  and  O_22
REMARK    8  A    between atoms: O_22  and  C_23
REMARK                            x       y       z     vdW  Elec       q    Type
REMARK                         _______ _______ _______ _____ _____    ______ ____
ROOT
ATOM      1  N   UNL     1       0.989  10.266  19.481  0.00  0.00    +0.000 N 
ATOM      2  C   UNL     1       1.601   9.459  18.532  0.00  0.00    +0.000 C 
ATOM      3  O   UNL     1       1.827   9.725  17.358  0.00  0.00    +0.000 OA
ATOM      4  C   UNL     1       1.955   8.132  19.087  0.00  0.00    +0.000 C 
ATOM      5  C   UNL     1       2.502   7.229  18.270  0.00  0.00    +0.000 C 
ATOM      6  S   UNL     1       1.586   8.079  20.746  0.00  0.00    +0.000 S 
ATOM      7  C   UNL     1       0.850   9.689  20.734  0.00  0.00    +0.000 C 
ATOM      8  N   UNL     1       0.322  10.028  21.863  0.00  0.00    +0.000 NA
ENDROOT
BRANCH   5   9
ATOM      9  C   UNL     1       2.886   5.908  18.619  0.00  0.00    +0.000 A 
ATOM     10  C   UNL     1       3.876   5.445  19.463  0.00  0.00    +0.000 A 
ATOM     11  C   UNL     1       3.924   4.024  19.531  0.00  0.00    +0.000 A 
ATOM     12  C   UNL     1       2.951   3.434  18.759  0.00  0.00    +0.000 A 
ATOM     13  C   UNL     1       2.676   1.986  18.557  0.00  0.00    +0.000 C 
ATOM     14  S   UNL     1       1.978   4.595  17.975  0.00  0.00    +0.000 S 
ENDBRANCH   5   9
BRANCH   8  15
ATOM     15  C   UNL     1      -0.362  11.186  22.225  0.00  0.00    +0.000 A 
ATOM     16  C   UNL     1       0.067  12.461  21.875  0.00  0.00    +0.000 A 
ATOM     17  C   UNL     1      -0.604  13.597  22.314  0.00  0.00    +0.000 A 
ATOM     18  C   UNL     1      -1.851  13.473  22.912  0.00  0.00    +0.000 A 
ATOM     19  C   UNL     1      -2.389  12.209  23.132  0.00  0.00    +0.000 A 
ATOM     20  C   UNL     1      -1.633  11.071  22.810  0.00  0.00    +0.000 A 
BRANCH  18  21
ATOM     21  O   UNL     1      -2.468  14.642  23.255  0.00  0.00    +0.000 OA
ATOM     22  C   UNL     1      -3.841  14.469  23.593  0.00  0.00    +0.000 C 
ENDBRANCH  18  21
ENDBRANCH   8  15
BRANCH   1  23
ATOM     23  C   UNL     1       0.500  11.585  19.099  0.00  0.00    +0.000 C 
BRANCH  23  25
ATOM     24  C   UNL     1      -1.716  10.472  18.573  0.00  0.00    +0.000 C 
ATOM     25  C   UNL     1      -0.879  11.728  18.437  0.00  0.00    +0.000 C 
ENDBRANCH  23  25
ENDBRANCH   1  23
TORSDOF 5
ENDMDL
