MODEL 1
REMARK VINA RESULT:      -7.3      0.000      0.000
REMARK  Name = 
REMARK  18 active torsions:
REMARK  status: ('A' for Active; 'I' for Inactive)
REMARK    1  A    between atoms: C_1  and  C_2
REMARK    2  A    between atoms: C_2  and  C_3
REMARK    3  A    between atoms: C_3  and  C_4
REMARK    4  A    between atoms: C_4  and  C_5
REMARK    5  A    between atoms: C_5  and  C_6
REMARK    6  A    between atoms: C_8  and  O_9
REMARK    7  A    between atoms: C_10  and  C_11
REMARK    8  A    between atoms: C_11  and  C_12
REMARK    9  A    between atoms: C_13  and  C_14
REMARK   10  A    between atoms: C_13  and  C_15
REMARK   11  A    between atoms: C_15  and  C_16
REMARK   12  A    between atoms: C_16  and  C_17
REMARK   13  A    between atoms: C_18  and  C_19
REMARK   14  A    between atoms: C_18  and  C_20
REMARK   15  A    between atoms: C_21  and  O_22
REMARK   16  A    between atoms: C_23  and  C_24
REMARK   17  A    between atoms: C_24  and  O_26
REMARK   18  A    between atoms: O_26  and  C_27
REMARK                            x       y       z     vdW  Elec       q    Type
REMARK                         _______ _______ _______ _____ _____    ______ ____
ROOT
ATOM      1  C   UNL     1       2.756   4.728  17.636  0.00  0.00    +0.000 A 
ATOM      2  C   UNL     1       3.597   3.798  17.006  0.00  0.00    +0.000 A 
ATOM      3  C   UNL     1       4.874   4.157  16.573  0.00  0.00    +0.000 A 
ATOM      4  C   UNL     1       5.375   5.447  16.775  0.00  0.00    +0.000 A 
ATOM      5  C   UNL     1       4.533   6.389  17.402  0.00  0.00    +0.000 A 
ATOM      6  C   UNL     1       3.232   6.052  17.836  0.00  0.00    +0.000 A 
ENDROOT
BRANCH   3   7
ATOM      7  O   UNL     1       5.651   3.230  15.936  0.00  0.00    +0.000 OA
ATOM      8  H   UNL     1       6.583   3.369  16.171  0.00  0.00    +0.000 HD
ENDBRANCH   3   7
BRANCH   5   9
ATOM      9  O   UNL     1       4.995   7.661  17.643  0.00  0.00    +0.000 OA
ATOM     10  H   UNL     1       5.772   7.625  18.226  0.00  0.00    +0.000 HD
ENDBRANCH   5   9
BRANCH   6  11
ATOM     11  C   UNL     1       2.372   7.140  18.401  0.00  0.00    +0.000 C 
ATOM     12  O   UNL     1       2.101   7.266  19.583  0.00  0.00    +0.000 OA
BRANCH  11  13
ATOM     13  O   UNL     1       1.992   7.995  17.415  0.00  0.00    +0.000 OA
ATOM     14  C   UNL     1       1.841   9.351  17.852  0.00  0.00    +0.000 C 
ENDBRANCH  11  13
ENDBRANCH   6  11
BRANCH   1  15
ATOM     15  C   UNL     1       1.356   4.254  17.974  0.00  0.00    +0.000 C 
BRANCH  15  16
ATOM     16  C   UNL     1       1.289   2.826  18.520  0.00  0.00    +0.000 C 
BRANCH  16  17
ATOM     17  C   UNL     1       0.855   2.784  19.986  0.00  0.00    +0.000 C 
BRANCH  17  19
ATOM     18  C   UNL     1       2.332   4.190  21.426  0.00  0.00    +0.000 C 
ATOM     19  C   UNL     1       2.059   2.784  20.918  0.00  0.00    +0.000 C 
ENDBRANCH  17  19
ENDBRANCH  16  17
ENDBRANCH  15  16
ENDBRANCH   1  15
BRANCH   4  20
ATOM     20  C   UNL     1       6.798   5.769  16.369  0.00  0.00    +0.000 C 
BRANCH  20  21
ATOM     21  C   UNL     1       7.412   6.923  17.121  0.00  0.00    +0.000 C 
ATOM     22  C   UNL     1       7.967   6.882  18.352  0.00  0.00    +0.000 C 
ATOM     23  C   UNL     1       8.047   5.625  19.184  0.00  0.00    +0.000 C 
BRANCH  22  24
ATOM     24  C   UNL     1       8.601   8.151  18.924  0.00  0.00    +0.000 C 
BRANCH  24  25
ATOM     25  C   UNL     1       8.236   9.450  18.188  0.00  0.00    +0.000 C 
BRANCH  25  26
ATOM     26  C   UNL     1       9.385  10.392  17.946  0.00  0.00    +0.000 C 
ATOM     27  C   UNL     1       9.930  11.160  18.911  0.00  0.00    +0.000 C 
ATOM     28  C   UNL     1       9.465  11.164  20.347  0.00  0.00    +0.000 C 
ATOM     29  C   UNL     1      11.074  12.095  18.626  0.00  0.00    +0.000 C 
ENDBRANCH  25  26
ENDBRANCH  24  25
ENDBRANCH  22  24
ENDBRANCH  20  21
ENDBRANCH   4  20
TORSDOF 13
ENDMDL
MODEL 2
REMARK VINA RESULT:      -7.2      2.822      6.598
REMARK  Name = 
REMARK  18 active torsions:
REMARK  status: ('A' for Active; 'I' for Inactive)
REMARK    1  A    between atoms: C_1  and  C_2
REMARK    2  A    between atoms: C_2  and  C_3
REMARK    3  A    between atoms: C_3  and  C_4
REMARK    4  A    between atoms: C_4  and  C_5
REMARK    5  A    between atoms: C_5  and  C_6
REMARK    6  A    between atoms: C_8  and  O_9
REMARK    7  A    between atoms: C_10  and  C_11
REMARK    8  A    between atoms: C_11  and  C_12
REMARK    9  A    between atoms: C_13  and  C_14
REMARK   10  A    between atoms: C_13  and  C_15
REMARK   11  A    between atoms: C_15  and  C_16
REMARK   12  A    between atoms: C_16  and  C_17
REMARK   13  A    between atoms: C_18  and  C_19
REMARK   14  A    between atoms: C_18  and  C_20
REMARK   15  A    between atoms: C_21  and  O_22
REMARK   16  A    between atoms: C_23  and  C_24
REMARK   17  A    between atoms: C_24  and  O_26
REMARK   18  A    between atoms: O_26  and  C_27
REMARK                            x       y       z     vdW  Elec       q    Type
REMARK                         _______ _______ _______ _____ _____    ______ ____
ROOT
ATOM      1  C   UNL     1       5.666   3.937  16.202  0.00  0.00    +0.000 A 
ATOM      2  C   UNL     1       4.427   3.279  16.256  0.00  0.00    +0.000 A 
ATOM      3  C   UNL     1       3.773   3.072  17.471  0.00  0.00    +0.000 A 
ATOM      4  C   UNL     1       4.311   3.535  18.675  0.00  0.00    +0.000 A 
ATOM      5  C   UNL     1       5.558   4.192  18.630  0.00  0.00    +0.000 A 
ATOM      6  C   UNL     1       6.245   4.400  17.413  0.00  0.00    +0.000 A 
ENDROOT
BRANCH   3   7
ATOM      7  O   UNL     1       2.582   2.400  17.484  0.00  0.00    +0.000 OA
ATOM      8  H   UNL     1       2.727   1.476  17.222  0.00  0.00    +0.000 HD
ENDBRANCH   3   7
BRANCH   5   9
ATOM      9  O   UNL     1       6.111   4.685  19.788  0.00  0.00    +0.000 OA
ATOM     10  H   UNL     1       5.502   5.322  20.199  0.00  0.00    +0.000 HD
ENDBRANCH   5   9
BRANCH   6  11
ATOM     11  C   UNL     1       7.609   5.017  17.470  0.00  0.00    +0.000 C 
ATOM     12  O   UNL     1       8.577   4.508  18.010  0.00  0.00    +0.000 OA
BRANCH  11  13
ATOM     13  O   UNL     1       7.621   6.189  16.783  0.00  0.00    +0.000 OA
ATOM     14  C   UNL     1       7.672   7.350  17.620  0.00  0.00    +0.000 C 
ENDBRANCH  11  13
ENDBRANCH   6  11
BRANCH   1  15
ATOM     15  C   UNL     1       6.330   4.018  14.841  0.00  0.00    +0.000 C 
BRANCH  15  16
ATOM     16  C   UNL     1       5.371   3.847  13.661  0.00  0.00    +0.000 C 
BRANCH  16  17
ATOM     17  C   UNL     1       6.100   3.468  12.371  0.00  0.00    +0.000 C 
BRANCH  17  19
ATOM     18  C   UNL     1       6.237   1.265  11.205  0.00  0.00    +0.000 C 
ATOM     19  C   UNL     1       5.324   2.418  11.587  0.00  0.00    +0.000 C 
ENDBRANCH  17  19
ENDBRANCH  16  17
ENDBRANCH  15  16
ENDBRANCH   1  15
BRANCH   4  20
ATOM     20  C   UNL     1       3.525   3.367  19.959  0.00  0.00    +0.000 C 
BRANCH  20  21
ATOM     21  C   UNL     1       2.882   4.634  20.464  0.00  0.00    +0.000 C 
ATOM     22  C   UNL     1       1.564   4.929  20.462  0.00  0.00    +0.000 C 
ATOM     23  C   UNL     1       0.507   3.996  19.926  0.00  0.00    +0.000 C 
BRANCH  22  24
ATOM     24  C   UNL     1       1.097   6.248  21.082  0.00  0.00    +0.000 C 
BRANCH  24  25
ATOM     25  C   UNL     1       1.677   7.514  20.432  0.00  0.00    +0.000 C 
BRANCH  25  26
ATOM     26  C   UNL     1       2.726   7.271  19.381  0.00  0.00    +0.000 C 
ATOM     27  C   UNL     1       2.736   7.892  18.185  0.00  0.00    +0.000 C 
ATOM     28  C   UNL     1       1.709   8.910  17.757  0.00  0.00    +0.000 C 
ATOM     29  C   UNL     1       3.801   7.614  17.158  0.00  0.00    +0.000 C 
ENDBRANCH  25  26
ENDBRANCH  24  25
ENDBRANCH  22  24
ENDBRANCH  20  21
ENDBRANCH   4  20
TORSDOF 13
ENDMDL
MODEL 3
REMARK VINA RESULT:      -7.1      3.011      7.887
REMARK  Name = 
REMARK  18 active torsions:
REMARK  status: ('A' for Active; 'I' for Inactive)
REMARK    1  A    between atoms: C_1  and  C_2
REMARK    2  A    between atoms: C_2  and  C_3
REMARK    3  A    between atoms: C_3  and  C_4
REMARK    4  A    between atoms: C_4  and  C_5
REMARK    5  A    between atoms: C_5  and  C_6
REMARK    6  A    between atoms: C_8  and  O_9
REMARK    7  A    between atoms: C_10  and  C_11
REMARK    8  A    between atoms: C_11  and  C_12
REMARK    9  A    between atoms: C_13  and  C_14
REMARK   10  A    between atoms: C_13  and  C_15
REMARK   11  A    between atoms: C_15  and  C_16
REMARK   12  A    between atoms: C_16  and  C_17
REMARK   13  A    between atoms: C_18  and  C_19
REMARK   14  A    between atoms: C_18  and  C_20
REMARK   15  A    between atoms: C_21  and  O_22
REMARK   16  A    between atoms: C_23  and  C_24
REMARK   17  A    between atoms: C_24  and  O_26
REMARK   18  A    between atoms: O_26  and  C_27
REMARK                            x       y       z     vdW  Elec       q    Type
REMARK                         _______ _______ _______ _____ _____    ______ ____
ROOT
ATOM      1  C   UNL     1       3.483   5.849  17.779  0.00  0.00    +0.000 A 
ATOM      2  C   UNL     1       3.362   7.172  17.324  0.00  0.00    +0.000 A 
ATOM      3  C   UNL     1       2.697   8.136  18.081  0.00  0.00    +0.000 A 
ATOM      4  C   UNL     1       2.151   7.831  19.332  0.00  0.00    +0.000 A 
ATOM      5  C   UNL     1       2.263   6.503  19.793  0.00  0.00    +0.000 A 
ATOM      6  C   UNL     1       2.920   5.506  19.037  0.00  0.00    +0.000 A 
ENDROOT
BRANCH   3   7
ATOM      7  O   UNL     1       2.573   9.406  17.589  0.00  0.00    +0.000 OA
ATOM      8  H   UNL     1       3.376   9.913  17.792  0.00  0.00    +0.000 HD
ENDBRANCH   3   7
BRANCH   5   9
ATOM      9  O   UNL     1       1.763   6.165  21.027  0.00  0.00    +0.000 OA
ATOM     10  H   UNL     1       1.333   6.938  21.431  0.00  0.00    +0.000 HD
ENDBRANCH   5   9
BRANCH   6  11
ATOM     11  C   UNL     1       2.905   4.101  19.557  0.00  0.00    +0.000 C 
ATOM     12  O   UNL     1       3.540   3.714  20.522  0.00  0.00    +0.000 OA
BRANCH  11  13
ATOM     13  O   UNL     1       2.038   3.345  18.834  0.00  0.00    +0.000 OA
ATOM     14  C   UNL     1       0.862   2.962  19.558  0.00  0.00    +0.000 C 
ENDBRANCH  11  13
ENDBRANCH   6  11
BRANCH   1  15
ATOM     15  C   UNL     1       4.139   4.865  16.829  0.00  0.00    +0.000 C 
BRANCH  15  16
ATOM     16  C   UNL     1       5.560   4.459  17.225  0.00  0.00    +0.000 C 
BRANCH  16  17
ATOM     17  C   UNL     1       6.611   5.440  16.703  0.00  0.00    +0.000 C 
BRANCH  17  19
ATOM     18  C   UNL     1       7.579   7.546  17.630  0.00  0.00    +0.000 C 
ATOM     19  C   UNL     1       7.411   6.052  17.846  0.00  0.00    +0.000 C 
ENDBRANCH  17  19
ENDBRANCH  16  17
ENDBRANCH  15  16
ENDBRANCH   1  15
BRANCH   4  20
ATOM     20  C   UNL     1       1.515   8.929  20.158  0.00  0.00    +0.000 C 
BRANCH  20  21
ATOM     21  C   UNL     1       0.259   9.509  19.558  0.00  0.00    +0.000 C 
ATOM     22  C   UNL     1       0.023  10.809  19.276  0.00  0.00    +0.000 C 
ATOM     23  C   UNL     1       1.022  11.909  19.539  0.00  0.00    +0.000 C 
BRANCH  22  24
ATOM     24  C   UNL     1      -1.296  11.196  18.604  0.00  0.00    +0.000 C 
BRANCH  24  25
ATOM     25  C   UNL     1      -2.151  10.015  18.119  0.00  0.00    +0.000 C 
BRANCH  25  26
ATOM     26  C   UNL     1      -2.238   9.860  16.625  0.00  0.00    +0.000 C 
ATOM     27  C   UNL     1      -3.229  10.390  15.880  0.00  0.00    +0.000 C 
ATOM     28  C   UNL     1      -4.363  11.208  16.447  0.00  0.00    +0.000 C 
ATOM     29  C   UNL     1      -3.282  10.205  14.387  0.00  0.00    +0.000 C 
ENDBRANCH  25  26
ENDBRANCH  24  25
ENDBRANCH  22  24
ENDBRANCH  20  21
ENDBRANCH   4  20
TORSDOF 13
ENDMDL
MODEL 4
REMARK VINA RESULT:      -7.0      4.057      7.661
REMARK  Name = 
REMARK  18 active torsions:
REMARK  status: ('A' for Active; 'I' for Inactive)
REMARK    1  A    between atoms: C_1  and  C_2
REMARK    2  A    between atoms: C_2  and  C_3
REMARK    3  A    between atoms: C_3  and  C_4
REMARK    4  A    between atoms: C_4  and  C_5
REMARK    5  A    between atoms: C_5  and  C_6
REMARK    6  A    between atoms: C_8  and  O_9
REMARK    7  A    between atoms: C_10  and  C_11
REMARK    8  A    between atoms: C_11  and  C_12
REMARK    9  A    between atoms: C_13  and  C_14
REMARK   10  A    between atoms: C_13  and  C_15
REMARK   11  A    between atoms: C_15  and  C_16
REMARK   12  A    between atoms: C_16  and  C_17
REMARK   13  A    between atoms: C_18  and  C_19
REMARK   14  A    between atoms: C_18  and  C_20
REMARK   15  A    between atoms: C_21  and  O_22
REMARK   16  A    between atoms: C_23  and  C_24
REMARK   17  A    between atoms: C_24  and  O_26
REMARK   18  A    between atoms: O_26  and  C_27
REMARK                            x       y       z     vdW  Elec       q    Type
REMARK                         _______ _______ _______ _____ _____    ______ ____
ROOT
ATOM      1  C   UNL     1       3.597   4.767  17.961  0.00  0.00    +0.000 A 
ATOM      2  C   UNL     1       3.464   6.120  17.612  0.00  0.00    +0.000 A 
ATOM      3  C   UNL     1       2.913   7.043  18.501  0.00  0.00    +0.000 A 
ATOM      4  C   UNL     1       2.498   6.663  19.781  0.00  0.00    +0.000 A 
ATOM      5  C   UNL     1       2.622   5.304  20.137  0.00  0.00    +0.000 A 
ATOM      6  C   UNL     1       3.165   4.349  19.248  0.00  0.00    +0.000 A 
ENDROOT
BRANCH   3   7
ATOM      7  O   UNL     1       2.773   8.346  18.111  0.00  0.00    +0.000 OA
ATOM      8  H   UNL     1       3.167   8.930  18.780  0.00  0.00    +0.000 HD
ENDBRANCH   3   7
BRANCH   5   9
ATOM      9  O   UNL     1       2.250   4.892  21.394  0.00  0.00    +0.000 OA
ATOM     10  H   UNL     1       1.454   4.337  21.336  0.00  0.00    +0.000 HD
ENDBRANCH   5   9
BRANCH   6  11
ATOM     11  C   UNL     1       3.166   2.912  19.672  0.00  0.00    +0.000 C 
ATOM     12  O   UNL     1       4.169   2.234  19.815  0.00  0.00    +0.000 OA
BRANCH  11  13
ATOM     13  O   UNL     1       1.898   2.500  19.930  0.00  0.00    +0.000 OA
ATOM     14  C   UNL     1       1.128   2.224  18.753  0.00  0.00    +0.000 C 
ENDBRANCH  11  13
ENDBRANCH   6  11
BRANCH   1  15
ATOM     15  C   UNL     1       4.117   3.837  16.881  0.00  0.00    +0.000 C 
BRANCH  15  16
ATOM     16  C   UNL     1       5.511   4.193  16.362  0.00  0.00    +0.000 C 
BRANCH  16  17
ATOM     17  C   UNL     1       5.470   4.807  14.961  0.00  0.00    +0.000 C 
BRANCH  17  19
ATOM     18  C   UNL     1       6.036   3.566  12.870  0.00  0.00    +0.000 C 
ATOM     19  C   UNL     1       6.600   4.273  14.092  0.00  0.00    +0.000 C 
ENDBRANCH  17  19
ENDBRANCH  16  17
ENDBRANCH  15  16
ENDBRANCH   1  15
BRANCH   4  20
ATOM     20  C   UNL     1       1.988   7.715  20.744  0.00  0.00    +0.000 C 
BRANCH  20  21
ATOM     21  C   UNL     1       0.871   8.568  20.196  0.00  0.00    +0.000 C 
ATOM     22  C   UNL     1       0.092   9.425  20.892  0.00  0.00    +0.000 C 
ATOM     23  C   UNL     1       0.232   9.652  22.377  0.00  0.00    +0.000 C 
BRANCH  22  24
ATOM     24  C   UNL     1      -0.951  10.255  20.143  0.00  0.00    +0.000 C 
BRANCH  24  25
ATOM     25  C   UNL     1      -0.499  10.791  18.776  0.00  0.00    +0.000 C 
BRANCH  25  26
ATOM     26  C   UNL     1      -1.103  10.096  17.585  0.00  0.00    +0.000 C 
ATOM     27  C   UNL     1      -2.305  10.421  17.068  0.00  0.00    +0.000 C 
ATOM     28  C   UNL     1      -3.185  11.521  17.608  0.00  0.00    +0.000 C 
ATOM     29  C   UNL     1      -2.877   9.695  15.879  0.00  0.00    +0.000 C 
ENDBRANCH  25  26
ENDBRANCH  24  25
ENDBRANCH  22  24
ENDBRANCH  20  21
ENDBRANCH   4  20
TORSDOF 13
ENDMDL
MODEL 5
REMARK VINA RESULT:      -7.0      3.998      7.963
REMARK  Name = 
REMARK  18 active torsions:
REMARK  status: ('A' for Active; 'I' for Inactive)
REMARK    1  A    between atoms: C_1  and  C_2
REMARK    2  A    between atoms: C_2  and  C_3
REMARK    3  A    between atoms: C_3  and  C_4
REMARK    4  A    between atoms: C_4  and  C_5
REMARK    5  A    between atoms: C_5  and  C_6
REMARK    6  A    between atoms: C_8  and  O_9
REMARK    7  A    between atoms: C_10  and  C_11
REMARK    8  A    between atoms: C_11  and  C_12
REMARK    9  A    between atoms: C_13  and  C_14
REMARK   10  A    between atoms: C_13  and  C_15
REMARK   11  A    between atoms: C_15  and  C_16
REMARK   12  A    between atoms: C_16  and  C_17
REMARK   13  A    between atoms: C_18  and  C_19
REMARK   14  A    between atoms: C_18  and  C_20
REMARK   15  A    between atoms: C_21  and  O_22
REMARK   16  A    between atoms: C_23  and  C_24
REMARK   17  A    between atoms: C_24  and  O_26
REMARK   18  A    between atoms: O_26  and  C_27
REMARK                            x       y       z     vdW  Elec       q    Type
REMARK                         _______ _______ _______ _____ _____    ______ ____
ROOT
ATOM      1  C   UNL     1       3.600   5.249  17.911  0.00  0.00    +0.000 A 
ATOM      2  C   UNL     1       3.538   6.544  17.373  0.00  0.00    +0.000 A 
ATOM      3  C   UNL     1       2.891   7.577  18.052  0.00  0.00    +0.000 A 
ATOM      4  C   UNL     1       2.304   7.368  19.304  0.00  0.00    +0.000 A 
ATOM      5  C   UNL     1       2.356   6.069  19.848  0.00  0.00    +0.000 A 
ATOM      6  C   UNL     1       2.994   5.004  19.172  0.00  0.00    +0.000 A 
ENDROOT
BRANCH   3   7
ATOM      7  O   UNL     1       2.827   8.817  17.481  0.00  0.00    +0.000 OA
ATOM      8  H   UNL     1       2.832   8.731  16.513  0.00  0.00    +0.000 HD
ENDBRANCH   3   7
BRANCH   5   9
ATOM      9  O   UNL     1       1.813   5.825  21.087  0.00  0.00    +0.000 OA
ATOM     10  H   UNL     1       1.666   6.666  21.552  0.00  0.00    +0.000 HD
ENDBRANCH   5   9
BRANCH   6  11
ATOM     11  C   UNL     1       2.914   3.636  19.776  0.00  0.00    +0.000 C 
ATOM     12  O   UNL     1       3.867   3.018  20.219  0.00  0.00    +0.000 OA
BRANCH  11  13
ATOM     13  O   UNL     1       1.622   3.216  19.811  0.00  0.00    +0.000 OA
ATOM     14  C   UNL     1       1.345   2.123  18.926  0.00  0.00    +0.000 C 
ENDBRANCH  11  13
ENDBRANCH   6  11
BRANCH   1  15
ATOM     15  C   UNL     1       4.242   4.185  17.040  0.00  0.00    +0.000 C 
BRANCH  15  16
ATOM     16  C   UNL     1       5.154   4.736  15.942  0.00  0.00    +0.000 C 
BRANCH  16  17
ATOM     17  C   UNL     1       5.936   3.632  15.228  0.00  0.00    +0.000 C 
BRANCH  17  19
ATOM     18  C   UNL     1       7.358   5.056  13.753  0.00  0.00    +0.000 C 
ATOM     19  C   UNL     1       6.248   4.019  13.789  0.00  0.00    +0.000 C 
ENDBRANCH  17  19
ENDBRANCH  16  17
ENDBRANCH  15  16
ENDBRANCH   1  15
BRANCH   4  20
ATOM     20  C   UNL     1       1.689   8.538  20.045  0.00  0.00    +0.000 C 
BRANCH  20  21
ATOM     21  C   UNL     1       0.664   9.306  19.250  0.00  0.00    +0.000 C 
ATOM     22  C   UNL     1       0.103  10.489  19.582  0.00  0.00    +0.000 C 
ATOM     23  C   UNL     1       0.433  11.235  20.852  0.00  0.00    +0.000 C 
BRANCH  22  24
ATOM     24  C   UNL     1      -0.876  11.147  18.608  0.00  0.00    +0.000 C 
BRANCH  24  25
ATOM     25  C   UNL     1      -2.067  10.271  18.191  0.00  0.00    +0.000 C 
BRANCH  25  26
ATOM     26  C   UNL     1      -2.189  10.021  16.711  0.00  0.00    +0.000 C 
ATOM     27  C   UNL     1      -3.219  10.468  15.965  0.00  0.00    +0.000 C 
ATOM     28  C   UNL     1      -4.366  11.278  16.514  0.00  0.00    +0.000 C 
ATOM     29  C   UNL     1      -3.306  10.188  14.488  0.00  0.00    +0.000 C 
ENDBRANCH  25  26
ENDBRANCH  24  25
ENDBRANCH  22  24
ENDBRANCH  20  21
ENDBRANCH   4  20
TORSDOF 13
ENDMDL
MODEL 6
REMARK VINA RESULT:      -7.0      4.095      7.558
REMARK  Name = 
REMARK  18 active torsions:
REMARK  status: ('A' for Active; 'I' for Inactive)
REMARK    1  A    between atoms: C_1  and  C_2
REMARK    2  A    between atoms: C_2  and  C_3
REMARK    3  A    between atoms: C_3  and  C_4
REMARK    4  A    between atoms: C_4  and  C_5
REMARK    5  A    between atoms: C_5  and  C_6
REMARK    6  A    between atoms: C_8  and  O_9
REMARK    7  A    between atoms: C_10  and  C_11
REMARK    8  A    between atoms: C_11  and  C_12
REMARK    9  A    between atoms: C_13  and  C_14
REMARK   10  A    between atoms: C_13  and  C_15
REMARK   11  A    between atoms: C_15  and  C_16
REMARK   12  A    between atoms: C_16  and  C_17
REMARK   13  A    between atoms: C_18  and  C_19
REMARK   14  A    between atoms: C_18  and  C_20
REMARK   15  A    between atoms: C_21  and  O_22
REMARK   16  A    between atoms: C_23  and  C_24
REMARK   17  A    between atoms: C_24  and  O_26
REMARK   18  A    between atoms: O_26  and  C_27
REMARK                            x       y       z     vdW  Elec       q    Type
REMARK                         _______ _______ _______ _____ _____    ______ ____
ROOT
ATOM      1  C   UNL     1       0.294   9.261  20.733  0.00  0.00    +0.000 A 
ATOM      2  C   UNL     1       0.857   8.070  21.217  0.00  0.00    +0.000 A 
ATOM      3  C   UNL     1       1.755   7.331  20.446  0.00  0.00    +0.000 A 
ATOM      4  C   UNL     1       2.149   7.762  19.175  0.00  0.00    +0.000 A 
ATOM      5  C   UNL     1       1.582   8.954  18.680  0.00  0.00    +0.000 A 
ATOM      6  C   UNL     1       0.660   9.711  19.437  0.00  0.00    +0.000 A 
ENDROOT
BRANCH   3   7
ATOM      7  O   UNL     1       2.258   6.160  20.941  0.00  0.00    +0.000 OA
ATOM      8  H   UNL     1       1.528   5.594  21.242  0.00  0.00    +0.000 HD
ENDBRANCH   3   7
BRANCH   5   9
ATOM      9  O   UNL     1       1.960   9.427  17.446  0.00  0.00    +0.000 OA
ATOM     10  H   UNL     1       1.798   8.748  16.769  0.00  0.00    +0.000 HD
ENDBRANCH   5   9
BRANCH   6  11
ATOM     11  C   UNL     1       0.033  10.910  18.793  0.00  0.00    +0.000 C 
ATOM     12  O   UNL     1      -0.859  10.863  17.965  0.00  0.00    +0.000 OA
BRANCH  11  13
ATOM     13  O   UNL     1       0.562  12.049  19.312  0.00  0.00    +0.000 OA
ATOM     14  C   UNL     1       1.504  12.695  18.448  0.00  0.00    +0.000 C 
ENDBRANCH  11  13
ENDBRANCH   6  11
BRANCH   1  15
ATOM     15  C   UNL     1      -0.744   9.926  21.617  0.00  0.00    +0.000 C 
BRANCH  15  16
ATOM     16  C   UNL     1      -0.169  10.939  22.610  0.00  0.00    +0.000 C 
BRANCH  16  17
ATOM     17  C   UNL     1      -0.873  12.294  22.530  0.00  0.00    +0.000 C 
BRANCH  17  19
ATOM     18  C   UNL     1      -2.272  13.426  20.799  0.00  0.00    +0.000 C 
ATOM     19  C   UNL     1      -2.145  12.207  21.698  0.00  0.00    +0.000 C 
ENDBRANCH  17  19
ENDBRANCH  16  17
ENDBRANCH  15  16
ENDBRANCH   1  15
BRANCH   4  20
ATOM     20  C   UNL     1       3.192   6.976  18.410  0.00  0.00    +0.000 C 
BRANCH  20  21
ATOM     21  C   UNL     1       2.679   5.698  17.794  0.00  0.00    +0.000 C 
ATOM     22  C   UNL     1       3.407   4.610  17.463  0.00  0.00    +0.000 C 
ATOM     23  C   UNL     1       4.900   4.519  17.665  0.00  0.00    +0.000 C 
BRANCH  22  24
ATOM     24  C   UNL     1       2.691   3.378  16.907  0.00  0.00    +0.000 C 
BRANCH  24  25
ATOM     25  C   UNL     1       2.617   2.179  17.865  0.00  0.00    +0.000 C 
BRANCH  25  26
ATOM     26  C   UNL     1       1.758   2.387  19.083  0.00  0.00    +0.000 C 
ATOM     27  C   UNL     1       2.259   2.578  20.320  0.00  0.00    +0.000 C 
ATOM     28  C   UNL     1       3.734   2.617  20.634  0.00  0.00    +0.000 C 
ATOM     29  C   UNL     1       1.364   2.774  21.514  0.00  0.00    +0.000 C 
ENDBRANCH  25  26
ENDBRANCH  24  25
ENDBRANCH  22  24
ENDBRANCH  20  21
ENDBRANCH   4  20
TORSDOF 13
ENDMDL
MODEL 7
REMARK VINA RESULT:      -7.0      4.035      7.861
REMARK  Name = 
REMARK  18 active torsions:
REMARK  status: ('A' for Active; 'I' for Inactive)
REMARK    1  A    between atoms: C_1  and  C_2
REMARK    2  A    between atoms: C_2  and  C_3
REMARK    3  A    between atoms: C_3  and  C_4
REMARK    4  A    between atoms: C_4  and  C_5
REMARK    5  A    between atoms: C_5  and  C_6
REMARK    6  A    between atoms: C_8  and  O_9
REMARK    7  A    between atoms: C_10  and  C_11
REMARK    8  A    between atoms: C_11  and  C_12
REMARK    9  A    between atoms: C_13  and  C_14
REMARK   10  A    between atoms: C_13  and  C_15
REMARK   11  A    between atoms: C_15  and  C_16
REMARK   12  A    between atoms: C_16  and  C_17
REMARK   13  A    between atoms: C_18  and  C_19
REMARK   14  A    between atoms: C_18  and  C_20
REMARK   15  A    between atoms: C_21  and  O_22
REMARK   16  A    between atoms: C_23  and  C_24
REMARK   17  A    between atoms: C_24  and  O_26
REMARK   18  A    between atoms: O_26  and  C_27
REMARK                            x       y       z     vdW  Elec       q    Type
REMARK                         _______ _______ _______ _____ _____    ______ ____
ROOT
ATOM      1  C   UNL     1       3.462   4.841  17.719  0.00  0.00    +0.000 A 
ATOM      2  C   UNL     1       3.569   6.219  17.478  0.00  0.00    +0.000 A 
ATOM      3  C   UNL     1       2.987   7.149  18.340  0.00  0.00    +0.000 A 
ATOM      4  C   UNL     1       2.299   6.746  19.489  0.00  0.00    +0.000 A 
ATOM      5  C   UNL     1       2.181   5.362  19.734  0.00  0.00    +0.000 A 
ATOM      6  C   UNL     1       2.751   4.402  18.868  0.00  0.00    +0.000 A 
ENDROOT
BRANCH   3   7
ATOM      7  O   UNL     1       3.088   8.482  18.054  0.00  0.00    +0.000 OA
ATOM      8  H   UNL     1       3.836   8.865  18.542  0.00  0.00    +0.000 HD
ENDBRANCH   3   7
BRANCH   5   9
ATOM      9  O   UNL     1       1.535   4.923  20.865  0.00  0.00    +0.000 OA
ATOM     10  H   UNL     1       2.125   4.344  21.377  0.00  0.00    +0.000 HD
ENDBRANCH   5   9
BRANCH   6  11
ATOM     11  C   UNL     1       2.492   2.954  19.152  0.00  0.00    +0.000 C 
ATOM     12  O   UNL     1       1.831   2.217  18.441  0.00  0.00    +0.000 OA
BRANCH  11  13
ATOM     13  O   UNL     1       3.149   2.574  20.279  0.00  0.00    +0.000 OA
ATOM     14  C   UNL     1       4.510   2.188  20.052  0.00  0.00    +0.000 C 
ENDBRANCH  11  13
ENDBRANCH   6  11
BRANCH   1  15
ATOM     15  C   UNL     1       4.048   3.922  16.664  0.00  0.00    +0.000 C 
BRANCH  15  16
ATOM     16  C   UNL     1       5.476   4.276  16.244  0.00  0.00    +0.000 C 
BRANCH  16  17
ATOM     17  C   UNL     1       5.548   4.785  14.803  0.00  0.00    +0.000 C 
BRANCH  17  19
ATOM     18  C   UNL     1       5.614   3.494  12.667  0.00  0.00    +0.000 C 
ATOM     19  C   UNL     1       6.379   3.853  13.931  0.00  0.00    +0.000 C 
ENDBRANCH  17  19
ENDBRANCH  16  17
ENDBRANCH  15  16
ENDBRANCH   1  15
BRANCH   4  20
ATOM     20  C   UNL     1       1.759   7.792  20.442  0.00  0.00    +0.000 C 
BRANCH  20  21
ATOM     21  C   UNL     1       1.125   8.980  19.765  0.00  0.00    +0.000 C 
ATOM     22  C   UNL     1       0.261   9.860  20.316  0.00  0.00    +0.000 C 
ATOM     23  C   UNL     1      -0.215   9.769  21.745  0.00  0.00    +0.000 C 
BRANCH  22  24
ATOM     24  C   UNL     1      -0.226  11.046  19.482  0.00  0.00    +0.000 C 
BRANCH  24  25
ATOM     25  C   UNL     1      -1.656  10.915  18.935  0.00  0.00    +0.000 C 
BRANCH  25  26
ATOM     26  C   UNL     1      -1.756  10.396  17.526  0.00  0.00    +0.000 C 
ATOM     27  C   UNL     1      -2.921  10.292  16.855  0.00  0.00    +0.000 C 
ATOM     28  C   UNL     1      -4.260  10.688  17.426  0.00  0.00    +0.000 C 
ATOM     29  C   UNL     1      -2.978   9.759  15.448  0.00  0.00    +0.000 C 
ENDBRANCH  25  26
ENDBRANCH  24  25
ENDBRANCH  22  24
ENDBRANCH  20  21
ENDBRANCH   4  20
TORSDOF 13
ENDMDL
MODEL 8
REMARK VINA RESULT:      -6.9      4.027      7.731
REMARK  Name = 
REMARK  18 active torsions:
REMARK  status: ('A' for Active; 'I' for Inactive)
REMARK    1  A    between atoms: C_1  and  C_2
REMARK    2  A    between atoms: C_2  and  C_3
REMARK    3  A    between atoms: C_3  and  C_4
REMARK    4  A    between atoms: C_4  and  C_5
REMARK    5  A    between atoms: C_5  and  C_6
REMARK    6  A    between atoms: C_8  and  O_9
REMARK    7  A    between atoms: C_10  and  C_11
REMARK    8  A    between atoms: C_11  and  C_12
REMARK    9  A    between atoms: C_13  and  C_14
REMARK   10  A    between atoms: C_13  and  C_15
REMARK   11  A    between atoms: C_15  and  C_16
REMARK   12  A    between atoms: C_16  and  C_17
REMARK   13  A    between atoms: C_18  and  C_19
REMARK   14  A    between atoms: C_18  and  C_20
REMARK   15  A    between atoms: C_21  and  O_22
REMARK   16  A    between atoms: C_23  and  C_24
REMARK   17  A    between atoms: C_24  and  O_26
REMARK   18  A    between atoms: O_26  and  C_27
REMARK                            x       y       z     vdW  Elec       q    Type
REMARK                         _______ _______ _______ _____ _____    ______ ____
ROOT
ATOM      1  C   UNL     1      -0.041   9.794  20.637  0.00  0.00    +0.000 A 
ATOM      2  C   UNL     1       0.566   8.661  21.200  0.00  0.00    +0.000 A 
ATOM      3  C   UNL     1       1.500   7.913  20.483  0.00  0.00    +0.000 A 
ATOM      4  C   UNL     1       1.886   8.277  19.190  0.00  0.00    +0.000 A 
ATOM      5  C   UNL     1       1.275   9.410  18.615  0.00  0.00    +0.000 A 
ATOM      6  C   UNL     1       0.317  10.175  19.316  0.00  0.00    +0.000 A 
ENDROOT
BRANCH   3   7
ATOM      7  O   UNL     1       2.047   6.798  21.057  0.00  0.00    +0.000 OA
ATOM      8  H   UNL     1       2.847   7.044  21.549  0.00  0.00    +0.000 HD
ENDBRANCH   3   7
BRANCH   5   9
ATOM      9  O   UNL     1       1.644   9.817  17.355  0.00  0.00    +0.000 OA
ATOM     10  H   UNL     1       2.531  10.213  17.383  0.00  0.00    +0.000 HD
ENDBRANCH   5   9
BRANCH   6  11
ATOM     11  C   UNL     1      -0.353  11.302  18.593  0.00  0.00    +0.000 C 
ATOM     12  O   UNL     1       0.195  12.342  18.272  0.00  0.00    +0.000 OA
BRANCH  11  13
ATOM     13  O   UNL     1      -1.637  10.968  18.296  0.00  0.00    +0.000 OA
ATOM     14  C   UNL     1      -1.758  10.056  17.197  0.00  0.00    +0.000 C 
ENDBRANCH  11  13
ENDBRANCH   6  11
BRANCH   1  15
ATOM     15  C   UNL     1      -1.113  10.472  21.470  0.00  0.00    +0.000 C 
BRANCH  15  16
ATOM     16  C   UNL     1      -0.608  11.054  22.792  0.00  0.00    +0.000 C 
BRANCH  16  17
ATOM     17  C   UNL     1      -1.206  12.431  23.086  0.00  0.00    +0.000 C 
BRANCH  17  19
ATOM     18  C   UNL     1      -3.581  12.326  23.846  0.00  0.00    +0.000 C 
ATOM     19  C   UNL     1      -2.662  12.505  22.649  0.00  0.00    +0.000 C 
ENDBRANCH  17  19
ENDBRANCH  16  17
ENDBRANCH  15  16
ENDBRANCH   1  15
BRANCH   4  20
ATOM     20  C   UNL     1       2.968   7.487  18.483  0.00  0.00    +0.000 C 
BRANCH  20  21
ATOM     21  C   UNL     1       2.548   6.101  18.060  0.00  0.00    +0.000 C 
ATOM     22  C   UNL     1       3.348   5.125  17.579  0.00  0.00    +0.000 C 
ATOM     23  C   UNL     1       4.835   5.294  17.382  0.00  0.00    +0.000 C 
BRANCH  22  24
ATOM     24  C   UNL     1       2.744   3.755  17.265  0.00  0.00    +0.000 C 
BRANCH  24  25
ATOM     25  C   UNL     1       3.311   2.589  18.089  0.00  0.00    +0.000 C 
BRANCH  25  26
ATOM     26  C   UNL     1       3.241   2.766  19.582  0.00  0.00    +0.000 C 
ATOM     27  C   UNL     1       2.081   2.864  20.264  0.00  0.00    +0.000 C 
ATOM     28  C   UNL     1       0.718   2.798  19.620  0.00  0.00    +0.000 C 
ATOM     29  C   UNL     1       2.055   3.049  21.757  0.00  0.00    +0.000 C 
ENDBRANCH  25  26
ENDBRANCH  24  25
ENDBRANCH  22  24
ENDBRANCH  20  21
ENDBRANCH   4  20
TORSDOF 13
ENDMDL
MODEL 9
REMARK VINA RESULT:      -6.9      3.870      7.994
REMARK  Name = 
REMARK  18 active torsions:
REMARK  status: ('A' for Active; 'I' for Inactive)
REMARK    1  A    between atoms: C_1  and  C_2
REMARK    2  A    between atoms: C_2  and  C_3
REMARK    3  A    between atoms: C_3  and  C_4
REMARK    4  A    between atoms: C_4  and  C_5
REMARK    5  A    between atoms: C_5  and  C_6
REMARK    6  A    between atoms: C_8  and  O_9
REMARK    7  A    between atoms: C_10  and  C_11
REMARK    8  A    between atoms: C_11  and  C_12
REMARK    9  A    between atoms: C_13  and  C_14
REMARK   10  A    between atoms: C_13  and  C_15
REMARK   11  A    between atoms: C_15  and  C_16
REMARK   12  A    between atoms: C_16  and  C_17
REMARK   13  A    between atoms: C_18  and  C_19
REMARK   14  A    between atoms: C_18  and  C_20
REMARK   15  A    between atoms: C_21  and  O_22
REMARK   16  A    between atoms: C_23  and  C_24
REMARK   17  A    between atoms: C_24  and  O_26
REMARK   18  A    between atoms: O_26  and  C_27
REMARK                            x       y       z     vdW  Elec       q    Type
REMARK                         _______ _______ _______ _____ _____    ______ ____
ROOT
ATOM      1  C   UNL     1       3.887   5.237  17.800  0.00  0.00    +0.000 A 
ATOM      2  C   UNL     1       3.546   6.553  17.449  0.00  0.00    +0.000 A 
ATOM      3  C   UNL     1       2.842   7.374  18.331  0.00  0.00    +0.000 A 
ATOM      4  C   UNL     1       2.473   6.928  19.603  0.00  0.00    +0.000 A 
ATOM      5  C   UNL     1       2.807   5.605  19.960  0.00  0.00    +0.000 A 
ATOM      6  C   UNL     1       3.507   4.751  19.079  0.00  0.00    +0.000 A 
ENDROOT
BRANCH   3   7
ATOM      7  O   UNL     1       2.503   8.639  17.940  0.00  0.00    +0.000 OA
ATOM      8  H   UNL     1       3.114   9.279  18.342  0.00  0.00    +0.000 HD
ENDBRANCH   3   7
BRANCH   5   9
ATOM      9  O   UNL     1       2.485   5.135  21.211  0.00  0.00    +0.000 OA
ATOM     10  H   UNL     1       1.534   5.255  21.374  0.00  0.00    +0.000 HD
ENDBRANCH   5   9
BRANCH   6  11
ATOM     11  C   UNL     1       3.731   3.332  19.502  0.00  0.00    +0.000 C 
ATOM     12  O   UNL     1       4.823   2.839  19.723  0.00  0.00    +0.000 OA
BRANCH  11  13
ATOM     13  O   UNL     1       2.539   2.698  19.659  0.00  0.00    +0.000 OA
ATOM     14  C   UNL     1       2.062   2.059  18.468  0.00  0.00    +0.000 C 
ENDBRANCH  11  13
ENDBRANCH   6  11
BRANCH   1  15
ATOM     15  C   UNL     1       4.565   4.405  16.727  0.00  0.00    +0.000 C 
BRANCH  15  16
ATOM     16  C   UNL     1       5.784   5.073  16.089  0.00  0.00    +0.000 C 
BRANCH  16  17
ATOM     17  C   UNL     1       5.742   5.021  14.561  0.00  0.00    +0.000 C 
BRANCH  17  19
ATOM     18  C   UNL     1       6.216   3.636  12.539  0.00  0.00    +0.000 C 
ATOM     19  C   UNL     1       6.047   3.620  14.049  0.00  0.00    +0.000 C 
ENDBRANCH  17  19
ENDBRANCH  16  17
ENDBRANCH  15  16
ENDBRANCH   1  15
BRANCH   4  20
ATOM     20  C   UNL     1       1.788   7.882  20.560  0.00  0.00    +0.000 C 
BRANCH  20  21
ATOM     21  C   UNL     1       0.922   8.918  19.888  0.00  0.00    +0.000 C 
ATOM     22  C   UNL     1       0.062   9.768  20.491  0.00  0.00    +0.000 C 
ATOM     23  C   UNL     1      -0.167   9.795  21.982  0.00  0.00    +0.000 C 
BRANCH  22  24
ATOM     24  C   UNL     1      -0.683  10.798  19.641  0.00  0.00    +0.000 C 
BRANCH  24  25
ATOM     25  C   UNL     1      -1.423  10.224  18.421  0.00  0.00    +0.000 C 
BRANCH  25  26
ATOM     26  C   UNL     1      -2.779  10.820  18.158  0.00  0.00    +0.000 C 
ATOM     27  C   UNL     1      -3.332  10.894  16.931  0.00  0.00    +0.000 C 
ATOM     28  C   UNL     1      -2.667  10.384  15.676  0.00  0.00    +0.000 C 
ATOM     29  C   UNL     1      -4.690  11.505  16.710  0.00  0.00    +0.000 C 
ENDBRANCH  25  26
ENDBRANCH  24  25
ENDBRANCH  22  24
ENDBRANCH  20  21
ENDBRANCH   4  20
TORSDOF 13
ENDMDL
