MODEL 1
REMARK VINA RESULT:      -9.8      0.000      0.000
REMARK  Name = 
REMARK  5 active torsions:
REMARK  status: ('A' for Active; 'I' for Inactive)
REMARK    1  A    between atoms: C_2  and  C_3
REMARK    2  A    between atoms: C_3  and  C_4
REMARK    3  A    between atoms: C_7  and  N_8
REMARK    4  A    between atoms: N_8  and  C_9
REMARK    5  A    between atoms: N_25  and  O_26
REMARK                            x       y       z     vdW  Elec       q    Type
REMARK                         _______ _______ _______ _____ _____    ______ ____
ROOT
ATOM      1  N   UNL     1       3.278   6.448  19.865  0.00  0.00    +0.000 N 
ATOM      2  H   UNL     1       3.411   6.229  20.849  0.00  0.00    +0.000 HD
ENDROOT
BRANCH   1   3
ATOM      3  C   UNL     1       3.586   5.280  19.086  0.00  0.00    +0.000 A 
ATOM      4  C   UNL     1       4.236   5.275  17.790  0.00  0.00    +0.000 A 
ATOM      5  C   UNL     1       4.439   6.341  16.875  0.00  0.00    +0.000 A 
ATOM      6  C   UNL     1       5.232   6.224  15.737  0.00  0.00    +0.000 A 
ATOM      7  C   UNL     1       5.823   5.006  15.446  0.00  0.00    +0.000 A 
ATOM      8  C   UNL     1       5.440   3.898  16.196  0.00  0.00    +0.000 A 
ATOM      9  C   UNL     1       4.560   4.017  17.266  0.00  0.00    +0.000 A 
ATOM     10  N   UNL     1       3.899   2.938  17.652  0.00  0.00    +0.000 NA
ATOM     11  C   UNL     1       2.942   3.132  18.552  0.00  0.00    +0.000 A 
ATOM     12  C   UNL     1       1.607   2.887  18.264  0.00  0.00    +0.000 A 
ATOM     13  C   UNL     1       0.598   3.211  19.173  0.00  0.00    +0.000 A 
ATOM     14  C   UNL     1       0.960   3.570  20.470  0.00  0.00    +0.000 A 
ATOM     15  C   UNL     1       2.279   3.912  20.703  0.00  0.00    +0.000 A 
ATOM     16  C   UNL     1       3.094   4.051  19.574  0.00  0.00    +0.000 A 
ENDBRANCH   1   3
BRANCH   1  20
ATOM     17  C   UNL     1       0.673   9.715  19.494  0.00  0.00    +0.000 A 
ATOM     18  C   UNL     1       1.386   9.260  18.377  0.00  0.00    +0.000 A 
ATOM     19  C   UNL     1       2.201   8.133  18.487  0.00  0.00    +0.000 A 
ATOM     20  C   UNL     1       2.294   7.434  19.699  0.00  0.00    +0.000 A 
ATOM     21  C   UNL     1       1.447   7.799  20.744  0.00  0.00    +0.000 A 
ATOM     22  C   UNL     1       0.713   8.974  20.678  0.00  0.00    +0.000 A 
BRANCH  17  23
ATOM     23  C   UNL     1      -0.280  10.879  19.399  0.00  0.00    +0.000 C 
BRANCH  23  25
ATOM     24  O   UNL     1      -1.998   9.734  18.146  0.00  0.00    +0.000 OA
ATOM     25  C   UNL     1      -1.265  10.716  18.252  0.00  0.00    +0.000 C 
ATOM     26  N   UNL     1      -1.339  11.773  17.370  0.00  0.00    +0.000 N 
ATOM     27  H   UNL     1      -0.561  12.411  17.229  0.00  0.00    +0.000 HD
BRANCH  26  28
ATOM     28  O   UNL     1      -2.187  11.585  16.252  0.00  0.00    +0.000 OA
ATOM     29  H   UNL     1      -1.564  11.685  15.502  0.00  0.00    +0.000 HD
ENDBRANCH  26  28
ENDBRANCH  23  25
ENDBRANCH  17  23
ENDBRANCH   1  20
TORSDOF 5
ENDMDL
MODEL 2
REMARK VINA RESULT:      -9.5      1.011      3.586
REMARK  Name = 
REMARK  5 active torsions:
REMARK  status: ('A' for Active; 'I' for Inactive)
REMARK    1  A    between atoms: C_2  and  C_3
REMARK    2  A    between atoms: C_3  and  C_4
REMARK    3  A    between atoms: C_7  and  N_8
REMARK    4  A    between atoms: N_8  and  C_9
REMARK    5  A    between atoms: N_25  and  O_26
REMARK                            x       y       z     vdW  Elec       q    Type
REMARK                         _______ _______ _______ _____ _____    ______ ____
ROOT
ATOM      1  N   UNL     1       2.903   7.129  19.424  0.00  0.00    +0.000 N 
ATOM      2  H   UNL     1       3.196   6.963  20.383  0.00  0.00    +0.000 HD
ENDROOT
BRANCH   1   3
ATOM      3  C   UNL     1       2.940   5.884  18.707  0.00  0.00    +0.000 A 
ATOM      4  C   UNL     1       2.266   4.661  19.099  0.00  0.00    +0.000 A 
ATOM      5  C   UNL     1       1.700   4.302  20.349  0.00  0.00    +0.000 A 
ATOM      6  C   UNL     1       0.932   3.154  20.533  0.00  0.00    +0.000 A 
ATOM      7  C   UNL     1       0.739   2.292  19.467  0.00  0.00    +0.000 A 
ATOM      8  C   UNL     1       1.482   2.506  18.310  0.00  0.00    +0.000 A 
ATOM      9  C   UNL     1       2.328   3.602  18.185  0.00  0.00    +0.000 A 
ATOM     10  N   UNL     1       3.309   3.534  17.300  0.00  0.00    +0.000 NA
ATOM     11  C   UNL     1       4.197   4.520  17.338  0.00  0.00    +0.000 A 
ATOM     12  C   UNL     1       5.528   4.294  17.661  0.00  0.00    +0.000 A 
ATOM     13  C   UNL     1       6.426   5.351  17.819  0.00  0.00    +0.000 A 
ATOM     14  C   UNL     1       6.028   6.627  17.423  0.00  0.00    +0.000 A 
ATOM     15  C   UNL     1       4.680   6.849  17.211  0.00  0.00    +0.000 A 
ATOM     16  C   UNL     1       3.812   5.822  17.599  0.00  0.00    +0.000 A 
ENDBRANCH   1   3
BRANCH   1  20
ATOM     17  C   UNL     1      -0.109  10.032  19.126  0.00  0.00    +0.000 A 
ATOM     18  C   UNL     1       0.230   9.505  20.379  0.00  0.00    +0.000 A 
ATOM     19  C   UNL     1       1.277   8.588  20.484  0.00  0.00    +0.000 A 
ATOM     20  C   UNL     1       2.011   8.209  19.351  0.00  0.00    +0.000 A 
ATOM     21  C   UNL     1       1.771   8.874  18.150  0.00  0.00    +0.000 A 
ATOM     22  C   UNL     1       0.671   9.707  18.013  0.00  0.00    +0.000 A 
BRANCH  17  23
ATOM     23  C   UNL     1      -1.179  11.085  18.979  0.00  0.00    +0.000 C 
BRANCH  23  25
ATOM     24  O   UNL     1      -2.849   9.839  17.759  0.00  0.00    +0.000 OA
ATOM     25  C   UNL     1      -2.092  10.808  17.796  0.00  0.00    +0.000 C 
ATOM     26  N   UNL     1      -2.073  11.750  16.791  0.00  0.00    +0.000 N 
ATOM     27  H   UNL     1      -1.267  12.346  16.626  0.00  0.00    +0.000 HD
BRANCH  26  28
ATOM     28  O   UNL     1      -2.852  11.449  15.647  0.00  0.00    +0.000 OA
ATOM     29  H   UNL     1      -2.409  11.977  14.950  0.00  0.00    +0.000 HD
ENDBRANCH  26  28
ENDBRANCH  23  25
ENDBRANCH  17  23
ENDBRANCH   1  20
TORSDOF 5
ENDMDL
MODEL 3
REMARK VINA RESULT:      -9.3      1.094      3.417
REMARK  Name = 
REMARK  5 active torsions:
REMARK  status: ('A' for Active; 'I' for Inactive)
REMARK    1  A    between atoms: C_2  and  C_3
REMARK    2  A    between atoms: C_3  and  C_4
REMARK    3  A    between atoms: C_7  and  N_8
REMARK    4  A    between atoms: N_8  and  C_9
REMARK    5  A    between atoms: N_25  and  O_26
REMARK                            x       y       z     vdW  Elec       q    Type
REMARK                         _______ _______ _______ _____ _____    ______ ____
ROOT
ATOM      1  N   UNL     1       3.231   7.062  19.073  0.00  0.00    +0.000 N 
ATOM      2  H   UNL     1       3.620   6.991  20.009  0.00  0.00    +0.000 HD
ENDROOT
BRANCH   1   3
ATOM      3  C   UNL     1       3.436   5.813  18.391  0.00  0.00    +0.000 A 
ATOM      4  C   UNL     1       2.788   4.556  18.714  0.00  0.00    +0.000 A 
ATOM      5  C   UNL     1       2.083   4.177  19.886  0.00  0.00    +0.000 A 
ATOM      6  C   UNL     1       1.366   2.987  19.988  0.00  0.00    +0.000 A 
ATOM      7  C   UNL     1       1.367   2.103  18.923  0.00  0.00    +0.000 A 
ATOM      8  C   UNL     1       2.243   2.348  17.870  0.00  0.00    +0.000 A 
ATOM      9  C   UNL     1       3.033   3.493  17.837  0.00  0.00    +0.000 A 
ATOM     10  N   UNL     1       4.125   3.474  17.091  0.00  0.00    +0.000 NA
ATOM     11  C   UNL     1       4.941   4.513  17.227  0.00  0.00    +0.000 A 
ATOM     12  C   UNL     1       6.228   4.371  17.726  0.00  0.00    +0.000 A 
ATOM     13  C   UNL     1       7.033   5.483  17.982  0.00  0.00    +0.000 A 
ATOM     14  C   UNL     1       6.618   6.727  17.512  0.00  0.00    +0.000 A 
ATOM     15  C   UNL     1       5.299   6.865  17.120  0.00  0.00    +0.000 A 
ATOM     16  C   UNL     1       4.449   5.792  17.410  0.00  0.00    +0.000 A 
ENDBRANCH   1   3
BRANCH   1  20
ATOM     17  C   UNL     1       0.343  10.103  19.049  0.00  0.00    +0.000 A 
ATOM     18  C   UNL     1       0.910   9.670  17.843  0.00  0.00    +0.000 A 
ATOM     19  C   UNL     1       1.822   8.614  17.847  0.00  0.00    +0.000 A 
ATOM     20  C   UNL     1       2.156   7.963  19.043  0.00  0.00    +0.000 A 
ATOM     21  C   UNL     1       1.452   8.293  20.199  0.00  0.00    +0.000 A 
ATOM     22  C   UNL     1       0.623   9.405  20.226  0.00  0.00    +0.000 A 
BRANCH  17  23
ATOM     23  C   UNL     1      -0.706  11.186  19.080  0.00  0.00    +0.000 C 
BRANCH  23  25
ATOM     24  O   UNL     1      -2.559  10.024  18.058  0.00  0.00    +0.000 OA
ATOM     25  C   UNL     1      -1.778  10.973  18.023  0.00  0.00    +0.000 C 
ATOM     26  N   UNL     1      -1.867  11.949  17.055  0.00  0.00    +0.000 N 
ATOM     27  H   UNL     1      -1.074  12.531  16.802  0.00  0.00    +0.000 HD
BRANCH  26  28
ATOM     28  O   UNL     1      -2.801  11.706  16.018  0.00  0.00    +0.000 OA
ATOM     29  H   UNL     1      -3.655  11.742  16.497  0.00  0.00    +0.000 HD
ENDBRANCH  26  28
ENDBRANCH  23  25
ENDBRANCH  17  23
ENDBRANCH   1  20
TORSDOF 5
ENDMDL
MODEL 4
REMARK VINA RESULT:      -9.2      1.836      2.049
REMARK  Name = 
REMARK  5 active torsions:
REMARK  status: ('A' for Active; 'I' for Inactive)
REMARK    1  A    between atoms: C_2  and  C_3
REMARK    2  A    between atoms: C_3  and  C_4
REMARK    3  A    between atoms: C_7  and  N_8
REMARK    4  A    between atoms: N_8  and  C_9
REMARK    5  A    between atoms: N_25  and  O_26
REMARK                            x       y       z     vdW  Elec       q    Type
REMARK                         _______ _______ _______ _____ _____    ______ ____
ROOT
ATOM      1  N   UNL     1       3.382   6.232  19.929  0.00  0.00    +0.000 N 
ATOM      2  H   UNL     1       3.586   5.978  20.892  0.00  0.00    +0.000 HD
ENDROOT
BRANCH   1   3
ATOM      3  C   UNL     1       3.661   5.104  19.084  0.00  0.00    +0.000 A 
ATOM      4  C   UNL     1       4.273   5.161  17.770  0.00  0.00    +0.000 A 
ATOM      5  C   UNL     1       4.452   6.271  16.904  0.00  0.00    +0.000 A 
ATOM      6  C   UNL     1       5.211   6.207  15.737  0.00  0.00    +0.000 A 
ATOM      7  C   UNL     1       5.787   5.004  15.369  0.00  0.00    +0.000 A 
ATOM      8  C   UNL     1       5.422   3.861  16.075  0.00  0.00    +0.000 A 
ATOM      9  C   UNL     1       4.575   3.930  17.176  0.00  0.00    +0.000 A 
ATOM     10  N   UNL     1       3.921   2.835  17.527  0.00  0.00    +0.000 NA
ATOM     11  C   UNL     1       2.993   2.986  18.464  0.00  0.00    +0.000 A 
ATOM     12  C   UNL     1       1.649   2.760  18.205  0.00  0.00    +0.000 A 
ATOM     13  C   UNL     1       0.668   3.041  19.159  0.00  0.00    +0.000 A 
ATOM     14  C   UNL     1       1.071   3.334  20.461  0.00  0.00    +0.000 A 
ATOM     15  C   UNL     1       2.398   3.660  20.670  0.00  0.00    +0.000 A 
ATOM     16  C   UNL     1       3.180   3.853  19.525  0.00  0.00    +0.000 A 
ENDBRANCH   1   3
BRANCH   1  20
ATOM     17  C   UNL     1       0.679   9.439  19.912  0.00  0.00    +0.000 A 
ATOM     18  C   UNL     1       1.407   9.135  18.755  0.00  0.00    +0.000 A 
ATOM     19  C   UNL     1       2.257   8.027  18.743  0.00  0.00    +0.000 A 
ATOM     20  C   UNL     1       2.369   7.201  19.869  0.00  0.00    +0.000 A 
ATOM     21  C   UNL     1       1.509   7.420  20.943  0.00  0.00    +0.000 A 
ATOM     22  C   UNL     1       0.739   8.572  21.006  0.00  0.00    +0.000 A 
BRANCH  17  23
ATOM     23  C   UNL     1      -0.311  10.577  19.942  0.00  0.00    +0.000 C 
BRANCH  23  25
ATOM     24  O   UNL     1       0.867  12.143  21.353  0.00  0.00    +0.000 OA
ATOM     25  C   UNL     1      -0.135  11.452  21.173  0.00  0.00    +0.000 C 
ATOM     26  N   UNL     1      -1.200  11.479  22.047  0.00  0.00    +0.000 N 
ATOM     27  H   UNL     1      -1.862  10.711  22.113  0.00  0.00    +0.000 HD
BRANCH  26  28
ATOM     28  O   UNL     1      -1.002  12.219  23.238  0.00  0.00    +0.000 OA
ATOM     29  H   UNL     1      -0.451  12.967  22.927  0.00  0.00    +0.000 HD
ENDBRANCH  26  28
ENDBRANCH  23  25
ENDBRANCH  17  23
ENDBRANCH   1  20
TORSDOF 5
ENDMDL
MODEL 5
REMARK VINA RESULT:      -9.1      1.665      2.154
REMARK  Name = 
REMARK  5 active torsions:
REMARK  status: ('A' for Active; 'I' for Inactive)
REMARK    1  A    between atoms: C_2  and  C_3
REMARK    2  A    between atoms: C_3  and  C_4
REMARK    3  A    between atoms: C_7  and  N_8
REMARK    4  A    between atoms: N_8  and  C_9
REMARK    5  A    between atoms: N_25  and  O_26
REMARK                            x       y       z     vdW  Elec       q    Type
REMARK                         _______ _______ _______ _____ _____    ______ ____
ROOT
ATOM      1  N   UNL     1       2.439   6.576  18.234  0.00  0.00    +0.000 N 
ATOM      2  H   UNL     1       2.265   6.461  17.239  0.00  0.00    +0.000 HD
ENDROOT
BRANCH   1   3
ATOM      3  C   UNL     1       3.522   5.712  18.616  0.00  0.00    +0.000 A 
ATOM      4  C   UNL     1       4.926   5.938  18.333  0.00  0.00    +0.000 A 
ATOM      5  C   UNL     1       5.530   6.829  17.408  0.00  0.00    +0.000 A 
ATOM      6  C   UNL     1       6.902   7.061  17.363  0.00  0.00    +0.000 A 
ATOM      7  C   UNL     1       7.735   6.367  18.225  0.00  0.00    +0.000 A 
ATOM      8  C   UNL     1       7.186   5.323  18.963  0.00  0.00    +0.000 A 
ATOM      9  C   UNL     1       5.826   5.036  18.913  0.00  0.00    +0.000 A 
ATOM     10  N   UNL     1       5.433   3.820  19.255  0.00  0.00    +0.000 NA
ATOM     11  C   UNL     1       4.158   3.534  19.023  0.00  0.00    +0.000 A 
ATOM     12  C   UNL     1       3.783   2.549  18.120  0.00  0.00    +0.000 A 
ATOM     13  C   UNL     1       2.442   2.340  17.790  0.00  0.00    +0.000 A 
ATOM     14  C   UNL     1       1.462   2.975  18.551  0.00  0.00    +0.000 A 
ATOM     15  C   UNL     1       1.852   4.024  19.363  0.00  0.00    +0.000 A 
ATOM     16  C   UNL     1       3.165   4.480  19.204  0.00  0.00    +0.000 A 
ENDBRANCH   1   3
BRANCH   1  20
ATOM     17  C   UNL     1       0.977  10.348  19.341  0.00  0.00    +0.000 A 
ATOM     18  C   UNL     1       0.965   9.296  20.266  0.00  0.00    +0.000 A 
ATOM     19  C   UNL     1       1.512   8.061  19.917  0.00  0.00    +0.000 A 
ATOM     20  C   UNL     1       2.097   7.869  18.658  0.00  0.00    +0.000 A 
ATOM     21  C   UNL     1       2.254   8.973  17.822  0.00  0.00    +0.000 A 
ATOM     22  C   UNL     1       1.625  10.174  18.115  0.00  0.00    +0.000 A 
BRANCH  17  23
ATOM     23  C   UNL     1       0.470  11.721  19.704  0.00  0.00    +0.000 C 
BRANCH  23  25
ATOM     24  O   UNL     1      -0.186  13.533  18.249  0.00  0.00    +0.000 OA
ATOM     25  C   UNL     1      -0.323  12.354  18.572  0.00  0.00    +0.000 C 
ATOM     26  N   UNL     1      -1.160  11.506  17.880  0.00  0.00    +0.000 N 
ATOM     27  H   UNL     1      -1.541  10.664  18.300  0.00  0.00    +0.000 HD
BRANCH  26  28
ATOM     28  O   UNL     1      -1.968  12.112  16.886  0.00  0.00    +0.000 OA
ATOM     29  H   UNL     1      -2.239  11.342  16.343  0.00  0.00    +0.000 HD
ENDBRANCH  26  28
ENDBRANCH  23  25
ENDBRANCH  17  23
ENDBRANCH   1  20
TORSDOF 5
ENDMDL
MODEL 6
REMARK VINA RESULT:      -9.1      2.440      2.887
REMARK  Name = 
REMARK  5 active torsions:
REMARK  status: ('A' for Active; 'I' for Inactive)
REMARK    1  A    between atoms: C_2  and  C_3
REMARK    2  A    between atoms: C_3  and  C_4
REMARK    3  A    between atoms: C_7  and  N_8
REMARK    4  A    between atoms: N_8  and  C_9
REMARK    5  A    between atoms: N_25  and  O_26
REMARK                            x       y       z     vdW  Elec       q    Type
REMARK                         _______ _______ _______ _____ _____    ______ ____
ROOT
ATOM      1  N   UNL     1       2.634   6.752  17.932  0.00  0.00    +0.000 N 
ATOM      2  H   UNL     1       2.757   6.851  16.928  0.00  0.00    +0.000 HD
ENDROOT
BRANCH   1   3
ATOM      3  C   UNL     1       3.665   5.891  18.443  0.00  0.00    +0.000 A 
ATOM      4  C   UNL     1       5.092   6.090  18.279  0.00  0.00    +0.000 A 
ATOM      5  C   UNL     1       5.789   6.936  17.379  0.00  0.00    +0.000 A 
ATOM      6  C   UNL     1       7.164   7.150  17.449  0.00  0.00    +0.000 A 
ATOM      7  C   UNL     1       7.905   6.480  18.408  0.00  0.00    +0.000 A 
ATOM      8  C   UNL     1       7.276   5.472  19.133  0.00  0.00    +0.000 A 
ATOM      9  C   UNL     1       5.922   5.200  18.971  0.00  0.00    +0.000 A 
ATOM     10  N   UNL     1       5.481   4.003  19.323  0.00  0.00    +0.000 NA
ATOM     11  C   UNL     1       4.227   3.723  18.987  0.00  0.00    +0.000 A 
ATOM     12  C   UNL     1       3.920   2.708  18.092  0.00  0.00    +0.000 A 
ATOM     13  C   UNL     1       2.611   2.503  17.651  0.00  0.00    +0.000 A 
ATOM     14  C   UNL     1       1.577   3.179  18.296  0.00  0.00    +0.000 A 
ATOM     15  C   UNL     1       1.908   4.254  19.099  0.00  0.00    +0.000 A 
ATOM     16  C   UNL     1       3.238   4.687  19.042  0.00  0.00    +0.000 A 
ENDBRANCH   1   3
BRANCH   1  20
ATOM     17  C   UNL     1       0.426   9.939  19.533  0.00  0.00    +0.000 A 
ATOM     18  C   UNL     1       1.004   8.992  20.388  0.00  0.00    +0.000 A 
ATOM     19  C   UNL     1       1.793   7.970  19.857  0.00  0.00    +0.000 A 
ATOM     20  C   UNL     1       2.034   7.897  18.478  0.00  0.00    +0.000 A 
ATOM     21  C   UNL     1       1.595   8.944  17.670  0.00  0.00    +0.000 A 
ATOM     22  C   UNL     1       0.728   9.904  18.169  0.00  0.00    +0.000 A 
BRANCH  17  23
ATOM     23  C   UNL     1      -0.366  11.105  20.071  0.00  0.00    +0.000 C 
BRANCH  23  25
ATOM     24  O   UNL     1       0.153  12.027  22.241  0.00  0.00    +0.000 OA
ATOM     25  C   UNL     1       0.444  11.941  21.049  0.00  0.00    +0.000 C 
ATOM     26  N   UNL     1       1.570  12.544  20.533  0.00  0.00    +0.000 N 
ATOM     27  H   UNL     1       1.655  12.770  19.546  0.00  0.00    +0.000 HD
BRANCH  26  28
ATOM     28  O   UNL     1       2.273  13.397  21.418  0.00  0.00    +0.000 OA
ATOM     29  H   UNL     1       2.003  14.286  21.107  0.00  0.00    +0.000 HD
ENDBRANCH  26  28
ENDBRANCH  23  25
ENDBRANCH  17  23
ENDBRANCH   1  20
TORSDOF 5
ENDMDL
MODEL 7
REMARK VINA RESULT:      -9.1      1.490      1.546
REMARK  Name = 
REMARK  5 active torsions:
REMARK  status: ('A' for Active; 'I' for Inactive)
REMARK    1  A    between atoms: C_2  and  C_3
REMARK    2  A    between atoms: C_3  and  C_4
REMARK    3  A    between atoms: C_7  and  N_8
REMARK    4  A    between atoms: N_8  and  C_9
REMARK    5  A    between atoms: N_25  and  O_26
REMARK                            x       y       z     vdW  Elec       q    Type
REMARK                         _______ _______ _______ _____ _____    ______ ____
ROOT
ATOM      1  N   UNL     1       3.363   6.295  19.805  0.00  0.00    +0.000 N 
ATOM      2  H   UNL     1       3.475   6.080  20.792  0.00  0.00    +0.000 HD
ENDROOT
BRANCH   1   3
ATOM      3  C   UNL     1       3.664   5.117  19.039  0.00  0.00    +0.000 A 
ATOM      4  C   UNL     1       4.309   5.093  17.741  0.00  0.00    +0.000 A 
ATOM      5  C   UNL     1       4.512   6.147  16.812  0.00  0.00    +0.000 A 
ATOM      6  C   UNL     1       5.300   6.013  15.672  0.00  0.00    +0.000 A 
ATOM      7  C   UNL     1       5.885   4.789  15.394  0.00  0.00    +0.000 A 
ATOM      8  C   UNL     1       5.501   3.692  16.159  0.00  0.00    +0.000 A 
ATOM      9  C   UNL     1       4.626   3.828  17.231  0.00  0.00    +0.000 A 
ATOM     10  N   UNL     1       3.962   2.756  17.633  0.00  0.00    +0.000 NA
ATOM     11  C   UNL     1       3.010   2.964  18.534  0.00  0.00    +0.000 A 
ATOM     12  C   UNL     1       1.673   2.721  18.255  0.00  0.00    +0.000 A 
ATOM     13  C   UNL     1       0.668   3.060  19.163  0.00  0.00    +0.000 A 
ATOM     14  C   UNL     1       1.037   3.433  20.455  0.00  0.00    +0.000 A 
ATOM     15  C   UNL     1       2.359   3.773  20.678  0.00  0.00    +0.000 A 
ATOM     16  C   UNL     1       3.170   3.895  19.544  0.00  0.00    +0.000 A 
ENDBRANCH   1   3
BRANCH   1  20
ATOM     17  C   UNL     1       0.835   9.607  19.328  0.00  0.00    +0.000 A 
ATOM     18  C   UNL     1       1.486   9.061  18.215  0.00  0.00    +0.000 A 
ATOM     19  C   UNL     1       2.275   7.919  18.365  0.00  0.00    +0.000 A 
ATOM     20  C   UNL     1       2.401   7.297  19.616  0.00  0.00    +0.000 A 
ATOM     21  C   UNL     1       1.609   7.753  20.668  0.00  0.00    +0.000 A 
ATOM     22  C   UNL     1       0.905   8.943  20.556  0.00  0.00    +0.000 A 
BRANCH  17  23
ATOM     23  C   UNL     1      -0.091  10.791  19.196  0.00  0.00    +0.000 C 
BRANCH  23  25
ATOM     24  O   UNL     1       0.897  12.593  20.463  0.00  0.00    +0.000 OA
ATOM     25  C   UNL     1       0.646  12.111  19.360  0.00  0.00    +0.000 C 
ATOM     26  N   UNL     1       1.079  12.704  18.194  0.00  0.00    +0.000 N 
ATOM     27  H   UNL     1       0.626  12.532  17.302  0.00  0.00    +0.000 HD
BRANCH  26  28
ATOM     28  O   UNL     1       1.683  13.977  18.337  0.00  0.00    +0.000 OA
ATOM     29  H   UNL     1       2.405  13.938  17.676  0.00  0.00    +0.000 HD
ENDBRANCH  26  28
ENDBRANCH  23  25
ENDBRANCH  17  23
ENDBRANCH   1  20
TORSDOF 5
ENDMDL
MODEL 8
REMARK VINA RESULT:      -8.9      0.458      1.049
REMARK  Name = 
REMARK  5 active torsions:
REMARK  status: ('A' for Active; 'I' for Inactive)
REMARK    1  A    between atoms: C_2  and  C_3
REMARK    2  A    between atoms: C_3  and  C_4
REMARK    3  A    between atoms: C_7  and  N_8
REMARK    4  A    between atoms: N_8  and  C_9
REMARK    5  A    between atoms: N_25  and  O_26
REMARK                            x       y       z     vdW  Elec       q    Type
REMARK                         _______ _______ _______ _____ _____    ______ ____
ROOT
ATOM      1  N   UNL     1       2.885   6.533  20.145  0.00  0.00    +0.000 N 
ATOM      2  H   UNL     1       2.627   6.135  21.044  0.00  0.00    +0.000 HD
ENDROOT
BRANCH   1   3
ATOM      3  C   UNL     1       3.297   5.470  19.270  0.00  0.00    +0.000 A 
ATOM      4  C   UNL     1       3.966   5.634  17.994  0.00  0.00    +0.000 A 
ATOM      5  C   UNL     1       4.097   6.792  17.184  0.00  0.00    +0.000 A 
ATOM      6  C   UNL     1       4.915   6.842  16.058  0.00  0.00    +0.000 A 
ATOM      7  C   UNL     1       5.605   5.705  15.672  0.00  0.00    +0.000 A 
ATOM      8  C   UNL     1       5.300   4.507  16.310  0.00  0.00    +0.000 A 
ATOM      9  C   UNL     1       4.396   4.458  17.366  0.00  0.00    +0.000 A 
ATOM     10  N   UNL     1       3.817   3.301  17.638  0.00  0.00    +0.000 NA
ATOM     11  C   UNL     1       2.834   3.336  18.530  0.00  0.00    +0.000 A 
ATOM     12  C   UNL     1       1.528   3.016  18.190  0.00  0.00    +0.000 A 
ATOM     13  C   UNL     1       0.482   3.175  19.102  0.00  0.00    +0.000 A 
ATOM     14  C   UNL     1       0.794   3.440  20.434  0.00  0.00    +0.000 A 
ATOM     15  C   UNL     1       2.079   3.861  20.726  0.00  0.00    +0.000 A 
ATOM     16  C   UNL     1       2.897   4.166  19.634  0.00  0.00    +0.000 A 
ENDBRANCH   1   3
BRANCH   1  20
ATOM     17  C   UNL     1       0.357   9.767  19.283  0.00  0.00    +0.000 A 
ATOM     18  C   UNL     1       0.472   9.303  20.600  0.00  0.00    +0.000 A 
ATOM     19  C   UNL     1       1.363   8.270  20.895  0.00  0.00    +0.000 A 
ATOM     20  C   UNL     1       2.164   7.709  19.890  0.00  0.00    +0.000 A 
ATOM     21  C   UNL     1       2.160   8.300  18.628  0.00  0.00    +0.000 A 
ATOM     22  C   UNL     1       1.208   9.255  18.300  0.00  0.00    +0.000 A 
BRANCH  17  23
ATOM     23  C   UNL     1      -0.534  10.933  18.935  0.00  0.00    +0.000 C 
BRANCH  23  25
ATOM     24  O   UNL     1      -2.071   9.535  17.704  0.00  0.00    +0.000 OA
ATOM     25  C   UNL     1      -1.475  10.609  17.786  0.00  0.00    +0.000 C 
ATOM     26  N   UNL     1      -1.676  11.620  16.872  0.00  0.00    +0.000 N 
ATOM     27  H   UNL     1      -0.988  12.351  16.717  0.00  0.00    +0.000 HD
BRANCH  26  28
ATOM     28  O   UNL     1      -2.479  11.289  15.753  0.00  0.00    +0.000 OA
ATOM     29  H   UNL     1      -2.914  12.144  15.551  0.00  0.00    +0.000 HD
ENDBRANCH  26  28
ENDBRANCH  23  25
ENDBRANCH  17  23
ENDBRANCH   1  20
TORSDOF 5
ENDMDL
MODEL 9
REMARK VINA RESULT:      -8.9      1.545      3.809
REMARK  Name = 
REMARK  5 active torsions:
REMARK  status: ('A' for Active; 'I' for Inactive)
REMARK    1  A    between atoms: C_2  and  C_3
REMARK    2  A    between atoms: C_3  and  C_4
REMARK    3  A    between atoms: C_7  and  N_8
REMARK    4  A    between atoms: N_8  and  C_9
REMARK    5  A    between atoms: N_25  and  O_26
REMARK                            x       y       z     vdW  Elec       q    Type
REMARK                         _______ _______ _______ _____ _____    ______ ____
ROOT
ATOM      1  N   UNL     1       2.881   7.436  19.106  0.00  0.00    +0.000 N 
ATOM      2  H   UNL     1       3.313   7.379  20.025  0.00  0.00    +0.000 HD
ENDROOT
BRANCH   1   3
ATOM      3  C   UNL     1       2.934   6.138  18.490  0.00  0.00    +0.000 A 
ATOM      4  C   UNL     1       2.261   4.946  18.968  0.00  0.00    +0.000 A 
ATOM      5  C   UNL     1       1.680   4.682  20.235  0.00  0.00    +0.000 A 
ATOM      6  C   UNL     1       0.916   3.548  20.498  0.00  0.00    +0.000 A 
ATOM      7  C   UNL     1       0.741   2.604  19.501  0.00  0.00    +0.000 A 
ATOM      8  C   UNL     1       1.498   2.731  18.340  0.00  0.00    +0.000 A 
ATOM      9  C   UNL     1       2.340   3.819  18.140  0.00  0.00    +0.000 A 
ATOM     10  N   UNL     1       3.334   3.688  17.276  0.00  0.00    +0.000 NA
ATOM     11  C   UNL     1       4.216   4.679  17.248  0.00  0.00    +0.000 A 
ATOM     12  C   UNL     1       5.543   4.487  17.605  0.00  0.00    +0.000 A 
ATOM     13  C   UNL     1       6.434   5.559  17.691  0.00  0.00    +0.000 A 
ATOM     14  C   UNL     1       6.035   6.798  17.191  0.00  0.00    +0.000 A 
ATOM     15  C   UNL     1       4.689   6.994  16.945  0.00  0.00    +0.000 A 
ATOM     16  C   UNL     1       3.821   5.996  17.402  0.00  0.00    +0.000 A 
ENDBRANCH   1   3
BRANCH   1  20
ATOM     17  C   UNL     1      -0.391  10.057  18.979  0.00  0.00    +0.000 A 
ATOM     18  C   UNL     1       0.099   9.612  20.213  0.00  0.00    +0.000 A 
ATOM     19  C   UNL     1       1.228   8.793  20.256  0.00  0.00    +0.000 A 
ATOM     20  C   UNL     1       1.893   8.431  19.076  0.00  0.00    +0.000 A 
ATOM     21  C   UNL     1       1.495   9.023  17.880  0.00  0.00    +0.000 A 
ATOM     22  C   UNL     1       0.317   9.753  17.813  0.00  0.00    +0.000 A 
BRANCH  17  23
ATOM     23  C   UNL     1      -1.558  11.008  18.891  0.00  0.00    +0.000 C 
BRANCH  23  25
ATOM     24  O   UNL     1      -1.018  12.914  20.271  0.00  0.00    +0.000 OA
ATOM     25  C   UNL     1      -1.140  12.448  19.140  0.00  0.00    +0.000 C 
ATOM     26  N   UNL     1      -0.836  13.186  18.016  0.00  0.00    +0.000 N 
ATOM     27  H   UNL     1      -1.227  12.966  17.105  0.00  0.00    +0.000 HD
BRANCH  26  28
ATOM     28  O   UNL     1      -0.536  14.552  18.238  0.00  0.00    +0.000 OA
ATOM     29  H   UNL     1       0.308  14.660  17.751  0.00  0.00    +0.000 HD
ENDBRANCH  26  28
ENDBRANCH  23  25
ENDBRANCH  17  23
ENDBRANCH   1  20
TORSDOF 5
ENDMDL
