MODEL 1
REMARK VINA RESULT:      -8.3      0.000      0.000
REMARK  Name = 
REMARK  4 active torsions:
REMARK  status: ('A' for Active; 'I' for Inactive)
REMARK    1  A    between atoms: C_2  and  C_3
REMARK    2  A    between atoms: C_3  and  C_4
REMARK    3  A    between atoms: C_4  and  C_5
REMARK    4  A    between atoms: N_15  and  C_16
REMARK                            x       y       z     vdW  Elec       q    Type
REMARK                         _______ _______ _______ _____ _____    ______ ____
ROOT
ATOM      1  O   UNL     1       3.804   3.966  19.960  0.00  0.00    +0.000 OA
ATOM      2  C   UNL     1       3.314   4.718  19.131  0.00  0.00    +0.000 C 
ATOM      3  N   UNL     1       4.003   5.138  18.015  0.00  0.00    +0.000 N 
ATOM      4  H   UNL     1       3.565   5.812  17.418  0.00  0.00    +0.000 HD
ENDROOT
BRANCH   3   5
ATOM      5  C   UNL     1       5.479   4.854  17.811  0.00  0.00    +0.000 C 
ATOM      6  C   UNL     1       6.325   5.943  18.536  0.00  0.00    +0.000 C 
ATOM      7  C   UNL     1       7.845   5.932  18.734  0.00  0.00    +0.000 C 
ATOM      8  C   UNL     1       8.209   7.354  18.321  0.00  0.00    +0.000 C 
ATOM      9  O   UNL     1       7.486   7.509  17.081  0.00  0.00    +0.000 OA
ATOM     10  C   UNL     1       6.237   6.784  17.209  0.00  0.00    +0.000 C 
ATOM     11  C   UNL     1       6.012   5.455  16.506  0.00  0.00    +0.000 C 
ATOM     12  C   UNL     1       5.144   5.239  15.276  0.00  0.00    +0.000 C 
ATOM     13  C   UNL     1       6.068   4.016  14.989  0.00  0.00    +0.000 C 
ATOM     14  C   UNL     1       7.163   4.779  15.767  0.00  0.00    +0.000 C 
ENDBRANCH   3   5
BRANCH   2  15
ATOM     15  C   UNL     1       1.939   5.354  19.360  0.00  0.00    +0.000 C 
BRANCH  15  16
ATOM     16  C   UNL     1       1.834   6.415  20.454  0.00  0.00    +0.000 C 
BRANCH  16  17
ATOM     17  C   UNL     1       1.608   7.812  19.890  0.00  0.00    +0.000 A 
ATOM     18  C   UNL     1       2.080   8.081  18.600  0.00  0.00    +0.000 A 
ATOM     19  C   UNL     1       1.915   9.350  18.079  0.00  0.00    +0.000 A 
ATOM     20  N   UNL     1       1.328  10.364  18.742  0.00  0.00    +0.000 NA
ATOM     21  C   UNL     1       0.856  10.120  19.976  0.00  0.00    +0.000 A 
ATOM     22  C   UNL     1       0.248  11.170  20.653  0.00  0.00    +0.000 A 
ATOM     23  C   UNL     1      -0.286  11.013  21.931  0.00  0.00    +0.000 A 
ATOM     24  C   UNL     1      -0.216   9.775  22.553  0.00  0.00    +0.000 A 
ATOM     25  C   UNL     1       0.401   8.706  21.897  0.00  0.00    +0.000 A 
ATOM     26  C   UNL     1       0.954   8.852  20.603  0.00  0.00    +0.000 A 
ENDBRANCH  16  17
ENDBRANCH  15  16
ENDBRANCH   2  15
TORSDOF 4
ENDMDL
MODEL 2
REMARK VINA RESULT:      -8.2      3.024      4.329
REMARK  Name = 
REMARK  4 active torsions:
REMARK  status: ('A' for Active; 'I' for Inactive)
REMARK    1  A    between atoms: C_2  and  C_3
REMARK    2  A    between atoms: C_3  and  C_4
REMARK    3  A    between atoms: C_4  and  C_5
REMARK    4  A    between atoms: N_15  and  C_16
REMARK                            x       y       z     vdW  Elec       q    Type
REMARK                         _______ _______ _______ _____ _____    ______ ____
ROOT
ATOM      1  O   UNL     1       1.649   7.251  20.523  0.00  0.00    +0.000 OA
ATOM      2  C   UNL     1       1.988   7.753  19.462  0.00  0.00    +0.000 C 
ATOM      3  N   UNL     1       2.831   7.117  18.578  0.00  0.00    +0.000 N 
ATOM      4  H   UNL     1       3.123   7.619  17.762  0.00  0.00    +0.000 HD
ENDROOT
BRANCH   3   5
ATOM      5  C   UNL     1       3.553   5.828  18.920  0.00  0.00    +0.000 C 
ATOM      6  C   UNL     1       4.949   5.813  18.229  0.00  0.00    +0.000 C 
ATOM      7  C   UNL     1       6.066   4.787  18.457  0.00  0.00    +0.000 C 
ATOM      8  C   UNL     1       6.467   4.462  17.022  0.00  0.00    +0.000 C 
ATOM      9  O   UNL     1       5.189   4.242  16.387  0.00  0.00    +0.000 OA
ATOM     10  C   UNL     1       4.240   5.159  16.985  0.00  0.00    +0.000 C 
ATOM     11  C   UNL     1       3.184   4.684  17.971  0.00  0.00    +0.000 C 
ATOM     12  C   UNL     1       1.701   4.525  17.673  0.00  0.00    +0.000 C 
ATOM     13  C   UNL     1       1.711   3.460  18.812  0.00  0.00    +0.000 C 
ATOM     14  C   UNL     1       3.201   3.241  18.468  0.00  0.00    +0.000 C 
ENDBRANCH   3   5
BRANCH   2  15
ATOM     15  C   UNL     1       1.599   9.194  19.114  0.00  0.00    +0.000 C 
BRANCH  15  16
ATOM     16  C   UNL     1       0.527   9.389  18.043  0.00  0.00    +0.000 C 
BRANCH  16  17
ATOM     17  C   UNL     1      -0.581  10.333  18.493  0.00  0.00    +0.000 A 
ATOM     18  C   UNL     1      -0.396  11.034  19.691  0.00  0.00    +0.000 A 
ATOM     19  C   UNL     1      -1.400  11.872  20.136  0.00  0.00    +0.000 A 
ATOM     20  N   UNL     1      -2.566  12.057  19.489  0.00  0.00    +0.000 NA
ATOM     21  C   UNL     1      -2.755  11.403  18.331  0.00  0.00    +0.000 A 
ATOM     22  C   UNL     1      -3.959  11.601  17.667  0.00  0.00    +0.000 A 
ATOM     23  C   UNL     1      -4.243  10.979  16.453  0.00  0.00    +0.000 A 
ATOM     24  C   UNL     1      -3.301  10.137  15.880  0.00  0.00    +0.000 A 
ATOM     25  C   UNL     1      -2.087   9.913  16.533  0.00  0.00    +0.000 A 
ATOM     26  C   UNL     1      -1.787  10.531  17.770  0.00  0.00    +0.000 A 
ENDBRANCH  16  17
ENDBRANCH  15  16
ENDBRANCH   2  15
TORSDOF 4
ENDMDL
MODEL 3
REMARK VINA RESULT:      -8.0      2.415      3.730
REMARK  Name = 
REMARK  4 active torsions:
REMARK  status: ('A' for Active; 'I' for Inactive)
REMARK    1  A    between atoms: C_2  and  C_3
REMARK    2  A    between atoms: C_3  and  C_4
REMARK    3  A    between atoms: C_4  and  C_5
REMARK    4  A    between atoms: N_15  and  C_16
REMARK                            x       y       z     vdW  Elec       q    Type
REMARK                         _______ _______ _______ _____ _____    ______ ____
ROOT
ATOM      1  O   UNL     1       1.484   5.764  20.941  0.00  0.00    +0.000 OA
ATOM      2  C   UNL     1       1.925   6.705  20.297  0.00  0.00    +0.000 C 
ATOM      3  N   UNL     1       2.910   6.554  19.346  0.00  0.00    +0.000 N 
ATOM      4  H   UNL     1       3.273   7.380  18.911  0.00  0.00    +0.000 HD
ENDROOT
BRANCH   3   5
ATOM      5  C   UNL     1       3.656   5.250  19.142  0.00  0.00    +0.000 C 
ATOM      6  C   UNL     1       5.005   5.530  18.414  0.00  0.00    +0.000 C 
ATOM      7  C   UNL     1       6.138   4.523  18.178  0.00  0.00    +0.000 C 
ATOM      8  C   UNL     1       6.446   4.763  16.704  0.00  0.00    +0.000 C 
ATOM      9  O   UNL     1       5.130   4.760  16.110  0.00  0.00    +0.000 OA
ATOM     10  C   UNL     1       4.219   5.364  17.060  0.00  0.00    +0.000 C 
ATOM     11  C   UNL     1       3.231   4.529  17.859  0.00  0.00    +0.000 C 
ATOM     12  C   UNL     1       1.731   4.452  17.612  0.00  0.00    +0.000 C 
ATOM     13  C   UNL     1       1.819   3.042  18.272  0.00  0.00    +0.000 C 
ATOM     14  C   UNL     1       3.284   3.006  17.784  0.00  0.00    +0.000 C 
ENDBRANCH   3   5
BRANCH   2  15
ATOM     15  C   UNL     1       1.501   8.143  20.614  0.00  0.00    +0.000 C 
BRANCH  15  16
ATOM     16  C   UNL     1       1.280   9.083  19.431  0.00  0.00    +0.000 C 
BRANCH  16  17
ATOM     17  C   UNL     1       0.220  10.140  19.716  0.00  0.00    +0.000 A 
ATOM     18  C   UNL     1       0.325  10.866  20.908  0.00  0.00    +0.000 A 
ATOM     19  C   UNL     1      -0.641  11.808  21.203  0.00  0.00    +0.000 A 
ATOM     20  N   UNL     1      -1.698  12.073  20.413  0.00  0.00    +0.000 NA
ATOM     21  C   UNL     1      -1.808  11.396  19.259  0.00  0.00    +0.000 A 
ATOM     22  C   UNL     1      -2.899  11.678  18.446  0.00  0.00    +0.000 A 
ATOM     23  C   UNL     1      -3.092  11.038  17.223  0.00  0.00    +0.000 A 
ATOM     24  C   UNL     1      -2.172  10.094  16.793  0.00  0.00    +0.000 A 
ATOM     25  C   UNL     1      -1.072   9.785  17.597  0.00  0.00    +0.000 A 
ATOM     26  C   UNL     1      -0.866  10.419  18.845  0.00  0.00    +0.000 A 
ENDBRANCH  16  17
ENDBRANCH  15  16
ENDBRANCH   2  15
TORSDOF 4
ENDMDL
MODEL 4
REMARK VINA RESULT:      -8.0      4.577      7.262
REMARK  Name = 
REMARK  4 active torsions:
REMARK  status: ('A' for Active; 'I' for Inactive)
REMARK    1  A    between atoms: C_2  and  C_3
REMARK    2  A    between atoms: C_3  and  C_4
REMARK    3  A    between atoms: C_4  and  C_5
REMARK    4  A    between atoms: N_15  and  C_16
REMARK                            x       y       z     vdW  Elec       q    Type
REMARK                         _______ _______ _______ _____ _____    ______ ____
ROOT
ATOM      1  O   UNL     1       8.432   6.969  19.073  0.00  0.00    +0.000 OA
ATOM      2  C   UNL     1       7.932   7.735  18.263  0.00  0.00    +0.000 C 
ATOM      3  N   UNL     1       6.927   7.350  17.404  0.00  0.00    +0.000 N 
ATOM      4  H   UNL     1       6.617   8.010  16.717  0.00  0.00    +0.000 HD
ENDROOT
BRANCH   3   5
ATOM      5  C   UNL     1       6.482   5.907  17.261  0.00  0.00    +0.000 C 
ATOM      6  C   UNL     1       6.886   5.374  15.854  0.00  0.00    +0.000 C 
ATOM      7  C   UNL     1       6.790   3.922  15.369  0.00  0.00    +0.000 C 
ATOM      8  C   UNL     1       6.135   4.108  14.004  0.00  0.00    +0.000 C 
ATOM      9  O   UNL     1       5.048   5.009  14.304  0.00  0.00    +0.000 OA
ATOM     10  C   UNL     1       5.503   5.918  15.336  0.00  0.00    +0.000 C 
ATOM     11  C   UNL     1       5.034   5.790  16.776  0.00  0.00    +0.000 C 
ATOM     12  C   UNL     1       4.031   6.703  17.466  0.00  0.00    +0.000 C 
ATOM     13  C   UNL     1       3.731   5.478  18.383  0.00  0.00    +0.000 C 
ATOM     14  C   UNL     1       4.180   4.596  17.196  0.00  0.00    +0.000 C 
ENDBRANCH   3   5
BRANCH   2  15
ATOM     15  C   UNL     1       8.496   9.145  18.061  0.00  0.00    +0.000 C 
BRANCH  15  16
ATOM     16  C   UNL     1       9.110   9.834  19.278  0.00  0.00    +0.000 C 
BRANCH  16  17
ATOM     17  C   UNL     1       9.765  11.164  18.928  0.00  0.00    +0.000 A 
ATOM     18  C   UNL     1      10.306  11.308  17.644  0.00  0.00    +0.000 A 
ATOM     19  C   UNL     1      10.932  12.493  17.313  0.00  0.00    +0.000 A 
ATOM     20  N   UNL     1      11.068  13.533  18.158  0.00  0.00    +0.000 NA
ATOM     21  C   UNL     1      10.543  13.418  19.388  0.00  0.00    +0.000 A 
ATOM     22  C   UNL     1      10.683  14.496  20.253  0.00  0.00    +0.000 A 
ATOM     23  C   UNL     1      10.161  14.478  21.546  0.00  0.00    +0.000 A 
ATOM     24  C   UNL     1       9.476  13.357  21.990  0.00  0.00    +0.000 A 
ATOM     25  C   UNL     1       9.331  12.255  21.143  0.00  0.00    +0.000 A 
ATOM     26  C   UNL     1       9.863  12.255  19.831  0.00  0.00    +0.000 A 
ENDBRANCH  16  17
ENDBRANCH  15  16
ENDBRANCH   2  15
TORSDOF 4
ENDMDL
MODEL 5
REMARK VINA RESULT:      -8.0      1.910      3.179
REMARK  Name = 
REMARK  4 active torsions:
REMARK  status: ('A' for Active; 'I' for Inactive)
REMARK    1  A    between atoms: C_2  and  C_3
REMARK    2  A    between atoms: C_3  and  C_4
REMARK    3  A    between atoms: C_4  and  C_5
REMARK    4  A    between atoms: N_15  and  C_16
REMARK                            x       y       z     vdW  Elec       q    Type
REMARK                         _______ _______ _______ _____ _____    ______ ____
ROOT
ATOM      1  O   UNL     1       2.149   7.493  19.673  0.00  0.00    +0.000 OA
ATOM      2  C   UNL     1       2.471   7.869  18.556  0.00  0.00    +0.000 C 
ATOM      3  N   UNL     1       3.398   7.199  17.789  0.00  0.00    +0.000 N 
ATOM      4  H   UNL     1       3.666   7.606  16.913  0.00  0.00    +0.000 HD
ENDROOT
BRANCH   3   5
ATOM      5  C   UNL     1       4.229   6.051  18.328  0.00  0.00    +0.000 C 
ATOM      6  C   UNL     1       5.564   5.954  17.530  0.00  0.00    +0.000 C 
ATOM      7  C   UNL     1       6.761   5.056  17.865  0.00  0.00    +0.000 C 
ATOM      8  C   UNL     1       7.067   4.448  16.501  0.00  0.00    +0.000 C 
ATOM      9  O   UNL     1       5.760   4.035  16.047  0.00  0.00    +0.000 OA
ATOM     10  C   UNL     1       4.803   5.014  16.523  0.00  0.00    +0.000 C 
ATOM     11  C   UNL     1       3.863   4.712  17.680  0.00  0.00    +0.000 C 
ATOM     12  C   UNL     1       2.374   4.422  17.560  0.00  0.00    +0.000 C 
ATOM     13  C   UNL     1       2.546   3.631  18.892  0.00  0.00    +0.000 C 
ATOM     14  C   UNL     1       4.015   3.414  18.467  0.00  0.00    +0.000 C 
ENDBRANCH   3   5
BRANCH   2  15
ATOM     15  C   UNL     1       1.957   9.199  17.995  0.00  0.00    +0.000 C 
BRANCH  15  16
ATOM     16  C   UNL     1       0.456   9.464  18.090  0.00  0.00    +0.000 C 
BRANCH  16  17
ATOM     17  C   UNL     1       0.123  10.590  19.062  0.00  0.00    +0.000 A 
ATOM     18  C   UNL     1       0.112  11.899  18.567  0.00  0.00    +0.000 A 
ATOM     19  C   UNL     1      -0.156  12.939  19.435  0.00  0.00    +0.000 A 
ATOM     20  N   UNL     1      -0.403  12.776  20.748  0.00  0.00    +0.000 NA
ATOM     21  C   UNL     1      -0.412  11.526  21.238  0.00  0.00    +0.000 A 
ATOM     22  C   UNL     1      -0.672  11.365  22.593  0.00  0.00    +0.000 A 
ATOM     23  C   UNL     1      -0.716  10.107  23.192  0.00  0.00    +0.000 A 
ATOM     24  C   UNL     1      -0.498   8.975  22.420  0.00  0.00    +0.000 A 
ATOM     25  C   UNL     1      -0.223   9.111  21.057  0.00  0.00    +0.000 A 
ATOM     26  C   UNL     1      -0.167  10.382  20.436  0.00  0.00    +0.000 A 
ENDBRANCH  16  17
ENDBRANCH  15  16
ENDBRANCH   2  15
TORSDOF 4
ENDMDL
MODEL 6
REMARK VINA RESULT:      -7.8      1.672      2.497
REMARK  Name = 
REMARK  4 active torsions:
REMARK  status: ('A' for Active; 'I' for Inactive)
REMARK    1  A    between atoms: C_2  and  C_3
REMARK    2  A    between atoms: C_3  and  C_4
REMARK    3  A    between atoms: C_4  and  C_5
REMARK    4  A    between atoms: N_15  and  C_16
REMARK                            x       y       z     vdW  Elec       q    Type
REMARK                         _______ _______ _______ _____ _____    ______ ____
ROOT
ATOM      1  O   UNL     1       1.415   4.538  20.857  0.00  0.00    +0.000 OA
ATOM      2  C   UNL     1       1.709   5.688  20.566  0.00  0.00    +0.000 C 
ATOM      3  N   UNL     1       2.786   5.996  19.765  0.00  0.00    +0.000 N 
ATOM      4  H   UNL     1       3.009   6.963  19.629  0.00  0.00    +0.000 HD
ENDROOT
BRANCH   3   5
ATOM      5  C   UNL     1       3.801   4.959  19.325  0.00  0.00    +0.000 C 
ATOM      6  C   UNL     1       5.073   5.673  18.779  0.00  0.00    +0.000 C 
ATOM      7  C   UNL     1       6.401   5.005  18.403  0.00  0.00    +0.000 C 
ATOM      8  C   UNL     1       6.683   5.646  17.049  0.00  0.00    +0.000 C 
ATOM      9  O   UNL     1       5.413   5.515  16.375  0.00  0.00    +0.000 OA
ATOM     10  C   UNL     1       4.371   5.677  17.370  0.00  0.00    +0.000 C 
ATOM     11  C   UNL     1       3.569   4.492  17.885  0.00  0.00    +0.000 C 
ATOM     12  C   UNL     1       2.128   4.171  17.518  0.00  0.00    +0.000 C 
ATOM     13  C   UNL     1       2.503   2.693  17.845  0.00  0.00    +0.000 C 
ATOM     14  C   UNL     1       3.952   3.074  17.469  0.00  0.00    +0.000 C 
ENDBRANCH   3   5
BRANCH   2  15
ATOM     15  C   UNL     1       0.970   6.873  21.198  0.00  0.00    +0.000 C 
BRANCH  15  16
ATOM     16  C   UNL     1       1.680   8.225  21.186  0.00  0.00    +0.000 C 
BRANCH  16  17
ATOM     17  C   UNL     1       0.867   9.305  20.483  0.00  0.00    +0.000 A 
ATOM     18  C   UNL     1       1.036   9.456  19.101  0.00  0.00    +0.000 A 
ATOM     19  C   UNL     1       0.334  10.448  18.447  0.00  0.00    +0.000 A 
ATOM     20  N   UNL     1      -0.511  11.300  19.059  0.00  0.00    +0.000 NA
ATOM     21  C   UNL     1      -0.697  11.161  20.382  0.00  0.00    +0.000 A 
ATOM     22  C   UNL     1      -1.572  12.040  21.006  0.00  0.00    +0.000 A 
ATOM     23  C   UNL     1      -1.842  11.967  22.372  0.00  0.00    +0.000 A 
ATOM     24  C   UNL     1      -1.225  10.990  23.139  0.00  0.00    +0.000 A 
ATOM     25  C   UNL     1      -0.332  10.100  22.536  0.00  0.00    +0.000 A 
ATOM     26  C   UNL     1      -0.042  10.166  21.153  0.00  0.00    +0.000 A 
ENDBRANCH  16  17
ENDBRANCH  15  16
ENDBRANCH   2  15
TORSDOF 4
ENDMDL
MODEL 7
REMARK VINA RESULT:      -7.7      1.938      3.299
REMARK  Name = 
REMARK  4 active torsions:
REMARK  status: ('A' for Active; 'I' for Inactive)
REMARK    1  A    between atoms: C_2  and  C_3
REMARK    2  A    between atoms: C_3  and  C_4
REMARK    3  A    between atoms: C_4  and  C_5
REMARK    4  A    between atoms: N_15  and  C_16
REMARK                            x       y       z     vdW  Elec       q    Type
REMARK                         _______ _______ _______ _____ _____    ______ ____
ROOT
ATOM      1  O   UNL     1       1.494   4.748  20.844  0.00  0.00    +0.000 OA
ATOM      2  C   UNL     1       1.916   5.867  20.595  0.00  0.00    +0.000 C 
ATOM      3  N   UNL     1       2.999   6.084  19.772  0.00  0.00    +0.000 N 
ATOM      4  H   UNL     1       3.333   7.023  19.672  0.00  0.00    +0.000 HD
ENDROOT
BRANCH   3   5
ATOM      5  C   UNL     1       3.869   4.956  19.253  0.00  0.00    +0.000 C 
ATOM      6  C   UNL     1       5.167   5.545  18.624  0.00  0.00    +0.000 C 
ATOM      7  C   UNL     1       6.390   4.752  18.149  0.00  0.00    +0.000 C 
ATOM      8  C   UNL     1       6.641   5.381  16.783  0.00  0.00    +0.000 C 
ATOM      9  O   UNL     1       5.320   5.390  16.201  0.00  0.00    +0.000 OA
ATOM     10  C   UNL     1       4.372   5.641  17.268  0.00  0.00    +0.000 C 
ATOM     11  C   UNL     1       3.491   4.536  17.829  0.00  0.00    +0.000 C 
ATOM     12  C   UNL     1       2.003   4.368  17.563  0.00  0.00    +0.000 C 
ATOM     13  C   UNL     1       2.246   2.856  17.851  0.00  0.00    +0.000 C 
ATOM     14  C   UNL     1       3.697   3.094  17.376  0.00  0.00    +0.000 C 
ENDBRANCH   3   5
BRANCH   2  15
ATOM     15  C   UNL     1       1.342   7.100  21.302  0.00  0.00    +0.000 C 
BRANCH  15  16
ATOM     16  C   UNL     1       1.263   8.395  20.495  0.00  0.00    +0.000 C 
BRANCH  16  17
ATOM     17  C   UNL     1       0.383   9.444  21.163  0.00  0.00    +0.000 A 
ATOM     18  C   UNL     1       0.145   9.321  22.537  0.00  0.00    +0.000 A 
ATOM     19  C   UNL     1      -0.674  10.242  23.158  0.00  0.00    +0.000 A 
ATOM     20  N   UNL     1      -1.276  11.263  22.519  0.00  0.00    +0.000 NA
ATOM     21  C   UNL     1      -1.048  11.406  21.204  0.00  0.00    +0.000 A 
ATOM     22  C   UNL     1      -1.670  12.464  20.552  0.00  0.00    +0.000 A 
ATOM     23  C   UNL     1      -1.484  12.703  19.191  0.00  0.00    +0.000 A 
ATOM     24  C   UNL     1      -0.655  11.869  18.458  0.00  0.00    +0.000 A 
ATOM     25  C   UNL     1      -0.027  10.791  19.088  0.00  0.00    +0.000 A 
ATOM     26  C   UNL     1      -0.211  10.530  20.466  0.00  0.00    +0.000 A 
ENDBRANCH  16  17
ENDBRANCH  15  16
ENDBRANCH   2  15
TORSDOF 4
ENDMDL
MODEL 8
REMARK VINA RESULT:      -7.7      2.716      4.775
REMARK  Name = 
REMARK  4 active torsions:
REMARK  status: ('A' for Active; 'I' for Inactive)
REMARK    1  A    between atoms: C_2  and  C_3
REMARK    2  A    between atoms: C_3  and  C_4
REMARK    3  A    between atoms: C_4  and  C_5
REMARK    4  A    between atoms: N_15  and  C_16
REMARK                            x       y       z     vdW  Elec       q    Type
REMARK                         _______ _______ _______ _____ _____    ______ ____
ROOT
ATOM      1  O   UNL     1       3.777   7.691  17.078  0.00  0.00    +0.000 OA
ATOM      2  C   UNL     1       2.883   7.704  17.911  0.00  0.00    +0.000 C 
ATOM      3  N   UNL     1       2.398   6.554  18.494  0.00  0.00    +0.000 N 
ATOM      4  H   UNL     1       1.615   6.635  19.114  0.00  0.00    +0.000 HD
ENDROOT
BRANCH   3   5
ATOM      5  C   UNL     1       2.800   5.169  18.028  0.00  0.00    +0.000 C 
ATOM      6  C   UNL     1       1.783   4.120  18.568  0.00  0.00    +0.000 C 
ATOM      7  C   UNL     1       1.714   2.637  18.185  0.00  0.00    +0.000 C 
ATOM      8  C   UNL     1       1.588   1.982  19.556  0.00  0.00    +0.000 C 
ATOM      9  O   UNL     1       2.623   2.646  20.312  0.00  0.00    +0.000 OA
ATOM     10  C   UNL     1       2.687   4.019  19.853  0.00  0.00    +0.000 C 
ATOM     11  C   UNL     1       3.819   4.511  18.964  0.00  0.00    +0.000 C 
ATOM     12  C   UNL     1       4.974   5.396  19.409  0.00  0.00    +0.000 C 
ATOM     13  C   UNL     1       5.765   4.745  18.233  0.00  0.00    +0.000 C 
ATOM     14  C   UNL     1       4.839   3.520  18.411  0.00  0.00    +0.000 C 
ENDBRANCH   3   5
BRANCH   2  15
ATOM     15  C   UNL     1       2.146   9.003  18.254  0.00  0.00    +0.000 C 
BRANCH  15  16
ATOM     16  C   UNL     1       0.776   9.219  17.613  0.00  0.00    +0.000 C 
BRANCH  16  17
ATOM     17  C   UNL     1      -0.094  10.184  18.409  0.00  0.00    +0.000 A 
ATOM     18  C   UNL     1       0.454  10.761  19.562  0.00  0.00    +0.000 A 
ATOM     19  C   UNL     1      -0.325  11.614  20.317  0.00  0.00    +0.000 A 
ATOM     20  N   UNL     1      -1.600  11.928  20.020  0.00  0.00    +0.000 NA
ATOM     21  C   UNL     1      -2.138  11.396  18.910  0.00  0.00    +0.000 A 
ATOM     22  C   UNL     1      -3.453  11.728  18.607  0.00  0.00    +0.000 A 
ATOM     23  C   UNL     1      -4.094  11.238  17.471  0.00  0.00    +0.000 A 
ATOM     24  C   UNL     1      -3.408  10.396  16.608  0.00  0.00    +0.000 A 
ATOM     25  C   UNL     1      -2.088  10.039  16.897  0.00  0.00    +0.000 A 
ATOM     26  C   UNL     1      -1.426  10.521  18.050  0.00  0.00    +0.000 A 
ENDBRANCH  16  17
ENDBRANCH  15  16
ENDBRANCH   2  15
TORSDOF 4
ENDMDL
MODEL 9
REMARK VINA RESULT:      -7.6      2.912      7.894
REMARK  Name = 
REMARK  4 active torsions:
REMARK  status: ('A' for Active; 'I' for Inactive)
REMARK    1  A    between atoms: C_2  and  C_3
REMARK    2  A    between atoms: C_3  and  C_4
REMARK    3  A    between atoms: C_4  and  C_5
REMARK    4  A    between atoms: N_15  and  C_16
REMARK                            x       y       z     vdW  Elec       q    Type
REMARK                         _______ _______ _______ _____ _____    ______ ____
ROOT
ATOM      1  O   UNL     1       2.663  10.622  17.939  0.00  0.00    +0.000 OA
ATOM      2  C   UNL     1       1.866   9.707  17.796  0.00  0.00    +0.000 C 
ATOM      3  N   UNL     1       0.508   9.878  17.950  0.00  0.00    +0.000 N 
ATOM      4  H   UNL     1      -0.078   9.068  17.890  0.00  0.00    +0.000 HD
ENDROOT
BRANCH   3   5
ATOM      5  C   UNL     1      -0.099  11.162  18.483  0.00  0.00    +0.000 C 
ATOM      6  C   UNL     1       0.361  11.384  19.955  0.00  0.00    +0.000 C 
ATOM      7  C   UNL     1       0.127  12.642  20.801  0.00  0.00    +0.000 C 
ATOM      8  C   UNL     1      -0.373  12.032  22.106  0.00  0.00    +0.000 C 
ATOM      9  O   UNL     1      -1.363  11.088  21.646  0.00  0.00    +0.000 OA
ATOM     10  C   UNL     1      -0.892  10.536  20.391  0.00  0.00    +0.000 C 
ATOM     11  C   UNL     1      -1.501  10.947  19.060  0.00  0.00    +0.000 C 
ATOM     12  C   UNL     1      -2.440  10.099  18.216  0.00  0.00    +0.000 C 
ATOM     13  C   UNL     1      -2.971  11.457  17.662  0.00  0.00    +0.000 C 
ATOM     14  C   UNL     1      -2.530  12.073  19.009  0.00  0.00    +0.000 C 
ENDBRANCH   3   5
BRANCH   2  15
ATOM     15  C   UNL     1       2.349   8.270  17.573  0.00  0.00    +0.000 C 
BRANCH  15  16
ATOM     16  C   UNL     1       2.563   7.404  18.813  0.00  0.00    +0.000 C 
BRANCH  16  17
ATOM     17  C   UNL     1       3.029   5.995  18.467  0.00  0.00    +0.000 A 
ATOM     18  C   UNL     1       3.999   5.854  17.467  0.00  0.00    +0.000 A 
ATOM     19  C   UNL     1       4.415   4.586  17.115  0.00  0.00    +0.000 A 
ATOM     20  N   UNL     1       3.937   3.457  17.670  0.00  0.00    +0.000 NA
ATOM     21  C   UNL     1       3.016   3.573  18.641  0.00  0.00    +0.000 A 
ATOM     22  C   UNL     1       2.530   2.404  19.213  0.00  0.00    +0.000 A 
ATOM     23  C   UNL     1       1.584   2.421  20.237  0.00  0.00    +0.000 A 
ATOM     24  C   UNL     1       1.110   3.636  20.708  0.00  0.00    +0.000 A 
ATOM     25  C   UNL     1       1.575   4.826  20.141  0.00  0.00    +0.000 A 
ATOM     26  C   UNL     1       2.529   4.825  19.096  0.00  0.00    +0.000 A 
ENDBRANCH  16  17
ENDBRANCH  15  16
ENDBRANCH   2  15
TORSDOF 4
ENDMDL
