MODEL 1
REMARK VINA RESULT:      -7.5      0.000      0.000
REMARK  Name = 
REMARK  5 active torsions:
REMARK  status: ('A' for Active; 'I' for Inactive)
REMARK    1  A    between atoms: C_2  and  C_3
REMARK    2  A    between atoms: C_2  and  C_13
REMARK    3  A    between atoms: C_3  and  C_4
REMARK    4  A    between atoms: N_6  and  C_7
REMARK    5  A    between atoms: C_13  and  C_14
REMARK                            x       y       z     vdW  Elec       q    Type
REMARK                         _______ _______ _______ _____ _____    ______ ____
ROOT
ATOM      1  C   UNL     1       5.230   5.701  17.490  0.00  0.00    +0.000 C 
ENDROOT
BRANCH   1   2
ATOM      2  C   UNL     1       6.090   4.885  16.560  0.00  0.00    +0.000 C 
ATOM      3  O   UNL     1       7.097   4.283  16.926  0.00  0.00    +0.000 OA
ATOM      4  N   UNL     1       5.619   4.813  15.266  0.00  0.00    +0.000 N 
ATOM      5  H   UNL     1       4.980   5.529  14.928  0.00  0.00    +0.000 HD
BRANCH   4   6
ATOM      6  C   UNL     1       6.329   4.035  14.258  0.00  0.00    +0.000 C 
ATOM      7  C   UNL     1       5.445   3.601  13.109  0.00  0.00    +0.000 C 
ATOM      8  C   UNL     1       6.420   3.479  11.968  0.00  0.00    +0.000 C 
ATOM      9  O   UNL     1       7.415   4.476  12.202  0.00  0.00    +0.000 OA
ATOM     10  C   UNL     1       7.386   4.839  13.521  0.00  0.00    +0.000 C 
ATOM     11  O   UNL     1       8.115   5.682  14.021  0.00  0.00    +0.000 OA
ENDBRANCH   4   6
ENDBRANCH   1   2
BRANCH   1  13
ATOM     12  O   UNL     1       6.170   5.517  19.680  0.00  0.00    +0.000 OA
ATOM     13  C   UNL     1       5.237   5.227  18.929  0.00  0.00    +0.000 C 
BRANCH  13  14
ATOM     14  C   UNL     1       4.036   4.419  19.407  0.00  0.00    +0.000 C 
BRANCH  14  15
ATOM     15  C   UNL     1       2.665   5.080  19.152  0.00  0.00    +0.000 C 
ATOM     16  C   UNL     1       1.861   4.404  18.027  0.00  0.00    +0.000 C 
ATOM     17  C   UNL     1       1.368   3.009  18.404  0.00  0.00    +0.000 C 
ATOM     18  C   UNL     1       0.573   3.021  19.708  0.00  0.00    +0.000 C 
ATOM     19  C   UNL     1       1.339   3.696  20.844  0.00  0.00    +0.000 C 
ATOM     20  C   UNL     1       1.822   5.091  20.444  0.00  0.00    +0.000 C 
ENDBRANCH  14  15
ENDBRANCH  13  14
ENDBRANCH   1  13
TORSDOF 5
ENDMDL
MODEL 2
REMARK VINA RESULT:      -7.4      1.004      1.676
REMARK  Name = 
REMARK  5 active torsions:
REMARK  status: ('A' for Active; 'I' for Inactive)
REMARK    1  A    between atoms: C_2  and  C_3
REMARK    2  A    between atoms: C_2  and  C_13
REMARK    3  A    between atoms: C_3  and  C_4
REMARK    4  A    between atoms: N_6  and  C_7
REMARK    5  A    between atoms: C_13  and  C_14
REMARK                            x       y       z     vdW  Elec       q    Type
REMARK                         _______ _______ _______ _____ _____    ______ ____
ROOT
ATOM      1  C   UNL     1       6.491   6.365  17.636  0.00  0.00    +0.000 C 
ENDROOT
BRANCH   1   2
ATOM      2  C   UNL     1       6.999   5.303  16.695  0.00  0.00    +0.000 C 
ATOM      3  O   UNL     1       7.674   4.344  17.061  0.00  0.00    +0.000 OA
ATOM      4  N   UNL     1       6.589   5.457  15.387  0.00  0.00    +0.000 N 
ATOM      5  H   UNL     1       6.294   6.376  15.064  0.00  0.00    +0.000 HD
BRANCH   4   6
ATOM      6  C   UNL     1       6.976   4.491  14.367  0.00  0.00    +0.000 C 
ATOM      7  C   UNL     1       5.797   3.928  13.603  0.00  0.00    +0.000 C 
ATOM      8  C   UNL     1       6.405   3.573  12.271  0.00  0.00    +0.000 C 
ATOM      9  O   UNL     1       7.432   4.540  12.045  0.00  0.00    +0.000 OA
ATOM     10  C   UNL     1       7.783   5.109  13.239  0.00  0.00    +0.000 C 
ATOM     11  O   UNL     1       8.630   5.981  13.364  0.00  0.00    +0.000 OA
ENDBRANCH   4   6
ENDBRANCH   1   2
BRANCH   1  13
ATOM     12  O   UNL     1       6.699   5.553  19.874  0.00  0.00    +0.000 OA
ATOM     13  C   UNL     1       5.941   5.835  18.944  0.00  0.00    +0.000 C 
BRANCH  13  14
ATOM     14  C   UNL     1       4.428   5.702  19.065  0.00  0.00    +0.000 C 
BRANCH  14  15
ATOM     15  C   UNL     1       3.942   4.406  19.749  0.00  0.00    +0.000 C 
ATOM     16  C   UNL     1       2.414   4.342  19.921  0.00  0.00    +0.000 C 
ATOM     17  C   UNL     1       1.673   4.183  18.595  0.00  0.00    +0.000 C 
ATOM     18  C   UNL     1       2.181   2.983  17.801  0.00  0.00    +0.000 C 
ATOM     19  C   UNL     1       3.697   3.010  17.622  0.00  0.00    +0.000 C 
ATOM     20  C   UNL     1       4.418   3.169  18.961  0.00  0.00    +0.000 C 
ENDBRANCH  14  15
ENDBRANCH  13  14
ENDBRANCH   1  13
TORSDOF 5
ENDMDL
MODEL 3
REMARK VINA RESULT:      -7.2      1.348      1.756
REMARK  Name = 
REMARK  5 active torsions:
REMARK  status: ('A' for Active; 'I' for Inactive)
REMARK    1  A    between atoms: C_2  and  C_3
REMARK    2  A    between atoms: C_2  and  C_13
REMARK    3  A    between atoms: C_3  and  C_4
REMARK    4  A    between atoms: N_6  and  C_7
REMARK    5  A    between atoms: C_13  and  C_14
REMARK                            x       y       z     vdW  Elec       q    Type
REMARK                         _______ _______ _______ _____ _____    ______ ____
ROOT
ATOM      1  C   UNL     1       5.863   6.738  17.072  0.00  0.00    +0.000 C 
ENDROOT
BRANCH   1   2
ATOM      2  C   UNL     1       6.468   5.580  16.322  0.00  0.00    +0.000 C 
ATOM      3  O   UNL     1       7.077   4.664  16.871  0.00  0.00    +0.000 OA
ATOM      4  N   UNL     1       6.228   5.593  14.964  0.00  0.00    +0.000 N 
ATOM      5  H   UNL     1       5.991   6.472  14.509  0.00  0.00    +0.000 HD
BRANCH   4   6
ATOM      6  C   UNL     1       6.725   4.522  14.110  0.00  0.00    +0.000 C 
ATOM      7  C   UNL     1       5.640   3.865  13.285  0.00  0.00    +0.000 C 
ATOM      8  C   UNL     1       6.394   3.368  12.080  0.00  0.00    +0.000 C 
ATOM      9  O   UNL     1       7.444   4.312  11.864  0.00  0.00    +0.000 OA
ATOM     10  C   UNL     1       7.659   5.015  13.018  0.00  0.00    +0.000 C 
ATOM     11  O   UNL     1       8.489   5.903  13.140  0.00  0.00    +0.000 OA
ENDBRANCH   4   6
ENDBRANCH   1   2
BRANCH   1  13
ATOM     12  O   UNL     1       3.664   7.584  17.475  0.00  0.00    +0.000 OA
ATOM     13  C   UNL     1       4.385   6.590  17.370  0.00  0.00    +0.000 C 
BRANCH  13  14
ATOM     14  C   UNL     1       3.834   5.175  17.497  0.00  0.00    +0.000 C 
BRANCH  14  15
ATOM     15  C   UNL     1       3.444   4.755  18.930  0.00  0.00    +0.000 C 
ATOM     16  C   UNL     1       1.927   4.578  19.123  0.00  0.00    +0.000 C 
ATOM     17  C   UNL     1       1.370   3.367  18.379  0.00  0.00    +0.000 C 
ATOM     18  C   UNL     1       2.117   2.086  18.741  0.00  0.00    +0.000 C 
ATOM     19  C   UNL     1       3.627   2.231  18.571  0.00  0.00    +0.000 C 
ATOM     20  C   UNL     1       4.163   3.449  19.325  0.00  0.00    +0.000 C 
ENDBRANCH  14  15
ENDBRANCH  13  14
ENDBRANCH   1  13
TORSDOF 5
ENDMDL
MODEL 4
REMARK VINA RESULT:      -7.2      0.813      1.293
REMARK  Name = 
REMARK  5 active torsions:
REMARK  status: ('A' for Active; 'I' for Inactive)
REMARK    1  A    between atoms: C_2  and  C_3
REMARK    2  A    between atoms: C_2  and  C_13
REMARK    3  A    between atoms: C_3  and  C_4
REMARK    4  A    between atoms: N_6  and  C_7
REMARK    5  A    between atoms: C_13  and  C_14
REMARK                            x       y       z     vdW  Elec       q    Type
REMARK                         _______ _______ _______ _____ _____    ______ ____
ROOT
ATOM      1  C   UNL     1       4.921   5.741  17.393  0.00  0.00    +0.000 C 
ENDROOT
BRANCH   1   2
ATOM      2  C   UNL     1       5.811   4.883  16.530  0.00  0.00    +0.000 C 
ATOM      3  O   UNL     1       6.740   4.213  16.975  0.00  0.00    +0.000 OA
ATOM      4  N   UNL     1       5.459   4.858  15.197  0.00  0.00    +0.000 N 
ATOM      5  H   UNL     1       4.899   5.617  14.816  0.00  0.00    +0.000 HD
BRANCH   4   6
ATOM      6  C   UNL     1       6.208   4.049  14.244  0.00  0.00    +0.000 C 
ATOM      7  C   UNL     1       5.386   3.622  13.048  0.00  0.00    +0.000 C 
ATOM      8  C   UNL     1       6.426   3.460  11.972  0.00  0.00    +0.000 C 
ATOM      9  O   UNL     1       7.431   4.435  12.255  0.00  0.00    +0.000 OA
ATOM     10  C   UNL     1       7.330   4.815  13.565  0.00  0.00    +0.000 C 
ATOM     11  O   UNL     1       8.048   5.646  14.099  0.00  0.00    +0.000 OA
ENDBRANCH   4   6
ENDBRANCH   1   2
BRANCH   1  13
ATOM     12  O   UNL     1       6.118   5.611  19.457  0.00  0.00    +0.000 OA
ATOM     13  C   UNL     1       5.039   5.473  18.879  0.00  0.00    +0.000 C 
BRANCH  13  14
ATOM     14  C   UNL     1       3.771   5.065  19.620  0.00  0.00    +0.000 C 
BRANCH  14  15
ATOM     15  C   UNL     1       3.153   3.726  19.163  0.00  0.00    +0.000 C 
ATOM     16  C   UNL     1       3.435   2.562  20.130  0.00  0.00    +0.000 C 
ATOM     17  C   UNL     1       2.699   2.703  21.460  0.00  0.00    +0.000 C 
ATOM     18  C   UNL     1       1.198   2.893  21.261  0.00  0.00    +0.000 C 
ATOM     19  C   UNL     1       0.883   4.034  20.297  0.00  0.00    +0.000 C 
ATOM     20  C   UNL     1       1.630   3.872  18.972  0.00  0.00    +0.000 C 
ENDBRANCH  14  15
ENDBRANCH  13  14
ENDBRANCH   1  13
TORSDOF 5
ENDMDL
MODEL 5
REMARK VINA RESULT:      -7.2      0.774      1.461
REMARK  Name = 
REMARK  5 active torsions:
REMARK  status: ('A' for Active; 'I' for Inactive)
REMARK    1  A    between atoms: C_2  and  C_3
REMARK    2  A    between atoms: C_2  and  C_13
REMARK    3  A    between atoms: C_3  and  C_4
REMARK    4  A    between atoms: N_6  and  C_7
REMARK    5  A    between atoms: C_13  and  C_14
REMARK                            x       y       z     vdW  Elec       q    Type
REMARK                         _______ _______ _______ _____ _____    ______ ____
ROOT
ATOM      1  C   UNL     1       4.849   5.818  17.443  0.00  0.00    +0.000 C 
ENDROOT
BRANCH   1   2
ATOM      2  C   UNL     1       5.627   4.836  16.605  0.00  0.00    +0.000 C 
ATOM      3  O   UNL     1       6.283   3.913  17.082  0.00  0.00    +0.000 OA
ATOM      4  N   UNL     1       5.493   5.017  15.244  0.00  0.00    +0.000 N 
ATOM      5  H   UNL     1       5.203   5.926  14.890  0.00  0.00    +0.000 HD
BRANCH   4   6
ATOM      6  C   UNL     1       6.163   4.126  14.306  0.00  0.00    +0.000 C 
ATOM      7  C   UNL     1       5.262   3.655  13.185  0.00  0.00    +0.000 C 
ATOM      8  C   UNL     1       6.234   3.392  12.066  0.00  0.00    +0.000 C 
ATOM      9  O   UNL     1       7.283   4.348  12.233  0.00  0.00    +0.000 OA
ATOM     10  C   UNL     1       7.267   4.811  13.520  0.00  0.00    +0.000 C 
ATOM     11  O   UNL     1       8.040   5.648  13.961  0.00  0.00    +0.000 OA
ENDBRANCH   4   6
ENDBRANCH   1   2
BRANCH   1  13
ATOM     12  O   UNL     1       5.823   5.573  19.611  0.00  0.00    +0.000 OA
ATOM     13  C   UNL     1       4.806   5.488  18.921  0.00  0.00    +0.000 C 
BRANCH  13  14
ATOM     14  C   UNL     1       3.460   5.086  19.510  0.00  0.00    +0.000 C 
BRANCH  14  15
ATOM     15  C   UNL     1       3.371   3.621  19.989  0.00  0.00    +0.000 C 
ATOM     16  C   UNL     1       2.111   3.326  20.821  0.00  0.00    +0.000 C 
ATOM     17  C   UNL     1       0.828   3.366  19.993  0.00  0.00    +0.000 C 
ATOM     18  C   UNL     1       0.907   2.443  18.780  0.00  0.00    +0.000 C 
ATOM     19  C   UNL     1       2.153   2.703  17.937  0.00  0.00    +0.000 C 
ATOM     20  C   UNL     1       3.424   2.657  18.786  0.00  0.00    +0.000 C 
ENDBRANCH  14  15
ENDBRANCH  13  14
ENDBRANCH   1  13
TORSDOF 5
ENDMDL
MODEL 6
REMARK VINA RESULT:      -7.1      1.405      1.710
REMARK  Name = 
REMARK  5 active torsions:
REMARK  status: ('A' for Active; 'I' for Inactive)
REMARK    1  A    between atoms: C_2  and  C_3
REMARK    2  A    between atoms: C_2  and  C_13
REMARK    3  A    between atoms: C_3  and  C_4
REMARK    4  A    between atoms: N_6  and  C_7
REMARK    5  A    between atoms: C_13  and  C_14
REMARK                            x       y       z     vdW  Elec       q    Type
REMARK                         _______ _______ _______ _____ _____    ______ ____
ROOT
ATOM      1  C   UNL     1       5.489   5.235  19.457  0.00  0.00    +0.000 C 
ENDROOT
BRANCH   1   2
ATOM      2  C   UNL     1       6.328   4.741  18.306  0.00  0.00    +0.000 C 
ATOM      3  O   UNL     1       7.507   4.415  18.421  0.00  0.00    +0.000 OA
ATOM      4  N   UNL     1       5.645   4.622  17.114  0.00  0.00    +0.000 N 
ATOM      5  H   UNL     1       4.790   5.157  16.975  0.00  0.00    +0.000 HD
BRANCH   4   6
ATOM      6  C   UNL     1       6.316   4.129  15.918  0.00  0.00    +0.000 C 
ATOM      7  C   UNL     1       5.355   3.680  14.838  0.00  0.00    +0.000 C 
ATOM      8  C   UNL     1       6.151   3.893  13.577  0.00  0.00    +0.000 C 
ATOM      9  O   UNL     1       6.982   5.027  13.832  0.00  0.00    +0.000 OA
ATOM     10  C   UNL     1       7.092   5.208  15.183  0.00  0.00    +0.000 C 
ATOM     11  O   UNL     1       7.732   6.107  15.708  0.00  0.00    +0.000 OA
ENDBRANCH   4   6
ENDBRANCH   1   2
BRANCH   1  13
ATOM     12  O   UNL     1       3.999   6.540  18.120  0.00  0.00    +0.000 OA
ATOM     13  C   UNL     1       4.122   5.753  19.061  0.00  0.00    +0.000 C 
BRANCH  13  14
ATOM     14  C   UNL     1       2.922   5.237  19.845  0.00  0.00    +0.000 C 
BRANCH  14  15
ATOM     15  C   UNL     1       1.765   4.692  18.981  0.00  0.00    +0.000 C 
ATOM     16  C   UNL     1       2.242   3.861  17.776  0.00  0.00    +0.000 C 
ATOM     17  C   UNL     1       2.861   2.526  18.183  0.00  0.00    +0.000 C 
ATOM     18  C   UNL     1       1.922   1.711  19.068  0.00  0.00    +0.000 C 
ATOM     19  C   UNL     1       1.421   2.511  20.268  0.00  0.00    +0.000 C 
ATOM     20  C   UNL     1       0.805   3.843  19.837  0.00  0.00    +0.000 C 
ENDBRANCH  14  15
ENDBRANCH  13  14
ENDBRANCH   1  13
TORSDOF 5
ENDMDL
MODEL 7
REMARK VINA RESULT:      -7.1      1.230      1.277
REMARK  Name = 
REMARK  5 active torsions:
REMARK  status: ('A' for Active; 'I' for Inactive)
REMARK    1  A    between atoms: C_2  and  C_3
REMARK    2  A    between atoms: C_2  and  C_13
REMARK    3  A    between atoms: C_3  and  C_4
REMARK    4  A    between atoms: N_6  and  C_7
REMARK    5  A    between atoms: C_13  and  C_14
REMARK                            x       y       z     vdW  Elec       q    Type
REMARK                         _______ _______ _______ _____ _____    ______ ____
ROOT
ATOM      1  C   UNL     1       5.610   6.281  17.545  0.00  0.00    +0.000 C 
ENDROOT
BRANCH   1   2
ATOM      2  C   UNL     1       5.939   5.125  16.635  0.00  0.00    +0.000 C 
ATOM      3  O   UNL     1       5.667   3.958  16.903  0.00  0.00    +0.000 OA
ATOM      4  N   UNL     1       6.516   5.491  15.437  0.00  0.00    +0.000 N 
ATOM      5  H   UNL     1       6.985   6.391  15.365  0.00  0.00    +0.000 HD
BRANCH   4   6
ATOM      6  C   UNL     1       6.864   4.485  14.442  0.00  0.00    +0.000 C 
ATOM      7  C   UNL     1       5.664   3.951  13.690  0.00  0.00    +0.000 C 
ATOM      8  C   UNL     1       6.257   3.539  12.369  0.00  0.00    +0.000 C 
ATOM      9  O   UNL     1       7.323   4.457  12.120  0.00  0.00    +0.000 OA
ATOM     10  C   UNL     1       7.697   5.041  13.300  0.00  0.00    +0.000 C 
ATOM     11  O   UNL     1       8.578   5.880  13.405  0.00  0.00    +0.000 OA
ENDBRANCH   4   6
ENDBRANCH   1   2
BRANCH   1  13
ATOM     12  O   UNL     1       3.419   7.210  17.324  0.00  0.00    +0.000 OA
ATOM     13  C   UNL     1       4.143   6.400  17.905  0.00  0.00    +0.000 C 
BRANCH  13  14
ATOM     14  C   UNL     1       3.606   5.460  18.977  0.00  0.00    +0.000 C 
BRANCH  14  15
ATOM     15  C   UNL     1       2.081   5.225  18.932  0.00  0.00    +0.000 C 
ATOM     16  C   UNL     1       1.644   4.263  17.813  0.00  0.00    +0.000 C 
ATOM     17  C   UNL     1       2.083   2.822  18.062  0.00  0.00    +0.000 C 
ATOM     18  C   UNL     1       1.619   2.316  19.426  0.00  0.00    +0.000 C 
ATOM     19  C   UNL     1       2.026   3.254  20.559  0.00  0.00    +0.000 C 
ATOM     20  C   UNL     1       1.577   4.691  20.288  0.00  0.00    +0.000 C 
ENDBRANCH  14  15
ENDBRANCH  13  14
ENDBRANCH   1  13
TORSDOF 5
ENDMDL
MODEL 8
REMARK VINA RESULT:      -7.0      1.770      2.482
REMARK  Name = 
REMARK  5 active torsions:
REMARK  status: ('A' for Active; 'I' for Inactive)
REMARK    1  A    between atoms: C_2  and  C_3
REMARK    2  A    between atoms: C_2  and  C_13
REMARK    3  A    between atoms: C_3  and  C_4
REMARK    4  A    between atoms: N_6  and  C_7
REMARK    5  A    between atoms: C_13  and  C_14
REMARK                            x       y       z     vdW  Elec       q    Type
REMARK                         _______ _______ _______ _____ _____    ______ ____
ROOT
ATOM      1  C   UNL     1       3.239   7.133  18.220  0.00  0.00    +0.000 C 
ENDROOT
BRANCH   1   2
ATOM      2  C   UNL     1       4.397   6.215  17.922  0.00  0.00    +0.000 C 
ATOM      3  O   UNL     1       5.087   5.694  18.795  0.00  0.00    +0.000 OA
ATOM      4  N   UNL     1       4.584   5.952  16.581  0.00  0.00    +0.000 N 
ATOM      5  H   UNL     1       4.210   6.599  15.890  0.00  0.00    +0.000 HD
BRANCH   4   6
ATOM      6  C   UNL     1       5.647   5.058  16.140  0.00  0.00    +0.000 C 
ATOM      7  C   UNL     1       5.400   4.470  14.768  0.00  0.00    +0.000 C 
ATOM      8  C   UNL     1       6.794   4.212  14.262  0.00  0.00    +0.000 C 
ATOM      9  O   UNL     1       7.608   5.242  14.827  0.00  0.00    +0.000 OA
ATOM     10  C   UNL     1       6.969   5.771  15.915  0.00  0.00    +0.000 C 
ATOM     11  O   UNL     1       7.414   6.680  16.600  0.00  0.00    +0.000 OA
ENDBRANCH   4   6
ENDBRANCH   1   2
BRANCH   1  13
ATOM     12  O   UNL     1       1.982   7.722  20.165  0.00  0.00    +0.000 OA
ATOM     13  C   UNL     1       2.505   6.821  19.508  0.00  0.00    +0.000 C 
BRANCH  13  14
ATOM     14  C   UNL     1       2.415   5.359  19.927  0.00  0.00    +0.000 C 
BRANCH  14  15
ATOM     15  C   UNL     1       1.249   4.571  19.293  0.00  0.00    +0.000 C 
ATOM     16  C   UNL     1       1.538   4.101  17.857  0.00  0.00    +0.000 C 
ATOM     17  C   UNL     1       2.603   3.009  17.792  0.00  0.00    +0.000 C 
ATOM     18  C   UNL     1       2.258   1.825  18.692  0.00  0.00    +0.000 C 
ATOM     19  C   UNL     1       1.953   2.258  20.124  0.00  0.00    +0.000 C 
ATOM     20  C   UNL     1       0.884   3.352  20.164  0.00  0.00    +0.000 C 
ENDBRANCH  14  15
ENDBRANCH  13  14
ENDBRANCH   1  13
TORSDOF 5
ENDMDL
MODEL 9
REMARK VINA RESULT:      -7.0      1.555      2.248
REMARK  Name = 
REMARK  5 active torsions:
REMARK  status: ('A' for Active; 'I' for Inactive)
REMARK    1  A    between atoms: C_2  and  C_3
REMARK    2  A    between atoms: C_2  and  C_13
REMARK    3  A    between atoms: C_3  and  C_4
REMARK    4  A    between atoms: N_6  and  C_7
REMARK    5  A    between atoms: C_13  and  C_14
REMARK                            x       y       z     vdW  Elec       q    Type
REMARK                         _______ _______ _______ _____ _____    ______ ____
ROOT
ATOM      1  C   UNL     1       4.277   5.827  19.312  0.00  0.00    +0.000 C 
ENDROOT
BRANCH   1   2
ATOM      2  C   UNL     1       5.342   5.131  18.503  0.00  0.00    +0.000 C 
ATOM      3  O   UNL     1       6.217   4.428  19.002  0.00  0.00    +0.000 OA
ATOM      4  N   UNL     1       5.217   5.294  17.139  0.00  0.00    +0.000 N 
ATOM      5  H   UNL     1       4.691   6.087  16.779  0.00  0.00    +0.000 HD
BRANCH   4   6
ATOM      6  C   UNL     1       6.156   4.656  16.225  0.00  0.00    +0.000 C 
ATOM      7  C   UNL     1       5.515   4.209  14.929  0.00  0.00    +0.000 C 
ATOM      8  C   UNL     1       6.664   4.257  13.957  0.00  0.00    +0.000 C 
ATOM      9  O   UNL     1       7.497   5.332  14.395  0.00  0.00    +0.000 OA
ATOM     10  C   UNL     1       7.222   5.606  15.707  0.00  0.00    +0.000 C 
ATOM     11  O   UNL     1       7.768   6.484  16.357  0.00  0.00    +0.000 OA
ENDBRANCH   4   6
ENDBRANCH   1   2
BRANCH   1  13
ATOM     12  O   UNL     1       2.332   6.891  18.421  0.00  0.00    +0.000 OA
ATOM     13  C   UNL     1       2.904   5.829  18.673  0.00  0.00    +0.000 C 
BRANCH  13  14
ATOM     14  C   UNL     1       2.288   4.478  18.331  0.00  0.00    +0.000 C 
BRANCH  14  15
ATOM     15  C   UNL     1       1.018   4.120  19.133  0.00  0.00    +0.000 C 
ATOM     16  C   UNL     1       0.727   2.610  19.174  0.00  0.00    +0.000 C 
ATOM     17  C   UNL     1       1.742   1.831  20.009  0.00  0.00    +0.000 C 
ATOM     18  C   UNL     1       1.871   2.399  21.420  0.00  0.00    +0.000 C 
ATOM     19  C   UNL     1       2.148   3.900  21.415  0.00  0.00    +0.000 C 
ATOM     20  C   UNL     1       1.120   4.659  20.574  0.00  0.00    +0.000 C 
ENDBRANCH  14  15
ENDBRANCH  13  14
ENDBRANCH   1  13
TORSDOF 5
ENDMDL
