MODEL 1
REMARK VINA RESULT:      -7.4      0.000      0.000
REMARK  Name = 
REMARK  5 active torsions:
REMARK  status: ('A' for Active; 'I' for Inactive)
REMARK    1  A    between atoms: C_7  and  C_8
REMARK    2  A    between atoms: C_8  and  C_9
REMARK    3  A    between atoms: C_9  and  N_10
REMARK    4  A    between atoms: N_12  and  C_13
REMARK    5  A    between atoms: N_19  and  C_20
REMARK                            x       y       z     vdW  Elec       q    Type
REMARK                         _______ _______ _______ _____ _____    ______ ____
ROOT
ATOM      1  N   UNL     1       2.453   4.672  17.413  0.00  0.00    +0.000 N 
ATOM      2  C   UNL     1       3.093   5.843  17.773  0.00  0.00    +0.000 C 
ATOM      3  N   UNL     1       4.329   6.198  17.768  0.00  0.00    +0.000 NA
ATOM      4  N   UNL     1       2.100   6.701  18.195  0.00  0.00    +0.000 N 
ATOM      5  H   UNL     1       1.622   4.889  16.869  0.00  0.00    +0.000 HD
ATOM      6  H   UNL     1       1.361   6.238  18.705  0.00  0.00    +0.000 HD
ENDROOT
BRANCH   3   7
ATOM      7  C   UNL     1       5.395   5.333  17.292  0.00  0.00    +0.000 C 
ATOM      8  C   UNL     1       6.692   5.579  18.063  0.00  0.00    +0.000 C 
ATOM      9  C   UNL     1       7.692   4.525  17.612  0.00  0.00    +0.000 C 
ATOM     10  O   UNL     1       7.948   4.660  16.211  0.00  0.00    +0.000 OA
ATOM     11  C   UNL     1       6.772   4.538  15.404  0.00  0.00    +0.000 C 
ATOM     12  C   UNL     1       5.693   5.548  15.810  0.00  0.00    +0.000 C 
ENDBRANCH   3   7
BRANCH   4  13
ATOM     13  C   UNL     1       2.401   8.091  18.543  0.00  0.00    +0.000 C 
ATOM     14  C   UNL     1       1.659   9.182  17.816  0.00  0.00    +0.000 C 
ATOM     15  C   UNL     1       1.409   8.956  19.275  0.00  0.00    +0.000 C 
ENDBRANCH   4  13
BRANCH   1  16
ATOM     16  C   UNL     1       3.075   3.436  16.969  0.00  0.00    +0.000 C 
BRANCH  16  17
ATOM     17  C   UNL     1       2.564   2.202  17.694  0.00  0.00    +0.000 C 
BRANCH  17  24
ATOM     18 CL   UNL     1       4.821   1.877  19.871  0.00  0.00    +0.000 Cl
ATOM     19  C   UNL     1       3.184   2.341  20.171  0.00  0.00    +0.000 A 
ATOM     20  C   UNL     1       2.844   2.694  21.482  0.00  0.00    +0.000 A 
ATOM     21  C   UNL     1       1.535   3.060  21.787  0.00  0.00    +0.000 A 
ATOM     22  C   UNL     1       0.562   3.041  20.790  0.00  0.00    +0.000 A 
ATOM     23  C   UNL     1       0.898   2.708  19.486  0.00  0.00    +0.000 A 
ATOM     24  C   UNL     1       2.223   2.392  19.148  0.00  0.00    +0.000 A 
ENDBRANCH  17  24
ENDBRANCH  16  17
ENDBRANCH   1  16
TORSDOF 5
ENDMDL
MODEL 2
REMARK VINA RESULT:      -7.2      2.400      5.165
REMARK  Name = 
REMARK  5 active torsions:
REMARK  status: ('A' for Active; 'I' for Inactive)
REMARK    1  A    between atoms: C_7  and  C_8
REMARK    2  A    between atoms: C_8  and  C_9
REMARK    3  A    between atoms: C_9  and  N_10
REMARK    4  A    between atoms: N_12  and  C_13
REMARK    5  A    between atoms: N_19  and  C_20
REMARK                            x       y       z     vdW  Elec       q    Type
REMARK                         _______ _______ _______ _____ _____    ______ ____
ROOT
ATOM      1  N   UNL     1       2.823   8.008  18.351  0.00  0.00    +0.000 N 
ATOM      2  C   UNL     1       2.180   7.393  19.409  0.00  0.00    +0.000 C 
ATOM      3  N   UNL     1       2.018   6.160  19.733  0.00  0.00    +0.000 NA
ATOM      4  N   UNL     1       1.664   8.413  20.180  0.00  0.00    +0.000 N 
ATOM      5  H   UNL     1       3.371   8.793  18.692  0.00  0.00    +0.000 HD
ATOM      6  H   UNL     1       1.320   9.191  19.636  0.00  0.00    +0.000 HD
ENDROOT
BRANCH   3   7
ATOM      7  C   UNL     1       2.582   5.063  18.964  0.00  0.00    +0.000 C 
ATOM      8  C   UNL     1       1.584   3.912  18.830  0.00  0.00    +0.000 C 
ATOM      9  C   UNL     1       2.197   2.892  17.882  0.00  0.00    +0.000 C 
ATOM     10  O   UNL     1       3.420   2.390  18.426  0.00  0.00    +0.000 OA
ATOM     11  C   UNL     1       4.392   3.410  18.677  0.00  0.00    +0.000 C 
ATOM     12  C   UNL     1       3.848   4.501  19.606  0.00  0.00    +0.000 C 
ENDBRANCH   3   7
BRANCH   4  13
ATOM     13  C   UNL     1       1.013   8.135  21.462  0.00  0.00    +0.000 C 
ATOM     14  C   UNL     1       0.760   9.290  22.395  0.00  0.00    +0.000 C 
ATOM     15  C   UNL     1      -0.395   8.588  21.748  0.00  0.00    +0.000 C 
ENDBRANCH   4  13
BRANCH   1  16
ATOM     16  C   UNL     1       3.467   7.357  17.222  0.00  0.00    +0.000 C 
BRANCH  16  17
ATOM     17  C   UNL     1       4.985   7.389  17.285  0.00  0.00    +0.000 C 
BRANCH  17  24
ATOM     18 CL   UNL     1       7.637   6.217  18.523  0.00  0.00    +0.000 Cl
ATOM     19  C   UNL     1       6.835   5.631  17.109  0.00  0.00    +0.000 A 
ATOM     20  C   UNL     1       7.351   4.479  16.506  0.00  0.00    +0.000 A 
ATOM     21  C   UNL     1       6.756   3.970  15.354  0.00  0.00    +0.000 A 
ATOM     22  C   UNL     1       5.667   4.632  14.789  0.00  0.00    +0.000 A 
ATOM     23  C   UNL     1       5.143   5.766  15.392  0.00  0.00    +0.000 A 
ATOM     24  C   UNL     1       5.693   6.259  16.584  0.00  0.00    +0.000 A 
ENDBRANCH  17  24
ENDBRANCH  16  17
ENDBRANCH   1  16
TORSDOF 5
ENDMDL
MODEL 3
REMARK VINA RESULT:      -7.2      3.061      5.762
REMARK  Name = 
REMARK  5 active torsions:
REMARK  status: ('A' for Active; 'I' for Inactive)
REMARK    1  A    between atoms: C_7  and  C_8
REMARK    2  A    between atoms: C_8  and  C_9
REMARK    3  A    between atoms: C_9  and  N_10
REMARK    4  A    between atoms: N_12  and  C_13
REMARK    5  A    between atoms: N_19  and  C_20
REMARK                            x       y       z     vdW  Elec       q    Type
REMARK                         _______ _______ _______ _____ _____    ______ ____
ROOT
ATOM      1  N   UNL     1       5.155   6.266  16.353  0.00  0.00    +0.000 N 
ATOM      2  C   UNL     1       5.125   4.964  15.892  0.00  0.00    +0.000 C 
ATOM      3  N   UNL     1       4.582   3.890  16.347  0.00  0.00    +0.000 NA
ATOM      4  N   UNL     1       5.850   4.962  14.720  0.00  0.00    +0.000 N 
ATOM      5  H   UNL     1       4.987   6.907  15.582  0.00  0.00    +0.000 HD
ATOM      6  H   UNL     1       6.655   5.573  14.746  0.00  0.00    +0.000 HD
ENDROOT
BRANCH   3   7
ATOM      7  C   UNL     1       3.779   3.866  17.557  0.00  0.00    +0.000 C 
ATOM      8  C   UNL     1       4.459   3.048  18.655  0.00  0.00    +0.000 C 
ATOM      9  C   UNL     1       3.631   3.216  19.921  0.00  0.00    +0.000 C 
ATOM     10  O   UNL     1       2.309   2.711  19.713  0.00  0.00    +0.000 OA
ATOM     11  C   UNL     1       1.619   3.353  18.636  0.00  0.00    +0.000 C 
ATOM     12  C   UNL     1       2.399   3.257  17.319  0.00  0.00    +0.000 C 
ENDBRANCH   3   7
BRANCH   4  13
ATOM     13  C   UNL     1       5.933   3.762  13.885  0.00  0.00    +0.000 C 
ATOM     14  C   UNL     1       5.107   3.715  12.625  0.00  0.00    +0.000 C 
ATOM     15  C   UNL     1       6.601   3.782  12.535  0.00  0.00    +0.000 C 
ENDBRANCH   4  13
BRANCH   1  16
ATOM     16  C   UNL     1       4.592   6.767  17.596  0.00  0.00    +0.000 C 
BRANCH  16  17
ATOM     17  C   UNL     1       3.247   7.454  17.423  0.00  0.00    +0.000 C 
BRANCH  17  24
ATOM     18 CL   UNL     1       1.915  10.284  17.816  0.00  0.00    +0.000 Cl
ATOM     19  C   UNL     1       1.806   8.953  18.912  0.00  0.00    +0.000 A 
ATOM     20  C   UNL     1       0.981   9.106  20.032  0.00  0.00    +0.000 A 
ATOM     21  C   UNL     1       0.868   8.073  20.960  0.00  0.00    +0.000 A 
ATOM     22  C   UNL     1       1.604   6.902  20.783  0.00  0.00    +0.000 A 
ATOM     23  C   UNL     1       2.411   6.741  19.666  0.00  0.00    +0.000 A 
ATOM     24  C   UNL     1       2.493   7.747  18.693  0.00  0.00    +0.000 A 
ENDBRANCH  17  24
ENDBRANCH  16  17
ENDBRANCH   1  16
TORSDOF 5
ENDMDL
MODEL 4
REMARK VINA RESULT:      -7.2      1.414      1.980
REMARK  Name = 
REMARK  5 active torsions:
REMARK  status: ('A' for Active; 'I' for Inactive)
REMARK    1  A    between atoms: C_7  and  C_8
REMARK    2  A    between atoms: C_8  and  C_9
REMARK    3  A    between atoms: C_9  and  N_10
REMARK    4  A    between atoms: N_12  and  C_13
REMARK    5  A    between atoms: N_19  and  C_20
REMARK                            x       y       z     vdW  Elec       q    Type
REMARK                         _______ _______ _______ _____ _____    ______ ____
ROOT
ATOM      1  N   UNL     1       4.050   5.892  19.436  0.00  0.00    +0.000 N 
ATOM      2  C   UNL     1       3.758   6.656  18.322  0.00  0.00    +0.000 C 
ATOM      3  N   UNL     1       4.231   6.671  17.127  0.00  0.00    +0.000 NA
ATOM      4  N   UNL     1       2.755   7.519  18.709  0.00  0.00    +0.000 N 
ATOM      5  H   UNL     1       3.187   5.593  19.883  0.00  0.00    +0.000 HD
ATOM      6  H   UNL     1       2.856   7.851  19.658  0.00  0.00    +0.000 HD
ENDROOT
BRANCH   3   7
ATOM      7  C   UNL     1       5.260   5.750  16.676  0.00  0.00    +0.000 C 
ATOM      8  C   UNL     1       6.655   6.256  17.043  0.00  0.00    +0.000 C 
ATOM      9  C   UNL     1       7.644   5.158  16.680  0.00  0.00    +0.000 C 
ATOM     10  O   UNL     1       7.596   4.900  15.275  0.00  0.00    +0.000 OA
ATOM     11  C   UNL     1       6.299   4.508  14.813  0.00  0.00    +0.000 C 
ATOM     12  C   UNL     1       5.228   5.548  15.163  0.00  0.00    +0.000 C 
ENDBRANCH   3   7
BRANCH   4  13
ATOM     13  C   UNL     1       2.107   8.406  17.742  0.00  0.00    +0.000 C 
ATOM     14  C   UNL     1       0.910   9.200  18.196  0.00  0.00    +0.000 C 
ATOM     15  C   UNL     1       2.189   9.905  17.864  0.00  0.00    +0.000 C 
ENDBRANCH   4  13
BRANCH   1  16
ATOM     16  C   UNL     1       5.091   4.884  19.557  0.00  0.00    +0.000 C 
BRANCH  16  17
ATOM     17  C   UNL     1       4.577   3.459  19.439  0.00  0.00    +0.000 C 
BRANCH  17  24
ATOM     18 CL   UNL     1       2.670   3.324  16.932  0.00  0.00    +0.000 Cl
ATOM     19  C   UNL     1       2.190   3.131  18.580  0.00  0.00    +0.000 A 
ATOM     20  C   UNL     1       0.854   2.794  18.827  0.00  0.00    +0.000 A 
ATOM     21  C   UNL     1       0.406   2.643  20.138  0.00  0.00    +0.000 A 
ATOM     22  C   UNL     1       1.284   2.859  21.198  0.00  0.00    +0.000 A 
ATOM     23  C   UNL     1       2.613   3.178  20.957  0.00  0.00    +0.000 A 
ATOM     24  C   UNL     1       3.096   3.279  19.644  0.00  0.00    +0.000 A 
ENDBRANCH  17  24
ENDBRANCH  16  17
ENDBRANCH   1  16
TORSDOF 5
ENDMDL
MODEL 5
REMARK VINA RESULT:      -7.1      3.288      6.331
REMARK  Name = 
REMARK  5 active torsions:
REMARK  status: ('A' for Active; 'I' for Inactive)
REMARK    1  A    between atoms: C_7  and  C_8
REMARK    2  A    between atoms: C_8  and  C_9
REMARK    3  A    between atoms: C_9  and  N_10
REMARK    4  A    between atoms: N_12  and  C_13
REMARK    5  A    between atoms: N_19  and  C_20
REMARK                            x       y       z     vdW  Elec       q    Type
REMARK                         _______ _______ _______ _____ _____    ______ ____
ROOT
ATOM      1  N   UNL     1       3.418   6.835  17.850  0.00  0.00    +0.000 N 
ATOM      2  C   UNL     1       3.938   5.585  17.570  0.00  0.00    +0.000 C 
ATOM      3  N   UNL     1       3.776   4.432  18.115  0.00  0.00    +0.000 NA
ATOM      4  N   UNL     1       4.765   5.756  16.481  0.00  0.00    +0.000 N 
ATOM      5  H   UNL     1       3.132   7.289  16.987  0.00  0.00    +0.000 HD
ATOM      6  H   UNL     1       5.273   6.630  16.498  0.00  0.00    +0.000 HD
ENDROOT
BRANCH   3   7
ATOM      7  C   UNL     1       2.881   4.210  19.238  0.00  0.00    +0.000 C 
ATOM      8  C   UNL     1       3.428   3.133  20.176  0.00  0.00    +0.000 C 
ATOM      9  C   UNL     1       2.516   3.089  21.393  0.00  0.00    +0.000 C 
ATOM     10  O   UNL     1       1.189   2.733  20.997  0.00  0.00    +0.000 OA
ATOM     11  C   UNL     1       0.619   3.634  20.042  0.00  0.00    +0.000 C 
ATOM     12  C   UNL     1       1.492   3.764  18.788  0.00  0.00    +0.000 C 
ENDBRANCH   3   7
BRANCH   4  13
ATOM     13  C   UNL     1       5.400   4.610  15.828  0.00  0.00    +0.000 C 
ATOM     14  C   UNL     1       6.257   4.868  14.616  0.00  0.00    +0.000 C 
ATOM     15  C   UNL     1       6.890   4.392  15.887  0.00  0.00    +0.000 C 
ENDBRANCH   4  13
BRANCH   1  16
ATOM     16  C   UNL     1       2.545   7.191  18.957  0.00  0.00    +0.000 C 
BRANCH  16  17
ATOM     17  C   UNL     1       1.748   8.464  18.718  0.00  0.00    +0.000 C 
BRANCH  17  24
ATOM     18 CL   UNL     1      -0.330  10.808  18.369  0.00  0.00    +0.000 Cl
ATOM     19  C   UNL     1       0.120  10.069  19.865  0.00  0.00    +0.000 A 
ATOM     20  C   UNL     1      -0.560  10.479  21.017  0.00  0.00    +0.000 A 
ATOM     21  C   UNL     1      -0.228   9.929  22.254  0.00  0.00    +0.000 A 
ATOM     22  C   UNL     1       0.804   8.997  22.340  0.00  0.00    +0.000 A 
ATOM     23  C   UNL     1       1.470   8.576  21.198  0.00  0.00    +0.000 A 
ATOM     24  C   UNL     1       1.111   9.076  19.938  0.00  0.00    +0.000 A 
ENDBRANCH  17  24
ENDBRANCH  16  17
ENDBRANCH   1  16
TORSDOF 5
ENDMDL
MODEL 6
REMARK VINA RESULT:      -7.0      2.344      4.363
REMARK  Name = 
REMARK  5 active torsions:
REMARK  status: ('A' for Active; 'I' for Inactive)
REMARK    1  A    between atoms: C_7  and  C_8
REMARK    2  A    between atoms: C_8  and  C_9
REMARK    3  A    between atoms: C_9  and  N_10
REMARK    4  A    between atoms: N_12  and  C_13
REMARK    5  A    between atoms: N_19  and  C_20
REMARK                            x       y       z     vdW  Elec       q    Type
REMARK                         _______ _______ _______ _____ _____    ______ ____
ROOT
ATOM      1  N   UNL     1       4.238   4.755  16.136  0.00  0.00    +0.000 N 
ATOM      2  C   UNL     1       5.464   4.678  15.503  0.00  0.00    +0.000 C 
ATOM      3  N   UNL     1       6.632   5.121  15.808  0.00  0.00    +0.000 NA
ATOM      4  N   UNL     1       5.246   3.966  14.344  0.00  0.00    +0.000 N 
ATOM      5  H   UNL     1       3.779   3.849  16.105  0.00  0.00    +0.000 HD
ATOM      6  H   UNL     1       4.356   4.171  13.910  0.00  0.00    +0.000 HD
ENDROOT
BRANCH   3   7
ATOM      7  C   UNL     1       6.905   5.839  17.041  0.00  0.00    +0.000 C 
ATOM      8  C   UNL     1       7.698   7.118  16.771  0.00  0.00    +0.000 C 
ATOM      9  C   UNL     1       7.791   7.878  18.087  0.00  0.00    +0.000 C 
ATOM     10  O   UNL     1       8.487   7.092  19.058  0.00  0.00    +0.000 OA
ATOM     11  C   UNL     1       7.870   5.826  19.313  0.00  0.00    +0.000 C 
ATOM     12  C   UNL     1       7.709   5.000  18.031  0.00  0.00    +0.000 C 
ENDBRANCH   3   7
BRANCH   4  13
ATOM     13  C   UNL     1       6.358   3.584  13.471  0.00  0.00    +0.000 C 
ATOM     14  C   UNL     1       6.033   3.023  12.111  0.00  0.00    +0.000 C 
ATOM     15  C   UNL     1       6.691   4.364  12.226  0.00  0.00    +0.000 C 
ENDBRANCH   4  13
BRANCH   1  16
ATOM     16  C   UNL     1       3.932   5.469  17.365  0.00  0.00    +0.000 C 
BRANCH  16  17
ATOM     17  C   UNL     1       2.492   5.303  17.823  0.00  0.00    +0.000 C 
BRANCH  17  24
ATOM     18 CL   UNL     1       2.351   2.165  17.558  0.00  0.00    +0.000 Cl
ATOM     19  C   UNL     1       2.293   3.060  19.035  0.00  0.00    +0.000 A 
ATOM     20  C   UNL     1       2.274   2.331  20.230  0.00  0.00    +0.000 A 
ATOM     21  C   UNL     1       2.211   2.999  21.451  0.00  0.00    +0.000 A 
ATOM     22  C   UNL     1       2.134   4.390  21.475  0.00  0.00    +0.000 A 
ATOM     23  C   UNL     1       2.169   5.117  20.293  0.00  0.00    +0.000 A 
ATOM     24  C   UNL     1       2.290   4.464  19.057  0.00  0.00    +0.000 A 
ENDBRANCH  17  24
ENDBRANCH  16  17
ENDBRANCH   1  16
TORSDOF 5
ENDMDL
MODEL 7
REMARK VINA RESULT:      -7.0      2.568      5.595
REMARK  Name = 
REMARK  5 active torsions:
REMARK  status: ('A' for Active; 'I' for Inactive)
REMARK    1  A    between atoms: C_7  and  C_8
REMARK    2  A    between atoms: C_8  and  C_9
REMARK    3  A    between atoms: C_9  and  N_10
REMARK    4  A    between atoms: N_12  and  C_13
REMARK    5  A    between atoms: N_19  and  C_20
REMARK                            x       y       z     vdW  Elec       q    Type
REMARK                         _______ _______ _______ _____ _____    ______ ____
ROOT
ATOM      1  N   UNL     1       2.713   7.448  19.027  0.00  0.00    +0.000 N 
ATOM      2  C   UNL     1       1.874   7.155  20.085  0.00  0.00    +0.000 C 
ATOM      3  N   UNL     1       1.545   6.051  20.657  0.00  0.00    +0.000 NA
ATOM      4  N   UNL     1       1.366   8.364  20.510  0.00  0.00    +0.000 N 
ATOM      5  H   UNL     1       3.287   8.255  19.258  0.00  0.00    +0.000 HD
ATOM      6  H   UNL     1       1.179   9.007  19.754  0.00  0.00    +0.000 HD
ENDROOT
BRANCH   3   7
ATOM      7  C   UNL     1       2.092   4.765  20.260  0.00  0.00    +0.000 C 
ATOM      8  C   UNL     1       1.173   4.057  19.265  0.00  0.00    +0.000 C 
ATOM      9  C   UNL     1       1.901   2.809  18.787  0.00  0.00    +0.000 C 
ATOM     10  O   UNL     1       2.155   1.937  19.891  0.00  0.00    +0.000 OA
ATOM     11  C   UNL     1       2.935   2.543  20.927  0.00  0.00    +0.000 C 
ATOM     12  C   UNL     1       2.288   3.830  21.451  0.00  0.00    +0.000 C 
ENDBRANCH   3   7
BRANCH   4  13
ATOM     13  C   UNL     1       0.524   8.451  21.704  0.00  0.00    +0.000 C 
ATOM     14  C   UNL     1       0.879   9.475  22.751  0.00  0.00    +0.000 C 
ATOM     15  C   UNL     1      -0.378   9.632  21.952  0.00  0.00    +0.000 C 
ENDBRANCH   4  13
BRANCH   1  16
ATOM     16  C   UNL     1       3.433   6.500  18.193  0.00  0.00    +0.000 C 
BRANCH  16  17
ATOM     17  C   UNL     1       4.561   7.129  17.391  0.00  0.00    +0.000 C 
BRANCH  17  24
ATOM     18 CL   UNL     1       6.938   5.815  18.990  0.00  0.00    +0.000 Cl
ATOM     19  C   UNL     1       6.515   5.480  17.349  0.00  0.00    +0.000 A 
ATOM     20  C   UNL     1       7.229   4.470  16.693  0.00  0.00    +0.000 A 
ATOM     21  C   UNL     1       6.943   4.168  15.363  0.00  0.00    +0.000 A 
ATOM     22  C   UNL     1       5.968   4.895  14.684  0.00  0.00    +0.000 A 
ATOM     23  C   UNL     1       5.247   5.886  15.335  0.00  0.00    +0.000 A 
ATOM     24  C   UNL     1       5.482   6.165  16.690  0.00  0.00    +0.000 A 
ENDBRANCH  17  24
ENDBRANCH  16  17
ENDBRANCH   1  16
TORSDOF 5
ENDMDL
MODEL 8
REMARK VINA RESULT:      -7.0      2.606      5.324
REMARK  Name = 
REMARK  5 active torsions:
REMARK  status: ('A' for Active; 'I' for Inactive)
REMARK    1  A    between atoms: C_7  and  C_8
REMARK    2  A    between atoms: C_8  and  C_9
REMARK    3  A    between atoms: C_9  and  N_10
REMARK    4  A    between atoms: N_12  and  C_13
REMARK    5  A    between atoms: N_19  and  C_20
REMARK                            x       y       z     vdW  Elec       q    Type
REMARK                         _______ _______ _______ _____ _____    ______ ____
ROOT
ATOM      1  N   UNL     1       2.632   7.606  18.623  0.00  0.00    +0.000 N 
ATOM      2  C   UNL     1       1.992   7.288  19.806  0.00  0.00    +0.000 C 
ATOM      3  N   UNL     1       1.679   6.168  20.354  0.00  0.00    +0.000 NA
ATOM      4  N   UNL     1       1.691   8.491  20.407  0.00  0.00    +0.000 N 
ATOM      5  H   UNL     1       3.313   8.343  18.789  0.00  0.00    +0.000 HD
ATOM      6  H   UNL     1       1.421   9.211  19.751  0.00  0.00    +0.000 HD
ENDROOT
BRANCH   3   7
ATOM      7  C   UNL     1       2.016   4.883  19.767  0.00  0.00    +0.000 C 
ATOM      8  C   UNL     1       0.964   3.826  20.107  0.00  0.00    +0.000 C 
ATOM      9  C   UNL     1       1.314   2.572  19.320  0.00  0.00    +0.000 C 
ATOM     10  O   UNL     1       2.602   2.091  19.712  0.00  0.00    +0.000 OA
ATOM     11  C   UNL     1       3.649   3.048  19.519  0.00  0.00    +0.000 C 
ATOM     12  C   UNL     1       3.365   4.362  20.257  0.00  0.00    +0.000 C 
ENDBRANCH   3   7
BRANCH   4  13
ATOM     13  C   UNL     1       1.108   8.540  21.749  0.00  0.00    +0.000 C 
ATOM     14  C   UNL     1       0.529   9.847  22.226  0.00  0.00    +0.000 C 
ATOM     15  C   UNL     1      -0.376   8.683  21.963  0.00  0.00    +0.000 C 
ENDBRANCH   4  13
BRANCH   1  16
ATOM     16  C   UNL     1       3.085   6.681  17.597  0.00  0.00    +0.000 C 
BRANCH  16  17
ATOM     17  C   UNL     1       4.437   7.043  17.005  0.00  0.00    +0.000 C 
BRANCH  17  24
ATOM     18 CL   UNL     1       5.362   5.014  14.777  0.00  0.00    +0.000 Cl
ATOM     19  C   UNL     1       6.081   5.202  16.337  0.00  0.00    +0.000 A 
ATOM     20  C   UNL     1       7.233   4.456  16.610  0.00  0.00    +0.000 A 
ATOM     21  C   UNL     1       7.847   4.554  17.857  0.00  0.00    +0.000 A 
ATOM     22  C   UNL     1       7.290   5.372  18.838  0.00  0.00    +0.000 A 
ATOM     23  C   UNL     1       6.157   6.125  18.567  0.00  0.00    +0.000 A 
ATOM     24  C   UNL     1       5.559   6.083  17.298  0.00  0.00    +0.000 A 
ENDBRANCH  17  24
ENDBRANCH  16  17
ENDBRANCH   1  16
TORSDOF 5
ENDMDL
MODEL 9
REMARK VINA RESULT:      -6.9      2.495      5.854
REMARK  Name = 
REMARK  5 active torsions:
REMARK  status: ('A' for Active; 'I' for Inactive)
REMARK    1  A    between atoms: C_7  and  C_8
REMARK    2  A    between atoms: C_8  and  C_9
REMARK    3  A    between atoms: C_9  and  N_10
REMARK    4  A    between atoms: N_12  and  C_13
REMARK    5  A    between atoms: N_19  and  C_20
REMARK                            x       y       z     vdW  Elec       q    Type
REMARK                         _______ _______ _______ _____ _____    ______ ____
ROOT
ATOM      1  N   UNL     1       4.765   6.676  17.048  0.00  0.00    +0.000 N 
ATOM      2  C   UNL     1       5.110   5.408  16.622  0.00  0.00    +0.000 C 
ATOM      3  N   UNL     1       4.737   4.233  16.987  0.00  0.00    +0.000 NA
ATOM      4  N   UNL     1       6.033   5.588  15.613  0.00  0.00    +0.000 N 
ATOM      5  H   UNL     1       4.615   7.280  16.244  0.00  0.00    +0.000 HD
ATOM      6  H   UNL     1       6.663   6.359  15.781  0.00  0.00    +0.000 HD
ENDROOT
BRANCH   3   7
ATOM      7  C   UNL     1       3.738   4.009  18.018  0.00  0.00    +0.000 C 
ATOM      8  C   UNL     1       4.219   2.979  19.040  0.00  0.00    +0.000 C 
ATOM      9  C   UNL     1       3.187   2.935  20.157  0.00  0.00    +0.000 C 
ATOM     10  O   UNL     1       1.921   2.521  19.638  0.00  0.00    +0.000 OA
ATOM     11  C   UNL     1       1.425   3.375  18.602  0.00  0.00    +0.000 C 
ATOM     12  C   UNL     1       2.418   3.502  17.440  0.00  0.00    +0.000 C 
ENDBRANCH   3   7
BRANCH   4  13
ATOM     13  C   UNL     1       6.536   4.452  14.839  0.00  0.00    +0.000 C 
ATOM     14  C   UNL     1       5.785   4.052  13.595  0.00  0.00    +0.000 C 
ATOM     15  C   UNL     1       7.160   4.635  13.480  0.00  0.00    +0.000 C 
ENDBRANCH   4  13
BRANCH   1  16
ATOM     16  C   UNL     1       3.875   7.017  18.146  0.00  0.00    +0.000 C 
BRANCH  16  17
ATOM     17  C   UNL     1       2.521   7.538  17.693  0.00  0.00    +0.000 C 
BRANCH  17  24
ATOM     18 CL   UNL     1       1.775   6.511  20.579  0.00  0.00    +0.000 Cl
ATOM     19  C   UNL     1       1.525   8.112  19.978  0.00  0.00    +0.000 A 
ATOM     20  C   UNL     1       1.033   9.067  20.874  0.00  0.00    +0.000 A 
ATOM     21  C   UNL     1       0.795  10.370  20.442  0.00  0.00    +0.000 A 
ATOM     22  C   UNL     1       1.020  10.707  19.108  0.00  0.00    +0.000 A 
ATOM     23  C   UNL     1       1.523   9.767  18.220  0.00  0.00    +0.000 A 
ATOM     24  C   UNL     1       1.822   8.466  18.652  0.00  0.00    +0.000 A 
ENDBRANCH  17  24
ENDBRANCH  16  17
ENDBRANCH   1  16
TORSDOF 5
ENDMDL
