MODEL 1
REMARK VINA RESULT:      -7.2      0.000      0.000
REMARK  Name = 
REMARK  18 active torsions:
REMARK  status: ('A' for Active; 'I' for Inactive)
REMARK    1  A    between atoms: C_1  and  C_2
REMARK    2  A    between atoms: C_2  and  C_3
REMARK    3  A    between atoms: C_3  and  C_4
REMARK    4  A    between atoms: C_4  and  C_5
REMARK    5  A    between atoms: C_5  and  C_6
REMARK    6  A    between atoms: C_6  and  C_7
REMARK    7  A    between atoms: C_7  and  C_8
REMARK    8  A    between atoms: C_8  and  N_9
REMARK    9  A    between atoms: N_9  and  C_10
REMARK   10  A    between atoms: N_9  and  S_11
REMARK   11  A    between atoms: S_11  and  N_14
REMARK   12  A    between atoms: N_17  and  C_18
REMARK   13  A    between atoms: C_19  and  C_20
REMARK   14  A    between atoms: C_20  and  C_21
REMARK   15  A    between atoms: C_20  and  C_22
REMARK   16  A    between atoms: C_26  and  C_27
REMARK   17  A    between atoms: C_27  and  C_28
REMARK   18  A    between atoms: C_27  and  C_29
REMARK                            x       y       z     vdW  Elec       q    Type
REMARK                         _______ _______ _______ _____ _____    ______ ____
ROOT
ATOM      1  N   UNL     1       5.872   5.356  17.659  0.00  0.00    +0.000 N 
ATOM      2  C   UNL     1       5.903   5.500  19.057  0.00  0.00    +0.000 C 
ATOM      3  O   UNL     1       6.931   5.813  19.675  0.00  0.00    +0.000 OA
ATOM      4  N   UNL     1       4.698   5.321  19.732  0.00  0.00    +0.000 N 
ATOM      5  H   UNL     1       5.055   5.786  17.242  0.00  0.00    +0.000 HD
ATOM      6  H   UNL     1       4.663   5.640  20.694  0.00  0.00    +0.000 HD
ENDROOT
BRANCH   4   7
ATOM      7  C   UNL     1       3.493   4.952  19.099  0.00  0.00    +0.000 A 
ATOM      8  C   UNL     1       3.235   3.588  18.777  0.00  0.00    +0.000 A 
ATOM      9  C   UNL     1       2.076   3.289  18.014  0.00  0.00    +0.000 A 
ATOM     10  C   UNL     1       1.181   4.269  17.614  0.00  0.00    +0.000 A 
ATOM     11  C   UNL     1       1.428   5.581  17.967  0.00  0.00    +0.000 A 
ATOM     12  C   UNL     1       2.564   5.961  18.711  0.00  0.00    +0.000 A 
BRANCH   8  13
ATOM     13  C   UNL     1       4.050   2.357  19.186  0.00  0.00    +0.000 C 
ATOM     14  C   UNL     1       3.968   2.053  20.683  0.00  0.00    +0.000 C 
ATOM     15  C   UNL     1       3.800   1.064  18.407  0.00  0.00    +0.000 C 
ENDBRANCH   8  13
BRANCH  12  16
ATOM     16  C   UNL     1       2.711   7.464  18.959  0.00  0.00    +0.000 C 
ATOM     17  C   UNL     1       2.532   8.222  17.631  0.00  0.00    +0.000 C 
ATOM     18  C   UNL     1       1.729   8.070  19.970  0.00  0.00    +0.000 C 
ENDBRANCH  12  16
ENDBRANCH   4   7
BRANCH   1  19
ATOM     19  S   UNL     1       7.243   5.605  16.735  0.00  0.00    +0.000 S 
ATOM     20  O   UNL     1       8.122   4.460  16.853  0.00  0.00    +0.000 OA
ATOM     21  O   UNL     1       7.672   6.945  16.987  0.00  0.00    +0.000 OA
BRANCH  19  22
ATOM     22  N   UNL     1       6.592   5.553  15.143  0.00  0.00    +0.000 NA
ATOM     23  C   UNL     1       5.126   5.399  15.110  0.00  0.00    +0.000 C 
BRANCH  22  24
ATOM     24  C   UNL     1       7.338   4.610  14.262  0.00  0.00    +0.000 C 
BRANCH  24  25
ATOM     25  C   UNL     1       7.687   5.156  12.877  0.00  0.00    +0.000 C 
BRANCH  25  26
ATOM     26  C   UNL     1       7.071   4.297  11.762  0.00  0.00    +0.000 C 
BRANCH  26  27
ATOM     27  C   UNL     1       6.357   3.071  12.341  0.00  0.00    +0.000 C 
BRANCH  27  28
ATOM     28  C   UNL     1       5.281   2.539  11.394  0.00  0.00    +0.000 C 
BRANCH  28  29
ATOM     29  C   UNL     1       3.946   3.250  11.624  0.00  0.00    +0.000 C 
BRANCH  29  31
ATOM     30  C   UNL     1       2.806   3.569   9.405  0.00  0.00    +0.000 C 
ATOM     31  C   UNL     1       3.635   4.229  10.494  0.00  0.00    +0.000 C 
ENDBRANCH  29  31
ENDBRANCH  28  29
ENDBRANCH  27  28
ENDBRANCH  26  27
ENDBRANCH  25  26
ENDBRANCH  24  25
ENDBRANCH  22  24
ENDBRANCH  19  22
ENDBRANCH   1  19
TORSDOF 12
ENDMDL
MODEL 2
REMARK VINA RESULT:      -6.6      1.353      3.529
REMARK  Name = 
REMARK  18 active torsions:
REMARK  status: ('A' for Active; 'I' for Inactive)
REMARK    1  A    between atoms: C_1  and  C_2
REMARK    2  A    between atoms: C_2  and  C_3
REMARK    3  A    between atoms: C_3  and  C_4
REMARK    4  A    between atoms: C_4  and  C_5
REMARK    5  A    between atoms: C_5  and  C_6
REMARK    6  A    between atoms: C_6  and  C_7
REMARK    7  A    between atoms: C_7  and  C_8
REMARK    8  A    between atoms: C_8  and  N_9
REMARK    9  A    between atoms: N_9  and  C_10
REMARK   10  A    between atoms: N_9  and  S_11
REMARK   11  A    between atoms: S_11  and  N_14
REMARK   12  A    between atoms: N_17  and  C_18
REMARK   13  A    between atoms: C_19  and  C_20
REMARK   14  A    between atoms: C_20  and  C_21
REMARK   15  A    between atoms: C_20  and  C_22
REMARK   16  A    between atoms: C_26  and  C_27
REMARK   17  A    between atoms: C_27  and  C_28
REMARK   18  A    between atoms: C_27  and  C_29
REMARK                            x       y       z     vdW  Elec       q    Type
REMARK                         _______ _______ _______ _____ _____    ______ ____
ROOT
ATOM      1  N   UNL     1       4.888   5.592  17.352  0.00  0.00    +0.000 N 
ATOM      2  C   UNL     1       5.584   5.651  18.572  0.00  0.00    +0.000 C 
ATOM      3  O   UNL     1       6.754   6.050  18.656  0.00  0.00    +0.000 OA
ATOM      4  N   UNL     1       4.878   5.281  19.714  0.00  0.00    +0.000 N 
ATOM      5  H   UNL     1       3.941   5.943  17.427  0.00  0.00    +0.000 HD
ATOM      6  H   UNL     1       5.291   5.532  20.607  0.00  0.00    +0.000 HD
ENDROOT
BRANCH   4   7
ATOM      7  C   UNL     1       3.551   4.804  19.694  0.00  0.00    +0.000 A 
ATOM      8  C   UNL     1       2.458   5.704  19.852  0.00  0.00    +0.000 A 
ATOM      9  C   UNL     1       1.153   5.157  19.969  0.00  0.00    +0.000 A 
ATOM     10  C   UNL     1       0.913   3.794  19.894  0.00  0.00    +0.000 A 
ATOM     11  C   UNL     1       1.982   2.940  19.703  0.00  0.00    +0.000 A 
ATOM     12  C   UNL     1       3.308   3.403  19.593  0.00  0.00    +0.000 A 
BRANCH   8  13
ATOM     13  C   UNL     1       2.500   7.235  19.882  0.00  0.00    +0.000 C 
ATOM     14  C   UNL     1       2.430   7.864  18.489  0.00  0.00    +0.000 C 
ATOM     15  C   UNL     1       1.495   7.944  20.792  0.00  0.00    +0.000 C 
ENDBRANCH   8  13
BRANCH  12  16
ATOM     16  C   UNL     1       4.373   2.313  19.447  0.00  0.00    +0.000 C 
ATOM     17  C   UNL     1       4.699   1.728  20.832  0.00  0.00    +0.000 C 
ATOM     18  C   UNL     1       4.001   1.140  18.529  0.00  0.00    +0.000 C 
ENDBRANCH  12  16
ENDBRANCH   4   7
BRANCH   1  19
ATOM     19  S   UNL     1       5.612   6.068  15.922  0.00  0.00    +0.000 S 
ATOM     20  O   UNL     1       7.040   6.214  16.125  0.00  0.00    +0.000 OA
ATOM     21  O   UNL     1       4.795   7.104  15.371  0.00  0.00    +0.000 OA
BRANCH  19  22
ATOM     22  N   UNL     1       5.403   4.662  14.953  0.00  0.00    +0.000 NA
ATOM     23  C   UNL     1       5.579   3.401  15.696  0.00  0.00    +0.000 C 
BRANCH  22  24
ATOM     24  C   UNL     1       6.163   4.744  13.673  0.00  0.00    +0.000 C 
BRANCH  24  25
ATOM     25  C   UNL     1       6.558   3.397  13.067  0.00  0.00    +0.000 C 
BRANCH  25  26
ATOM     26  C   UNL     1       5.890   3.178  11.700  0.00  0.00    +0.000 C 
BRANCH  26  27
ATOM     27  C   UNL     1       4.407   3.560  11.744  0.00  0.00    +0.000 C 
BRANCH  27  28
ATOM     28  C   UNL     1       3.536   2.543  11.004  0.00  0.00    +0.000 C 
BRANCH  28  29
ATOM     29  C   UNL     1       3.019   3.120   9.686  0.00  0.00    +0.000 C 
BRANCH  29  31
ATOM     30  C   UNL     1       2.364   5.211   8.450  0.00  0.00    +0.000 C 
ATOM     31  C   UNL     1       2.831   4.634   9.776  0.00  0.00    +0.000 C 
ENDBRANCH  29  31
ENDBRANCH  28  29
ENDBRANCH  27  28
ENDBRANCH  26  27
ENDBRANCH  25  26
ENDBRANCH  24  25
ENDBRANCH  22  24
ENDBRANCH  19  22
ENDBRANCH   1  19
TORSDOF 12
ENDMDL
MODEL 3
REMARK VINA RESULT:      -6.6      4.029      7.284
REMARK  Name = 
REMARK  18 active torsions:
REMARK  status: ('A' for Active; 'I' for Inactive)
REMARK    1  A    between atoms: C_1  and  C_2
REMARK    2  A    between atoms: C_2  and  C_3
REMARK    3  A    between atoms: C_3  and  C_4
REMARK    4  A    between atoms: C_4  and  C_5
REMARK    5  A    between atoms: C_5  and  C_6
REMARK    6  A    between atoms: C_6  and  C_7
REMARK    7  A    between atoms: C_7  and  C_8
REMARK    8  A    between atoms: C_8  and  N_9
REMARK    9  A    between atoms: N_9  and  C_10
REMARK   10  A    between atoms: N_9  and  S_11
REMARK   11  A    between atoms: S_11  and  N_14
REMARK   12  A    between atoms: N_17  and  C_18
REMARK   13  A    between atoms: C_19  and  C_20
REMARK   14  A    between atoms: C_20  and  C_21
REMARK   15  A    between atoms: C_20  and  C_22
REMARK   16  A    between atoms: C_26  and  C_27
REMARK   17  A    between atoms: C_27  and  C_28
REMARK   18  A    between atoms: C_27  and  C_29
REMARK                            x       y       z     vdW  Elec       q    Type
REMARK                         _______ _______ _______ _____ _____    ______ ____
ROOT
ATOM      1  N   UNL     1       5.148   5.392  18.651  0.00  0.00    +0.000 N 
ATOM      2  C   UNL     1       4.375   4.845  17.613  0.00  0.00    +0.000 C 
ATOM      3  O   UNL     1       4.876   4.273  16.635  0.00  0.00    +0.000 OA
ATOM      4  N   UNL     1       2.991   4.930  17.751  0.00  0.00    +0.000 N 
ATOM      5  H   UNL     1       4.775   5.179  19.568  0.00  0.00    +0.000 HD
ATOM      6  H   UNL     1       2.435   4.350  17.133  0.00  0.00    +0.000 HD
ENDROOT
BRANCH   4   7
ATOM      7  C   UNL     1       2.350   5.577  18.828  0.00  0.00    +0.000 A 
ATOM      8  C   UNL     1       2.183   6.992  18.824  0.00  0.00    +0.000 A 
ATOM      9  C   UNL     1       1.662   7.607  19.993  0.00  0.00    +0.000 A 
ATOM     10  C   UNL     1       1.280   6.874  21.107  0.00  0.00    +0.000 A 
ATOM     11  C   UNL     1       1.416   5.500  21.078  0.00  0.00    +0.000 A 
ATOM     12  C   UNL     1       1.938   4.817  19.961  0.00  0.00    +0.000 A 
BRANCH   8  13
ATOM     13  C   UNL     1       2.468   7.967  17.678  0.00  0.00    +0.000 C 
ATOM     14  C   UNL     1       1.725   9.297  17.822  0.00  0.00    +0.000 C 
ATOM     15  C   UNL     1       3.935   8.256  17.356  0.00  0.00    +0.000 C 
ENDBRANCH   8  13
BRANCH  12  16
ATOM     16  C   UNL     1       2.074   3.301  20.126  0.00  0.00    +0.000 C 
ATOM     17  C   UNL     1       1.870   2.927  21.605  0.00  0.00    +0.000 C 
ATOM     18  C   UNL     1       1.100   2.452  19.299  0.00  0.00    +0.000 C 
ENDBRANCH  12  16
ENDBRANCH   4   7
BRANCH   1  19
ATOM     19  S   UNL     1       6.817   5.297  18.625  0.00  0.00    +0.000 S 
ATOM     20  O   UNL     1       7.227   4.148  17.842  0.00  0.00    +0.000 OA
ATOM     21  O   UNL     1       7.264   5.525  19.964  0.00  0.00    +0.000 OA
BRANCH  19  22
ATOM     22  N   UNL     1       7.221   6.686  17.693  0.00  0.00    +0.000 NA
ATOM     23  C   UNL     1       7.505   6.386  16.278  0.00  0.00    +0.000 C 
BRANCH  22  24
ATOM     24  C   UNL     1       8.242   7.537  18.367  0.00  0.00    +0.000 C 
BRANCH  24  25
ATOM     25  C   UNL     1       8.189   9.022  18.006  0.00  0.00    +0.000 C 
BRANCH  25  26
ATOM     26  C   UNL     1       9.048   9.865  18.962  0.00  0.00    +0.000 C 
BRANCH  26  27
ATOM     27  C   UNL     1       9.789  10.971  18.206  0.00  0.00    +0.000 C 
BRANCH  27  28
ATOM     28  C   UNL     1      10.734  11.752  19.121  0.00  0.00    +0.000 C 
BRANCH  28  29
ATOM     29  C   UNL     1      10.320  11.610  20.587  0.00  0.00    +0.000 C 
BRANCH  29  31
ATOM     30  C   UNL     1      10.746  14.089  20.566  0.00  0.00    +0.000 C 
ATOM     31  C   UNL     1       9.943  12.961  21.193  0.00  0.00    +0.000 C 
ENDBRANCH  29  31
ENDBRANCH  28  29
ENDBRANCH  27  28
ENDBRANCH  26  27
ENDBRANCH  25  26
ENDBRANCH  24  25
ENDBRANCH  22  24
ENDBRANCH  19  22
ENDBRANCH   1  19
TORSDOF 12
ENDMDL
MODEL 4
REMARK VINA RESULT:      -6.5      3.851      6.620
REMARK  Name = 
REMARK  18 active torsions:
REMARK  status: ('A' for Active; 'I' for Inactive)
REMARK    1  A    between atoms: C_1  and  C_2
REMARK    2  A    between atoms: C_2  and  C_3
REMARK    3  A    between atoms: C_3  and  C_4
REMARK    4  A    between atoms: C_4  and  C_5
REMARK    5  A    between atoms: C_5  and  C_6
REMARK    6  A    between atoms: C_6  and  C_7
REMARK    7  A    between atoms: C_7  and  C_8
REMARK    8  A    between atoms: C_8  and  N_9
REMARK    9  A    between atoms: N_9  and  C_10
REMARK   10  A    between atoms: N_9  and  S_11
REMARK   11  A    between atoms: S_11  and  N_14
REMARK   12  A    between atoms: N_17  and  C_18
REMARK   13  A    between atoms: C_19  and  C_20
REMARK   14  A    between atoms: C_20  and  C_21
REMARK   15  A    between atoms: C_20  and  C_22
REMARK   16  A    between atoms: C_26  and  C_27
REMARK   17  A    between atoms: C_27  and  C_28
REMARK   18  A    between atoms: C_27  and  C_29
REMARK                            x       y       z     vdW  Elec       q    Type
REMARK                         _______ _______ _______ _____ _____    ______ ____
ROOT
ATOM      1  N   UNL     1       5.666   5.156  17.450  0.00  0.00    +0.000 N 
ATOM      2  C   UNL     1       4.704   4.564  16.614  0.00  0.00    +0.000 C 
ATOM      3  O   UNL     1       4.973   4.136  15.483  0.00  0.00    +0.000 OA
ATOM      4  N   UNL     1       3.419   4.430  17.135  0.00  0.00    +0.000 N 
ATOM      5  H   UNL     1       5.602   4.832  18.408  0.00  0.00    +0.000 HD
ATOM      6  H   UNL     1       2.788   3.811  16.637  0.00  0.00    +0.000 HD
ENDROOT
BRANCH   4   7
ATOM      7  C   UNL     1       3.036   4.905  18.407  0.00  0.00    +0.000 A 
ATOM      8  C   UNL     1       2.895   4.004  19.501  0.00  0.00    +0.000 A 
ATOM      9  C   UNL     1       2.370   4.509  20.720  0.00  0.00    +0.000 A 
ATOM     10  C   UNL     1       2.034   5.844  20.883  0.00  0.00    +0.000 A 
ATOM     11  C   UNL     1       2.213   6.710  19.822  0.00  0.00    +0.000 A 
ATOM     12  C   UNL     1       2.715   6.283  18.576  0.00  0.00    +0.000 A 
BRANCH   8  13
ATOM     13  C   UNL     1       3.277   2.521  19.551  0.00  0.00    +0.000 C 
ATOM     14  C   UNL     1       2.775   1.731  18.341  0.00  0.00    +0.000 C 
ATOM     15  C   UNL     1       4.752   2.187  19.778  0.00  0.00    +0.000 C 
ENDBRANCH   8  13
BRANCH  12  16
ATOM     16  C   UNL     1       2.790   7.364  17.495  0.00  0.00    +0.000 C 
ATOM     17  C   UNL     1       1.822   8.508  17.847  0.00  0.00    +0.000 C 
ATOM     18  C   UNL     1       4.175   7.987  17.272  0.00  0.00    +0.000 C 
ENDBRANCH  12  16
ENDBRANCH   4   7
BRANCH   1  19
ATOM     19  S   UNL     1       7.256   5.316  16.957  0.00  0.00    +0.000 S 
ATOM     20  O   UNL     1       7.309   6.085  15.730  0.00  0.00    +0.000 OA
ATOM     21  O   UNL     1       7.863   4.029  17.096  0.00  0.00    +0.000 OA
BRANCH  19  22
ATOM     22  N   UNL     1       7.892   6.332  18.192  0.00  0.00    +0.000 NA
ATOM     23  C   UNL     1       7.407   5.994  19.542  0.00  0.00    +0.000 C 
BRANCH  22  24
ATOM     24  C   UNL     1       7.792   7.777  17.837  0.00  0.00    +0.000 C 
BRANCH  24  25
ATOM     25  C   UNL     1       8.659   8.713  18.680  0.00  0.00    +0.000 C 
BRANCH  25  26
ATOM     26  C   UNL     1       8.442  10.184  18.291  0.00  0.00    +0.000 C 
BRANCH  26  27
ATOM     27  C   UNL     1       9.778  10.920  18.153  0.00  0.00    +0.000 C 
BRANCH  27  28
ATOM     28  C   UNL     1      10.458  11.123  19.507  0.00  0.00    +0.000 C 
BRANCH  28  29
ATOM     29  C   UNL     1      10.916  12.572  19.680  0.00  0.00    +0.000 C 
BRANCH  29  31
ATOM     30  C   UNL     1       9.379  12.327  21.656  0.00  0.00    +0.000 C 
ATOM     31  C   UNL     1      10.067  13.305  20.718  0.00  0.00    +0.000 C 
ENDBRANCH  29  31
ENDBRANCH  28  29
ENDBRANCH  27  28
ENDBRANCH  26  27
ENDBRANCH  25  26
ENDBRANCH  24  25
ENDBRANCH  22  24
ENDBRANCH  19  22
ENDBRANCH   1  19
TORSDOF 12
ENDMDL
MODEL 5
REMARK VINA RESULT:      -6.4      3.981      6.574
REMARK  Name = 
REMARK  18 active torsions:
REMARK  status: ('A' for Active; 'I' for Inactive)
REMARK    1  A    between atoms: C_1  and  C_2
REMARK    2  A    between atoms: C_2  and  C_3
REMARK    3  A    between atoms: C_3  and  C_4
REMARK    4  A    between atoms: C_4  and  C_5
REMARK    5  A    between atoms: C_5  and  C_6
REMARK    6  A    between atoms: C_6  and  C_7
REMARK    7  A    between atoms: C_7  and  C_8
REMARK    8  A    between atoms: C_8  and  N_9
REMARK    9  A    between atoms: N_9  and  C_10
REMARK   10  A    between atoms: N_9  and  S_11
REMARK   11  A    between atoms: S_11  and  N_14
REMARK   12  A    between atoms: N_17  and  C_18
REMARK   13  A    between atoms: C_19  and  C_20
REMARK   14  A    between atoms: C_20  and  C_21
REMARK   15  A    between atoms: C_20  and  C_22
REMARK   16  A    between atoms: C_26  and  C_27
REMARK   17  A    between atoms: C_27  and  C_28
REMARK   18  A    between atoms: C_27  and  C_29
REMARK                            x       y       z     vdW  Elec       q    Type
REMARK                         _______ _______ _______ _____ _____    ______ ____
ROOT
ATOM      1  N   UNL     1       5.798   5.160  17.372  0.00  0.00    +0.000 N 
ATOM      2  C   UNL     1       4.796   4.757  16.473  0.00  0.00    +0.000 C 
ATOM      3  O   UNL     1       5.027   4.515  15.279  0.00  0.00    +0.000 OA
ATOM      4  N   UNL     1       3.516   4.589  16.995  0.00  0.00    +0.000 N 
ATOM      5  H   UNL     1       5.736   4.683  18.264  0.00  0.00    +0.000 HD
ATOM      6  H   UNL     1       2.850   4.089  16.416  0.00  0.00    +0.000 HD
ENDROOT
BRANCH   4   7
ATOM      7  C   UNL     1       3.176   4.857  18.338  0.00  0.00    +0.000 A 
ATOM      8  C   UNL     1       3.288   3.840  19.328  0.00  0.00    +0.000 A 
ATOM      9  C   UNL     1       2.799   4.118  20.631  0.00  0.00    +0.000 A 
ATOM     10  C   UNL     1       2.260   5.350  20.971  0.00  0.00    +0.000 A 
ATOM     11  C   UNL     1       2.194   6.336  20.007  0.00  0.00    +0.000 A 
ATOM     12  C   UNL     1       2.646   6.133  18.687  0.00  0.00    +0.000 A 
BRANCH   8  13
ATOM     13  C   UNL     1       3.915   2.450  19.179  0.00  0.00    +0.000 C 
ATOM     14  C   UNL     1       4.465   1.895  20.494  0.00  0.00    +0.000 C 
ATOM     15  C   UNL     1       3.067   1.370  18.506  0.00  0.00    +0.000 C 
ENDBRANCH   8  13
BRANCH  12  16
ATOM     16  C   UNL     1       2.440   7.314  17.736  0.00  0.00    +0.000 C 
ATOM     17  C   UNL     1       1.530   8.359  18.406  0.00  0.00    +0.000 C 
ATOM     18  C   UNL     1       3.717   8.038  17.288  0.00  0.00    +0.000 C 
ENDBRANCH  12  16
ENDBRANCH   4   7
BRANCH   1  19
ATOM     19  S   UNL     1       7.384   5.337  16.875  0.00  0.00    +0.000 S 
ATOM     20  O   UNL     1       7.418   6.006  15.590  0.00  0.00    +0.000 OA
ATOM     21  O   UNL     1       8.036   4.088  17.120  0.00  0.00    +0.000 OA
BRANCH  19  22
ATOM     22  N   UNL     1       7.975   6.472  18.026  0.00  0.00    +0.000 NA
ATOM     23  C   UNL     1       7.922   5.985  19.416  0.00  0.00    +0.000 C 
BRANCH  22  24
ATOM     24  C   UNL     1       7.400   7.832  17.819  0.00  0.00    +0.000 C 
BRANCH  24  25
ATOM     25  C   UNL     1       8.424   8.932  17.537  0.00  0.00    +0.000 C 
BRANCH  25  26
ATOM     26  C   UNL     1       8.441   9.986  18.655  0.00  0.00    +0.000 C 
BRANCH  26  27
ATOM     27  C   UNL     1       9.853  10.540  18.868  0.00  0.00    +0.000 C 
BRANCH  27  28
ATOM     28  C   UNL     1       9.974  11.296  20.192  0.00  0.00    +0.000 C 
BRANCH  28  29
ATOM     29  C   UNL     1      11.318  12.018  20.292  0.00  0.00    +0.000 C 
BRANCH  29  31
ATOM     30  C   UNL     1      10.783  14.181  19.125  0.00  0.00    +0.000 C 
ATOM     31  C   UNL     1      11.576  12.887  19.061  0.00  0.00    +0.000 C 
ENDBRANCH  29  31
ENDBRANCH  28  29
ENDBRANCH  27  28
ENDBRANCH  26  27
ENDBRANCH  25  26
ENDBRANCH  24  25
ENDBRANCH  22  24
ENDBRANCH  19  22
ENDBRANCH   1  19
TORSDOF 12
ENDMDL
MODEL 6
REMARK VINA RESULT:      -6.1      4.088      7.057
REMARK  Name = 
REMARK  18 active torsions:
REMARK  status: ('A' for Active; 'I' for Inactive)
REMARK    1  A    between atoms: C_1  and  C_2
REMARK    2  A    between atoms: C_2  and  C_3
REMARK    3  A    between atoms: C_3  and  C_4
REMARK    4  A    between atoms: C_4  and  C_5
REMARK    5  A    between atoms: C_5  and  C_6
REMARK    6  A    between atoms: C_6  and  C_7
REMARK    7  A    between atoms: C_7  and  C_8
REMARK    8  A    between atoms: C_8  and  N_9
REMARK    9  A    between atoms: N_9  and  C_10
REMARK   10  A    between atoms: N_9  and  S_11
REMARK   11  A    between atoms: S_11  and  N_14
REMARK   12  A    between atoms: N_17  and  C_18
REMARK   13  A    between atoms: C_19  and  C_20
REMARK   14  A    between atoms: C_20  and  C_21
REMARK   15  A    between atoms: C_20  and  C_22
REMARK   16  A    between atoms: C_26  and  C_27
REMARK   17  A    between atoms: C_27  and  C_28
REMARK   18  A    between atoms: C_27  and  C_29
REMARK                            x       y       z     vdW  Elec       q    Type
REMARK                         _______ _______ _______ _____ _____    ______ ____
ROOT
ATOM      1  N   UNL     1       5.723   5.217  17.393  0.00  0.00    +0.000 N 
ATOM      2  C   UNL     1       4.802   4.717  16.457  0.00  0.00    +0.000 C 
ATOM      3  O   UNL     1       5.126   4.391  15.307  0.00  0.00    +0.000 OA
ATOM      4  N   UNL     1       3.490   4.552  16.897  0.00  0.00    +0.000 N 
ATOM      5  H   UNL     1       5.606   4.808  18.312  0.00  0.00    +0.000 HD
ATOM      6  H   UNL     1       2.881   3.989  16.312  0.00  0.00    +0.000 HD
ENDROOT
BRANCH   4   7
ATOM      7  C   UNL     1       3.044   4.912  18.185  0.00  0.00    +0.000 A 
ATOM      8  C   UNL     1       2.717   6.266  18.484  0.00  0.00    +0.000 A 
ATOM      9  C   UNL     1       2.413   6.599  19.829  0.00  0.00    +0.000 A 
ATOM     10  C   UNL     1       2.387   5.649  20.839  0.00  0.00    +0.000 A 
ATOM     11  C   UNL     1       2.670   4.335  20.523  0.00  0.00    +0.000 A 
ATOM     12  C   UNL     1       2.996   3.927  19.214  0.00  0.00    +0.000 A 
BRANCH   8  13
ATOM     13  C   UNL     1       2.615   7.443  17.508  0.00  0.00    +0.000 C 
ATOM     14  C   UNL     1       1.629   8.519  17.967  0.00  0.00    +0.000 C 
ATOM     15  C   UNL     1       3.922   8.120  17.092  0.00  0.00    +0.000 C 
ENDBRANCH   8  13
BRANCH  12  16
ATOM     16  C   UNL     1       3.342   2.444  19.058  0.00  0.00    +0.000 C 
ATOM     17  C   UNL     1       4.311   2.024  20.177  0.00  0.00    +0.000 C 
ATOM     18  C   UNL     1       2.151   1.476  19.094  0.00  0.00    +0.000 C 
ENDBRANCH  12  16
ENDBRANCH   4   7
BRANCH   1  19
ATOM     19  S   UNL     1       7.337   5.402  17.000  0.00  0.00    +0.000 S 
ATOM     20  O   UNL     1       7.454   6.133  15.754  0.00  0.00    +0.000 OA
ATOM     21  O   UNL     1       7.964   4.136  17.221  0.00  0.00    +0.000 OA
BRANCH  19  22
ATOM     22  N   UNL     1       7.867   6.473  18.240  0.00  0.00    +0.000 NA
ATOM     23  C   UNL     1       7.753   5.907  19.596  0.00  0.00    +0.000 C 
BRANCH  22  24
ATOM     24  C   UNL     1       7.292   7.840  18.084  0.00  0.00    +0.000 C 
BRANCH  24  25
ATOM     25  C   UNL     1       8.287   8.915  17.646  0.00  0.00    +0.000 C 
BRANCH  25  26
ATOM     26  C   UNL     1       8.826   9.706  18.848  0.00  0.00    +0.000 C 
BRANCH  26  27
ATOM     27  C   UNL     1       9.776  10.818  18.393  0.00  0.00    +0.000 C 
BRANCH  27  28
ATOM     28  C   UNL     1       9.384  12.176  18.977  0.00  0.00    +0.000 C 
BRANCH  28  29
ATOM     29  C   UNL     1       9.213  13.220  17.872  0.00  0.00    +0.000 C 
BRANCH  29  31
ATOM     30  C   UNL     1      10.525  15.359  17.694  0.00  0.00    +0.000 C 
ATOM     31  C   UNL     1      10.551  13.853  17.492  0.00  0.00    +0.000 C 
ENDBRANCH  29  31
ENDBRANCH  28  29
ENDBRANCH  27  28
ENDBRANCH  26  27
ENDBRANCH  25  26
ENDBRANCH  24  25
ENDBRANCH  22  24
ENDBRANCH  19  22
ENDBRANCH   1  19
TORSDOF 12
ENDMDL
MODEL 7
REMARK VINA RESULT:      -6.1      3.675      7.219
REMARK  Name = 
REMARK  18 active torsions:
REMARK  status: ('A' for Active; 'I' for Inactive)
REMARK    1  A    between atoms: C_1  and  C_2
REMARK    2  A    between atoms: C_2  and  C_3
REMARK    3  A    between atoms: C_3  and  C_4
REMARK    4  A    between atoms: C_4  and  C_5
REMARK    5  A    between atoms: C_5  and  C_6
REMARK    6  A    between atoms: C_6  and  C_7
REMARK    7  A    between atoms: C_7  and  C_8
REMARK    8  A    between atoms: C_8  and  N_9
REMARK    9  A    between atoms: N_9  and  C_10
REMARK   10  A    between atoms: N_9  and  S_11
REMARK   11  A    between atoms: S_11  and  N_14
REMARK   12  A    between atoms: N_17  and  C_18
REMARK   13  A    between atoms: C_19  and  C_20
REMARK   14  A    between atoms: C_20  and  C_21
REMARK   15  A    between atoms: C_20  and  C_22
REMARK   16  A    between atoms: C_26  and  C_27
REMARK   17  A    between atoms: C_27  and  C_28
REMARK   18  A    between atoms: C_27  and  C_29
REMARK                            x       y       z     vdW  Elec       q    Type
REMARK                         _______ _______ _______ _____ _____    ______ ____
ROOT
ATOM      1  N   UNL     1       5.590   5.138  17.416  0.00  0.00    +0.000 N 
ATOM      2  C   UNL     1       4.651   4.550  16.550  0.00  0.00    +0.000 C 
ATOM      3  O   UNL     1       4.951   4.131  15.423  0.00  0.00    +0.000 OA
ATOM      4  N   UNL     1       3.354   4.408  17.037  0.00  0.00    +0.000 N 
ATOM      5  H   UNL     1       5.501   4.807  18.369  0.00  0.00    +0.000 HD
ATOM      6  H   UNL     1       2.738   3.791  16.518  0.00  0.00    +0.000 HD
ENDROOT
BRANCH   4   7
ATOM      7  C   UNL     1       2.936   4.872  18.302  0.00  0.00    +0.000 A 
ATOM      8  C   UNL     1       2.729   6.262  18.528  0.00  0.00    +0.000 A 
ATOM      9  C   UNL     1       2.449   6.689  19.853  0.00  0.00    +0.000 A 
ATOM     10  C   UNL     1       2.335   5.798  20.909  0.00  0.00    +0.000 A 
ATOM     11  C   UNL     1       2.503   4.450  20.663  0.00  0.00    +0.000 A 
ATOM     12  C   UNL     1       2.797   3.948  19.379  0.00  0.00    +0.000 A 
BRANCH   8  13
ATOM     13  C   UNL     1       2.734   7.392  17.494  0.00  0.00    +0.000 C 
ATOM     14  C   UNL     1       1.821   8.559  17.875  0.00  0.00    +0.000 C 
ATOM     15  C   UNL     1       4.096   7.951  17.077  0.00  0.00    +0.000 C 
ENDBRANCH   8  13
BRANCH  12  16
ATOM     16  C   UNL     1       3.012   2.435  19.301  0.00  0.00    +0.000 C 
ATOM     17  C   UNL     1       2.456   1.907  17.966  0.00  0.00    +0.000 C 
ATOM     18  C   UNL     1       4.469   1.964  19.409  0.00  0.00    +0.000 C 
ENDBRANCH  12  16
ENDBRANCH   4   7
BRANCH   1  19
ATOM     19  S   UNL     1       7.191   5.307  16.966  0.00  0.00    +0.000 S 
ATOM     20  O   UNL     1       7.270   6.032  15.713  0.00  0.00    +0.000 OA
ATOM     21  O   UNL     1       7.814   4.037  17.171  0.00  0.00    +0.000 OA
BRANCH  19  22
ATOM     22  N   UNL     1       7.772   6.379  18.181  0.00  0.00    +0.000 NA
ATOM     23  C   UNL     1       7.315   6.034  19.540  0.00  0.00    +0.000 C 
BRANCH  22  24
ATOM     24  C   UNL     1       7.585   7.809  17.804  0.00  0.00    +0.000 C 
BRANCH  24  25
ATOM     25  C   UNL     1       8.414   8.806  18.614  0.00  0.00    +0.000 C 
BRANCH  25  26
ATOM     26  C   UNL     1       8.698  10.085  17.810  0.00  0.00    +0.000 C 
BRANCH  26  27
ATOM     27  C   UNL     1       9.642  11.018  18.576  0.00  0.00    +0.000 C 
BRANCH  27  28
ATOM     28  C   UNL     1       9.561  10.794  20.087  0.00  0.00    +0.000 C 
BRANCH  28  29
ATOM     29  C   UNL     1      10.316  11.887  20.846  0.00  0.00    +0.000 C 
BRANCH  29  31
ATOM     30  C   UNL     1       8.463  11.853  22.547  0.00  0.00    +0.000 C 
ATOM     31  C   UNL     1       9.367  12.730  21.697  0.00  0.00    +0.000 C 
ENDBRANCH  29  31
ENDBRANCH  28  29
ENDBRANCH  27  28
ENDBRANCH  26  27
ENDBRANCH  25  26
ENDBRANCH  24  25
ENDBRANCH  22  24
ENDBRANCH  19  22
ENDBRANCH   1  19
TORSDOF 12
ENDMDL
MODEL 8
REMARK VINA RESULT:      -6.1      1.029      3.595
REMARK  Name = 
REMARK  18 active torsions:
REMARK  status: ('A' for Active; 'I' for Inactive)
REMARK    1  A    between atoms: C_1  and  C_2
REMARK    2  A    between atoms: C_2  and  C_3
REMARK    3  A    between atoms: C_3  and  C_4
REMARK    4  A    between atoms: C_4  and  C_5
REMARK    5  A    between atoms: C_5  and  C_6
REMARK    6  A    between atoms: C_6  and  C_7
REMARK    7  A    between atoms: C_7  and  C_8
REMARK    8  A    between atoms: C_8  and  N_9
REMARK    9  A    between atoms: N_9  and  C_10
REMARK   10  A    between atoms: N_9  and  S_11
REMARK   11  A    between atoms: S_11  and  N_14
REMARK   12  A    between atoms: N_17  and  C_18
REMARK   13  A    between atoms: C_19  and  C_20
REMARK   14  A    between atoms: C_20  and  C_21
REMARK   15  A    between atoms: C_20  and  C_22
REMARK   16  A    between atoms: C_26  and  C_27
REMARK   17  A    between atoms: C_27  and  C_28
REMARK   18  A    between atoms: C_27  and  C_29
REMARK                            x       y       z     vdW  Elec       q    Type
REMARK                         _______ _______ _______ _____ _____    ______ ____
ROOT
ATOM      1  N   UNL     1       5.939   5.224  17.899  0.00  0.00    +0.000 N 
ATOM      2  C   UNL     1       5.940   5.314  19.302  0.00  0.00    +0.000 C 
ATOM      3  O   UNL     1       6.951   5.610  19.953  0.00  0.00    +0.000 OA
ATOM      4  N   UNL     1       4.722   5.100  19.943  0.00  0.00    +0.000 N 
ATOM      5  H   UNL     1       5.128   5.663  17.481  0.00  0.00    +0.000 HD
ATOM      6  H   UNL     1       4.664   5.381  20.917  0.00  0.00    +0.000 HD
ENDROOT
BRANCH   4   7
ATOM      7  C   UNL     1       3.534   4.745  19.271  0.00  0.00    +0.000 A 
ATOM      8  C   UNL     1       2.551   5.733  18.974  0.00  0.00    +0.000 A 
ATOM      9  C   UNL     1       1.314   5.301  18.426  0.00  0.00    +0.000 A 
ATOM     10  C   UNL     1       1.057   3.969  18.141  0.00  0.00    +0.000 A 
ATOM     11  C   UNL     1       2.036   3.031  18.402  0.00  0.00    +0.000 A 
ATOM     12  C   UNL     1       3.284   3.377  18.957  0.00  0.00    +0.000 A 
BRANCH   8  13
ATOM     13  C   UNL     1       2.666   7.251  19.141  0.00  0.00    +0.000 C 
ATOM     14  C   UNL     1       2.674   8.002  17.808  0.00  0.00    +0.000 C 
ATOM     15  C   UNL     1       1.667   7.928  20.081  0.00  0.00    +0.000 C 
ENDBRANCH   8  13
BRANCH  12  16
ATOM     16  C   UNL     1       4.225   2.203  19.237  0.00  0.00    +0.000 C 
ATOM     17  C   UNL     1       4.176   1.854  20.735  0.00  0.00    +0.000 C 
ATOM     18  C   UNL     1       3.930   0.915  18.456  0.00  0.00    +0.000 C 
ENDBRANCH  12  16
ENDBRANCH   4   7
BRANCH   1  19
ATOM     19  S   UNL     1       7.327   5.519  17.015  0.00  0.00    +0.000 S 
ATOM     20  O   UNL     1       8.131   4.314  16.957  0.00  0.00    +0.000 OA
ATOM     21  O   UNL     1       7.840   6.776  17.460  0.00  0.00    +0.000 OA
BRANCH  19  22
ATOM     22  N   UNL     1       6.681   5.744  15.436  0.00  0.00    +0.000 NA
ATOM     23  C   UNL     1       5.365   6.410  15.426  0.00  0.00    +0.000 C 
BRANCH  22  24
ATOM     24  C   UNL     1       6.757   4.502  14.615  0.00  0.00    +0.000 C 
BRANCH  24  25
ATOM     25  C   UNL     1       5.420   4.006  14.065  0.00  0.00    +0.000 C 
BRANCH  25  26
ATOM     26  C   UNL     1       5.294   4.280  12.558  0.00  0.00    +0.000 C 
BRANCH  26  27
ATOM     27  C   UNL     1       4.215   3.395  11.926  0.00  0.00    +0.000 C 
BRANCH  27  28
ATOM     28  C   UNL     1       4.810   2.387  10.942  0.00  0.00    +0.000 C 
BRANCH  28  29
ATOM     29  C   UNL     1       5.930   1.576  11.596  0.00  0.00    +0.000 C 
BRANCH  29  31
ATOM     30  C   UNL     1       6.008  -0.933  11.448  0.00  0.00    +0.000 C 
ATOM     31  C   UNL     1       6.320   0.373  10.738  0.00  0.00    +0.000 C 
ENDBRANCH  29  31
ENDBRANCH  28  29
ENDBRANCH  27  28
ENDBRANCH  26  27
ENDBRANCH  25  26
ENDBRANCH  24  25
ENDBRANCH  22  24
ENDBRANCH  19  22
ENDBRANCH   1  19
TORSDOF 12
ENDMDL
MODEL 9
REMARK VINA RESULT:      -5.9      1.000      1.413
REMARK  Name = 
REMARK  18 active torsions:
REMARK  status: ('A' for Active; 'I' for Inactive)
REMARK    1  A    between atoms: C_1  and  C_2
REMARK    2  A    between atoms: C_2  and  C_3
REMARK    3  A    between atoms: C_3  and  C_4
REMARK    4  A    between atoms: C_4  and  C_5
REMARK    5  A    between atoms: C_5  and  C_6
REMARK    6  A    between atoms: C_6  and  C_7
REMARK    7  A    between atoms: C_7  and  C_8
REMARK    8  A    between atoms: C_8  and  N_9
REMARK    9  A    between atoms: N_9  and  C_10
REMARK   10  A    between atoms: N_9  and  S_11
REMARK   11  A    between atoms: S_11  and  N_14
REMARK   12  A    between atoms: N_17  and  C_18
REMARK   13  A    between atoms: C_19  and  C_20
REMARK   14  A    between atoms: C_20  and  C_21
REMARK   15  A    between atoms: C_20  and  C_22
REMARK   16  A    between atoms: C_26  and  C_27
REMARK   17  A    between atoms: C_27  and  C_28
REMARK   18  A    between atoms: C_27  and  C_29
REMARK                            x       y       z     vdW  Elec       q    Type
REMARK                         _______ _______ _______ _____ _____    ______ ____
ROOT
ATOM      1  N   UNL     1       6.025   5.043  17.969  0.00  0.00    +0.000 N 
ATOM      2  C   UNL     1       5.957   5.468  19.307  0.00  0.00    +0.000 C 
ATOM      3  O   UNL     1       6.953   5.846  19.939  0.00  0.00    +0.000 OA
ATOM      4  N   UNL     1       4.694   5.494  19.892  0.00  0.00    +0.000 N 
ATOM      5  H   UNL     1       5.275   5.420  17.402  0.00  0.00    +0.000 HD
ATOM      6  H   UNL     1       4.606   6.004  20.765  0.00  0.00    +0.000 HD
ENDROOT
BRANCH   4   7
ATOM      7  C   UNL     1       3.519   5.065  19.240  0.00  0.00    +0.000 A 
ATOM      8  C   UNL     1       3.022   3.746  19.440  0.00  0.00    +0.000 A 
ATOM      9  C   UNL     1       1.921   3.319  18.652  0.00  0.00    +0.000 A 
ATOM     10  C   UNL     1       1.301   4.154  17.734  0.00  0.00    +0.000 A 
ATOM     11  C   UNL     1       1.774   5.442  17.581  0.00  0.00    +0.000 A 
ATOM     12  C   UNL     1       2.870   5.936  18.316  0.00  0.00    +0.000 A 
BRANCH   8  13
ATOM     13  C   UNL     1       3.512   2.702  20.448  0.00  0.00    +0.000 C 
ATOM     14  C   UNL     1       2.385   2.119  21.304  0.00  0.00    +0.000 C 
ATOM     15  C   UNL     1       4.362   1.552  19.905  0.00  0.00    +0.000 C 
ENDBRANCH   8  13
BRANCH  12  16
ATOM     16  C   UNL     1       3.297   7.365  17.973  0.00  0.00    +0.000 C 
ATOM     17  C   UNL     1       4.089   7.361  16.653  0.00  0.00    +0.000 C 
ATOM     18  C   UNL     1       2.157   8.381  17.822  0.00  0.00    +0.000 C 
ENDBRANCH  12  16
ENDBRANCH   4   7
BRANCH   1  19
ATOM     19  S   UNL     1       7.477   5.026  17.141  0.00  0.00    +0.000 S 
ATOM     20  O   UNL     1       8.369   4.056  17.744  0.00  0.00    +0.000 OA
ATOM     21  O   UNL     1       7.844   6.391  16.924  0.00  0.00    +0.000 OA
BRANCH  19  22
ATOM     22  N   UNL     1       6.996   4.365  15.627  0.00  0.00    +0.000 NA
ATOM     23  C   UNL     1       7.605   5.042  14.467  0.00  0.00    +0.000 C 
BRANCH  22  24
ATOM     24  C   UNL     1       5.519   4.183  15.537  0.00  0.00    +0.000 C 
BRANCH  24  25
ATOM     25  C   UNL     1       4.942   4.247  14.123  0.00  0.00    +0.000 C 
BRANCH  25  26
ATOM     26  C   UNL     1       5.442   3.079  13.258  0.00  0.00    +0.000 C 
BRANCH  26  27
ATOM     27  C   UNL     1       5.627   3.513  11.800  0.00  0.00    +0.000 C 
BRANCH  27  28
ATOM     28  C   UNL     1       4.732   2.715  10.851  0.00  0.00    +0.000 C 
BRANCH  28  29
ATOM     29  C   UNL     1       3.253   2.966  11.150  0.00  0.00    +0.000 C 
BRANCH  29  31
ATOM     30  C   UNL     1       3.042   4.644   9.288  0.00  0.00    +0.000 C 
ATOM     31  C   UNL     1       2.489   3.361   9.886  0.00  0.00    +0.000 C 
ENDBRANCH  29  31
ENDBRANCH  28  29
ENDBRANCH  27  28
ENDBRANCH  26  27
ENDBRANCH  25  26
ENDBRANCH  24  25
ENDBRANCH  22  24
ENDBRANCH  19  22
ENDBRANCH   1  19
TORSDOF 12
ENDMDL
