MODEL 1
REMARK VINA RESULT:      -6.4      0.000      0.000
REMARK  Name = 
REMARK  8 active torsions:
REMARK  status: ('A' for Active; 'I' for Inactive)
REMARK    1  A    between atoms: C_1  and  C_2
REMARK    2  A    between atoms: C_2  and  C_3
REMARK    3  A    between atoms: C_2  and  C_5
REMARK    4  A    between atoms: C_3  and  S_4
REMARK    5  A    between atoms: N_7  and  CA_8
REMARK    6  A    between atoms: CA_8  and  C_9
REMARK    7  A    between atoms: CA_8  and  C_12
REMARK    8  A    between atoms: C_9  and  OXT_11
REMARK                            x       y       z     vdW  Elec       q    Type
REMARK                         _______ _______ _______ _____ _____    ______ ____
ROOT
ATOM      1  CA  UNL     1       5.935   4.917  16.022  0.00  0.00    +0.000 C 
ENDROOT
BRANCH   1   2
ATOM      2  C   UNL     1       6.765   5.727  17.009  0.00  0.00    +0.000 A 
ATOM      3  C   UNL     1       6.947   7.107  16.810  0.00  0.00    +0.000 A 
ATOM      4  C   UNL     1       7.720   7.861  17.698  0.00  0.00    +0.000 A 
ATOM      5  C   UNL     1       8.311   7.251  18.801  0.00  0.00    +0.000 A 
ATOM      6  C   UNL     1       8.123   5.889  19.025  0.00  0.00    +0.000 A 
ATOM      7  C   UNL     1       7.350   5.134  18.142  0.00  0.00    +0.000 A 
ENDBRANCH   1   2
BRANCH   1  10
ATOM      8  C   UNL     1       4.161   3.769  17.362  0.00  0.00    +0.000 C 
ATOM      9  O   UNL     1       3.447   4.771  17.326  0.00  0.00    +0.000 OA
ATOM     10  N   UNL     1       5.363   3.754  16.715  0.00  0.00    +0.000 N 
ATOM     11  H   UNL     1       5.792   2.855  16.518  0.00  0.00    +0.000 HD
BRANCH   8  13
ATOM     12  C   UNL     1       2.242   2.181  17.809  0.00  0.00    +0.000 C 
ATOM     13  C   UNL     1       3.720   2.479  18.048  0.00  0.00    +0.000 C 
BRANCH  13  14
ATOM     14  C   UNL     1       4.121   2.416  19.528  0.00  0.00    +0.000 C 
BRANCH  14  15
ATOM     15  S   UNL     1       2.819   2.835  20.738  0.00  0.00    +0.000 S 
ATOM     16  H   UNL     1       3.595   2.845  21.832  0.00  0.00    +0.000 HD
ENDBRANCH  14  15
ENDBRANCH  13  14
ENDBRANCH   8  13
ENDBRANCH   1  10
BRANCH   1  17
ATOM     17  C   UNL     1       6.711   4.547  14.725  0.00  0.00    +0.000 C 
ATOM     18  O   UNL     1       7.511   5.271  14.143  0.00  0.00    +0.000 OA
BRANCH  17  19
ATOM     19  OXT UNL     1       6.342   3.358  14.176  0.00  0.00    +0.000 OA
ATOM     20  HXT UNL     1       6.964   2.622  14.399  0.00  0.00    +0.000 HD
ENDBRANCH  17  19
ENDBRANCH   1  17
TORSDOF 7
ENDMDL
MODEL 2
REMARK VINA RESULT:      -6.3      3.153      5.402
REMARK  Name = 
REMARK  8 active torsions:
REMARK  status: ('A' for Active; 'I' for Inactive)
REMARK    1  A    between atoms: C_1  and  C_2
REMARK    2  A    between atoms: C_2  and  C_3
REMARK    3  A    between atoms: C_2  and  C_5
REMARK    4  A    between atoms: C_3  and  S_4
REMARK    5  A    between atoms: N_7  and  CA_8
REMARK    6  A    between atoms: CA_8  and  C_9
REMARK    7  A    between atoms: CA_8  and  C_12
REMARK    8  A    between atoms: C_9  and  OXT_11
REMARK                            x       y       z     vdW  Elec       q    Type
REMARK                         _______ _______ _______ _____ _____    ______ ____
ROOT
ATOM      1  CA  UNL     1       5.864   5.004  16.637  0.00  0.00    +0.000 C 
ENDROOT
BRANCH   1   2
ATOM      2  C   UNL     1       4.439   5.003  17.173  0.00  0.00    +0.000 A 
ATOM      3  C   UNL     1       3.669   3.828  17.125  0.00  0.00    +0.000 A 
ATOM      4  C   UNL     1       2.353   3.815  17.598  0.00  0.00    +0.000 A 
ATOM      5  C   UNL     1       1.793   4.972  18.134  0.00  0.00    +0.000 A 
ATOM      6  C   UNL     1       2.549   6.140  18.210  0.00  0.00    +0.000 A 
ATOM      7  C   UNL     1       3.864   6.154  17.741  0.00  0.00    +0.000 A 
ENDBRANCH   1   2
BRANCH   1  10
ATOM      8  C   UNL     1       6.707   4.608  14.315  0.00  0.00    +0.000 C 
ATOM      9  O   UNL     1       7.521   5.525  14.425  0.00  0.00    +0.000 OA
ATOM     10  N   UNL     1       5.901   4.272  15.364  0.00  0.00    +0.000 N 
ATOM     11  H   UNL     1       5.456   3.359  15.355  0.00  0.00    +0.000 HD
BRANCH   8  13
ATOM     12  C   UNL     1       7.132   4.488  11.823  0.00  0.00    +0.000 C 
ATOM     13  C   UNL     1       6.609   3.753  13.055  0.00  0.00    +0.000 C 
BRANCH  13  14
ATOM     14  C   UNL     1       5.217   3.139  12.851  0.00  0.00    +0.000 C 
BRANCH  14  15
ATOM     15  S   UNL     1       4.477   3.343  11.194  0.00  0.00    +0.000 S 
ATOM     16  H   UNL     1       3.723   4.417  11.472  0.00  0.00    +0.000 HD
ENDBRANCH  14  15
ENDBRANCH  13  14
ENDBRANCH   8  13
ENDBRANCH   1  10
BRANCH   1  17
ATOM     17  C   UNL     1       6.910   4.500  17.674  0.00  0.00    +0.000 C 
ATOM     18  O   UNL     1       6.763   4.500  18.891  0.00  0.00    +0.000 OA
BRANCH  17  19
ATOM     19  OXT UNL     1       8.108   4.153  17.131  0.00  0.00    +0.000 OA
ATOM     20  HXT UNL     1       8.867   4.656  17.519  0.00  0.00    +0.000 HD
ENDBRANCH  17  19
ENDBRANCH   1  17
TORSDOF 7
ENDMDL
MODEL 3
REMARK VINA RESULT:      -6.3      2.783      3.906
REMARK  Name = 
REMARK  8 active torsions:
REMARK  status: ('A' for Active; 'I' for Inactive)
REMARK    1  A    between atoms: C_1  and  C_2
REMARK    2  A    between atoms: C_2  and  C_3
REMARK    3  A    between atoms: C_2  and  C_5
REMARK    4  A    between atoms: C_3  and  S_4
REMARK    5  A    between atoms: N_7  and  CA_8
REMARK    6  A    between atoms: CA_8  and  C_9
REMARK    7  A    between atoms: CA_8  and  C_12
REMARK    8  A    between atoms: C_9  and  OXT_11
REMARK                            x       y       z     vdW  Elec       q    Type
REMARK                         _______ _______ _______ _____ _____    ______ ____
ROOT
ATOM      1  CA  UNL     1       6.447   4.890  18.771  0.00  0.00    +0.000 C 
ENDROOT
BRANCH   1   2
ATOM      2  C   UNL     1       6.274   5.040  17.265  0.00  0.00    +0.000 A 
ATOM      3  C   UNL     1       7.098   4.316  16.385  0.00  0.00    +0.000 A 
ATOM      4  C   UNL     1       6.962   4.455  15.001  0.00  0.00    +0.000 A 
ATOM      5  C   UNL     1       5.996   5.311  14.477  0.00  0.00    +0.000 A 
ATOM      6  C   UNL     1       5.158   6.020  15.333  0.00  0.00    +0.000 A 
ATOM      7  C   UNL     1       5.289   5.880  16.716  0.00  0.00    +0.000 A 
ENDBRANCH   1   2
BRANCH   1  10
ATOM      8  C   UNL     1       4.339   4.010  19.792  0.00  0.00    +0.000 C 
ATOM      9  O   UNL     1       4.725   2.850  19.656  0.00  0.00    +0.000 OA
ATOM     10  N   UNL     1       5.142   5.052  19.424  0.00  0.00    +0.000 N 
ATOM     11  H   UNL     1       4.935   5.973  19.798  0.00  0.00    +0.000 HD
BRANCH   8  13
ATOM     12  C   UNL     1       2.411   3.163  21.194  0.00  0.00    +0.000 C 
ATOM     13  C   UNL     1       3.003   4.354  20.445  0.00  0.00    +0.000 C 
BRANCH  13  14
ATOM     14  C   UNL     1       2.013   5.017  19.477  0.00  0.00    +0.000 C 
BRANCH  14  15
ATOM     15  S   UNL     1       1.806   4.211  17.852  0.00  0.00    +0.000 S 
ATOM     16  H   UNL     1       0.618   4.750  17.542  0.00  0.00    +0.000 HD
ENDBRANCH  14  15
ENDBRANCH  13  14
ENDBRANCH   8  13
ENDBRANCH   1  10
BRANCH   1  17
ATOM     17  C   UNL     1       7.555   5.813  19.357  0.00  0.00    +0.000 C 
ATOM     18  O   UNL     1       8.089   6.746  18.767  0.00  0.00    +0.000 OA
BRANCH  17  19
ATOM     19  OXT UNL     1       8.006   5.431  20.582  0.00  0.00    +0.000 OA
ATOM     20  HXT UNL     1       8.784   5.960  20.887  0.00  0.00    +0.000 HD
ENDBRANCH  17  19
ENDBRANCH   1  17
TORSDOF 7
ENDMDL
MODEL 4
REMARK VINA RESULT:      -6.3      3.112      6.217
REMARK  Name = 
REMARK  8 active torsions:
REMARK  status: ('A' for Active; 'I' for Inactive)
REMARK    1  A    between atoms: C_1  and  C_2
REMARK    2  A    between atoms: C_2  and  C_3
REMARK    3  A    between atoms: C_2  and  C_5
REMARK    4  A    between atoms: C_3  and  S_4
REMARK    5  A    between atoms: N_7  and  CA_8
REMARK    6  A    between atoms: CA_8  and  C_9
REMARK    7  A    between atoms: CA_8  and  C_12
REMARK    8  A    between atoms: C_9  and  OXT_11
REMARK                            x       y       z     vdW  Elec       q    Type
REMARK                         _______ _______ _______ _____ _____    ______ ____
ROOT
ATOM      1  CA  UNL     1       4.680   2.782  20.122  0.00  0.00    +0.000 C 
ENDROOT
BRANCH   1   2
ATOM      2  C   UNL     1       3.181   2.849  19.856  0.00  0.00    +0.000 A 
ATOM      3  C   UNL     1       2.318   3.394  20.822  0.00  0.00    +0.000 A 
ATOM      4  C   UNL     1       0.939   3.447  20.600  0.00  0.00    +0.000 A 
ATOM      5  C   UNL     1       0.405   2.968  19.407  0.00  0.00    +0.000 A 
ATOM      6  C   UNL     1       1.248   2.444  18.429  0.00  0.00    +0.000 A 
ATOM      7  C   UNL     1       2.626   2.392  18.647  0.00  0.00    +0.000 A 
ENDBRANCH   1   2
BRANCH   1  10
ATOM      8  C   UNL     1       5.730   4.580  18.734  0.00  0.00    +0.000 C 
ATOM      9  O   UNL     1       5.496   5.423  19.600  0.00  0.00    +0.000 OA
ATOM     10  N   UNL     1       5.400   3.271  18.938  0.00  0.00    +0.000 N 
ATOM     11  H   UNL     1       5.847   2.567  18.359  0.00  0.00    +0.000 HD
BRANCH   8  13
ATOM     12  C   UNL     1       7.317   6.181  17.585  0.00  0.00    +0.000 C 
ATOM     13  C   UNL     1       6.464   4.923  17.441  0.00  0.00    +0.000 C 
BRANCH  13  14
ATOM     14  C   UNL     1       5.543   4.949  16.214  0.00  0.00    +0.000 C 
BRANCH  14  15
ATOM     15  S   UNL     1       6.162   4.103  14.719  0.00  0.00    +0.000 S 
ATOM     16  H   UNL     1       5.313   4.658  13.842  0.00  0.00    +0.000 HD
ENDBRANCH  14  15
ENDBRANCH  13  14
ENDBRANCH   8  13
ENDBRANCH   1  10
BRANCH   1  17
ATOM     17  C   UNL     1       5.156   1.381  20.605  0.00  0.00    +0.000 C 
ATOM     18  O   UNL     1       5.627   1.132  21.708  0.00  0.00    +0.000 OA
BRANCH  17  19
ATOM     19  OXT UNL     1       5.130   0.422  19.640  0.00  0.00    +0.000 OA
ATOM     20  HXT UNL     1       4.353   0.508  19.033  0.00  0.00    +0.000 HD
ENDBRANCH  17  19
ENDBRANCH   1  17
TORSDOF 7
ENDMDL
MODEL 5
REMARK VINA RESULT:      -6.3      2.670      3.755
REMARK  Name = 
REMARK  8 active torsions:
REMARK  status: ('A' for Active; 'I' for Inactive)
REMARK    1  A    between atoms: C_1  and  C_2
REMARK    2  A    between atoms: C_2  and  C_3
REMARK    3  A    between atoms: C_2  and  C_5
REMARK    4  A    between atoms: C_3  and  S_4
REMARK    5  A    between atoms: N_7  and  CA_8
REMARK    6  A    between atoms: CA_8  and  C_9
REMARK    7  A    between atoms: CA_8  and  C_12
REMARK    8  A    between atoms: C_9  and  OXT_11
REMARK                            x       y       z     vdW  Elec       q    Type
REMARK                         _______ _______ _______ _____ _____    ______ ____
ROOT
ATOM      1  CA  UNL     1       6.404   4.807  18.705  0.00  0.00    +0.000 C 
ENDROOT
BRANCH   1   2
ATOM      2  C   UNL     1       6.265   4.970  17.197  0.00  0.00    +0.000 A 
ATOM      3  C   UNL     1       5.306   5.851  16.669  0.00  0.00    +0.000 A 
ATOM      4  C   UNL     1       5.155   6.000  15.287  0.00  0.00    +0.000 A 
ATOM      5  C   UNL     1       5.968   5.279  14.415  0.00  0.00    +0.000 A 
ATOM      6  C   UNL     1       6.938   4.417  14.921  0.00  0.00    +0.000 A 
ATOM      7  C   UNL     1       7.092   4.269  16.300  0.00  0.00    +0.000 A 
ENDBRANCH   1   2
BRANCH   1  10
ATOM      8  C   UNL     1       4.325   3.844  19.712  0.00  0.00    +0.000 C 
ATOM      9  O   UNL     1       4.778   2.703  19.624  0.00  0.00    +0.000 OA
ATOM     10  N   UNL     1       5.076   4.917  19.325  0.00  0.00    +0.000 N 
ATOM     11  H   UNL     1       4.810   5.836  19.663  0.00  0.00    +0.000 HD
BRANCH   8  13
ATOM     12  C   UNL     1       2.617   3.156  21.447  0.00  0.00    +0.000 C 
ATOM     13  C   UNL     1       2.958   4.133  20.324  0.00  0.00    +0.000 C 
BRANCH  13  14
ATOM     14  C   UNL     1       1.844   4.267  19.277  0.00  0.00    +0.000 C 
BRANCH  14  15
ATOM     15  S   UNL     1       1.062   2.714  18.723  0.00  0.00    +0.000 S 
ATOM     16  H   UNL     1       1.177   2.922  17.403  0.00  0.00    +0.000 HD
ENDBRANCH  14  15
ENDBRANCH  13  14
ENDBRANCH   8  13
ENDBRANCH   1  10
BRANCH   1  17
ATOM     17  C   UNL     1       7.463   5.760  19.331  0.00  0.00    +0.000 C 
ATOM     18  O   UNL     1       8.004   6.698  18.756  0.00  0.00    +0.000 OA
BRANCH  17  19
ATOM     19  OXT UNL     1       7.865   5.400  20.579  0.00  0.00    +0.000 OA
ATOM     20  HXT UNL     1       7.198   5.618  21.276  0.00  0.00    +0.000 HD
ENDBRANCH  17  19
ENDBRANCH   1  17
TORSDOF 7
ENDMDL
MODEL 6
REMARK VINA RESULT:      -6.2      2.655      3.749
REMARK  Name = 
REMARK  8 active torsions:
REMARK  status: ('A' for Active; 'I' for Inactive)
REMARK    1  A    between atoms: C_1  and  C_2
REMARK    2  A    between atoms: C_2  and  C_3
REMARK    3  A    between atoms: C_2  and  C_5
REMARK    4  A    between atoms: C_3  and  S_4
REMARK    5  A    between atoms: N_7  and  CA_8
REMARK    6  A    between atoms: CA_8  and  C_9
REMARK    7  A    between atoms: CA_8  and  C_12
REMARK    8  A    between atoms: C_9  and  OXT_11
REMARK                            x       y       z     vdW  Elec       q    Type
REMARK                         _______ _______ _______ _____ _____    ______ ____
ROOT
ATOM      1  CA  UNL     1       6.304   4.981  18.746  0.00  0.00    +0.000 C 
ENDROOT
BRANCH   1   2
ATOM      2  C   UNL     1       6.228   5.059  17.227  0.00  0.00    +0.000 A 
ATOM      3  C   UNL     1       5.371   5.987  16.612  0.00  0.00    +0.000 A 
ATOM      4  C   UNL     1       5.277   6.061  15.219  0.00  0.00    +0.000 A 
ATOM      5  C   UNL     1       6.046   5.216  14.422  0.00  0.00    +0.000 A 
ATOM      6  C   UNL     1       6.917   4.304  15.015  0.00  0.00    +0.000 A 
ATOM      7  C   UNL     1       7.014   4.231  16.405  0.00  0.00    +0.000 A 
ENDBRANCH   1   2
BRANCH   1  10
ATOM      8  C   UNL     1       3.943   4.409  19.343  0.00  0.00    +0.000 C 
ATOM      9  O   UNL     1       4.096   3.251  18.956  0.00  0.00    +0.000 OA
ATOM     10  N   UNL     1       4.985   5.292  19.311  0.00  0.00    +0.000 N 
ATOM     11  H   UNL     1       4.924   6.128  19.884  0.00  0.00    +0.000 HD
BRANCH   8  13
ATOM     12  C   UNL     1       2.486   6.415  19.851  0.00  0.00    +0.000 C 
ATOM     13  C   UNL     1       2.631   4.899  19.950  0.00  0.00    +0.000 C 
BRANCH  13  14
ATOM     14  C   UNL     1       2.381   4.356  21.364  0.00  0.00    +0.000 C 
BRANCH  14  15
ATOM     15  S   UNL     1       1.602   2.708  21.472  0.00  0.00    +0.000 S 
ATOM     16  H   UNL     1       0.346   3.124  21.688  0.00  0.00    +0.000 HD
ENDBRANCH  14  15
ENDBRANCH  13  14
ENDBRANCH   8  13
ENDBRANCH   1  10
BRANCH   1  17
ATOM     17  C   UNL     1       7.456   5.838  19.348  0.00  0.00    +0.000 C 
ATOM     18  O   UNL     1       8.044   6.745  18.770  0.00  0.00    +0.000 OA
BRANCH  17  19
ATOM     19  OXT UNL     1       7.876   5.421  20.573  0.00  0.00    +0.000 OA
ATOM     20  HXT UNL     1       8.564   6.015  20.965  0.00  0.00    +0.000 HD
ENDBRANCH  17  19
ENDBRANCH   1  17
TORSDOF 7
ENDMDL
MODEL 7
REMARK VINA RESULT:      -6.2      3.133      6.155
REMARK  Name = 
REMARK  8 active torsions:
REMARK  status: ('A' for Active; 'I' for Inactive)
REMARK    1  A    between atoms: C_1  and  C_2
REMARK    2  A    between atoms: C_2  and  C_3
REMARK    3  A    between atoms: C_2  and  C_5
REMARK    4  A    between atoms: C_3  and  S_4
REMARK    5  A    between atoms: N_7  and  CA_8
REMARK    6  A    between atoms: CA_8  and  C_9
REMARK    7  A    between atoms: CA_8  and  C_12
REMARK    8  A    between atoms: C_9  and  OXT_11
REMARK                            x       y       z     vdW  Elec       q    Type
REMARK                         _______ _______ _______ _____ _____    ______ ____
ROOT
ATOM      1  CA  UNL     1       2.982   5.940  18.476  0.00  0.00    +0.000 C 
ENDROOT
BRANCH   1   2
ATOM      2  C   UNL     1       2.348   4.826  19.298  0.00  0.00    +0.000 A 
ATOM      3  C   UNL     1       1.445   3.932  18.697  0.00  0.00    +0.000 A 
ATOM      4  C   UNL     1       0.843   2.915  19.442  0.00  0.00    +0.000 A 
ATOM      5  C   UNL     1       1.141   2.769  20.795  0.00  0.00    +0.000 A 
ATOM      6  C   UNL     1       2.049   3.633  21.402  0.00  0.00    +0.000 A 
ATOM      7  C   UNL     1       2.655   4.648  20.659  0.00  0.00    +0.000 A 
ENDBRANCH   1   2
BRANCH   1  10
ATOM      8  C   UNL     1       5.312   6.293  17.635  0.00  0.00    +0.000 C 
ATOM      9  O   UNL     1       4.892   6.875  16.635  0.00  0.00    +0.000 OA
ATOM     10  N   UNL     1       4.444   5.851  18.592  0.00  0.00    +0.000 N 
ATOM     11  H   UNL     1       4.812   5.640  19.514  0.00  0.00    +0.000 HD
BRANCH   8  13
ATOM     12  C   UNL     1       7.612   7.343  17.511  0.00  0.00    +0.000 C 
ATOM     13  C   UNL     1       6.803   6.109  17.905  0.00  0.00    +0.000 C 
BRANCH  13  14
ATOM     14  C   UNL     1       7.364   4.804  17.323  0.00  0.00    +0.000 C 
BRANCH  14  15
ATOM     15  S   UNL     1       6.829   4.376  15.631  0.00  0.00    +0.000 S 
ATOM     16  H   UNL     1       5.782   5.211  15.563  0.00  0.00    +0.000 HD
ENDBRANCH  14  15
ENDBRANCH  13  14
ENDBRANCH   8  13
ENDBRANCH   1  10
BRANCH   1  17
ATOM     17  C   UNL     1       2.417   7.350  18.813  0.00  0.00    +0.000 C 
ATOM     18  O   UNL     1       1.979   7.699  19.903  0.00  0.00    +0.000 OA
BRANCH  17  19
ATOM     19  OXT UNL     1       2.320   8.180  17.740  0.00  0.00    +0.000 OA
ATOM     20  HXT UNL     1       1.808   7.784  16.992  0.00  0.00    +0.000 HD
ENDBRANCH  17  19
ENDBRANCH   1  17
TORSDOF 7
ENDMDL
MODEL 8
REMARK VINA RESULT:      -6.2      3.155      5.367
REMARK  Name = 
REMARK  8 active torsions:
REMARK  status: ('A' for Active; 'I' for Inactive)
REMARK    1  A    between atoms: C_1  and  C_2
REMARK    2  A    between atoms: C_2  and  C_3
REMARK    3  A    between atoms: C_2  and  C_5
REMARK    4  A    between atoms: C_3  and  S_4
REMARK    5  A    between atoms: N_7  and  CA_8
REMARK    6  A    between atoms: CA_8  and  C_9
REMARK    7  A    between atoms: CA_8  and  C_12
REMARK    8  A    between atoms: C_9  and  OXT_11
REMARK                            x       y       z     vdW  Elec       q    Type
REMARK                         _______ _______ _______ _____ _____    ______ ____
ROOT
ATOM      1  CA  UNL     1       5.910   4.986  16.632  0.00  0.00    +0.000 C 
ENDROOT
BRANCH   1   2
ATOM      2  C   UNL     1       4.478   4.950  17.149  0.00  0.00    +0.000 A 
ATOM      3  C   UNL     1       3.913   6.093  17.741  0.00  0.00    +0.000 A 
ATOM      4  C   UNL     1       2.606   6.071  18.235  0.00  0.00    +0.000 A 
ATOM      5  C   UNL     1       1.841   4.911  18.136  0.00  0.00    +0.000 A 
ATOM      6  C   UNL     1       2.377   3.775  17.533  0.00  0.00    +0.000 A 
ATOM      7  C   UNL     1       3.681   3.796  17.036  0.00  0.00    +0.000 A 
ENDBRANCH   1   2
BRANCH   1  10
ATOM      8  C   UNL     1       6.782   4.687  14.306  0.00  0.00    +0.000 C 
ATOM      9  O   UNL     1       7.581   5.610  14.458  0.00  0.00    +0.000 OA
ATOM     10  N   UNL     1       5.970   4.301  15.334  0.00  0.00    +0.000 N 
ATOM     11  H   UNL     1       5.539   3.383  15.287  0.00  0.00    +0.000 HD
BRANCH   8  13
ATOM     12  C   UNL     1       7.456   4.557  11.871  0.00  0.00    +0.000 C 
ATOM     13  C   UNL     1       6.709   3.876  13.016  0.00  0.00    +0.000 C 
BRANCH  13  14
ATOM     14  C   UNL     1       5.279   3.459  12.646  0.00  0.00    +0.000 C 
BRANCH  14  15
ATOM     15  S   UNL     1       5.111   2.300  11.245  0.00  0.00    +0.000 S 
ATOM     16  H   UNL     1       5.075   3.215  10.266  0.00  0.00    +0.000 HD
ENDBRANCH  14  15
ENDBRANCH  13  14
ENDBRANCH   8  13
ENDBRANCH   1  10
BRANCH   1  17
ATOM     17  C   UNL     1       6.948   4.455  17.663  0.00  0.00    +0.000 C 
ATOM     18  O   UNL     1       8.138   4.264  17.440  0.00  0.00    +0.000 OA
BRANCH  17  19
ATOM     19  OXT UNL     1       6.408   4.082  18.854  0.00  0.00    +0.000 OA
ATOM     20  HXT UNL     1       7.075   4.045  19.584  0.00  0.00    +0.000 HD
ENDBRANCH  17  19
ENDBRANCH   1  17
TORSDOF 7
ENDMDL
MODEL 9
REMARK VINA RESULT:      -6.2      3.152      6.187
REMARK  Name = 
REMARK  8 active torsions:
REMARK  status: ('A' for Active; 'I' for Inactive)
REMARK    1  A    between atoms: C_1  and  C_2
REMARK    2  A    between atoms: C_2  and  C_3
REMARK    3  A    between atoms: C_2  and  C_5
REMARK    4  A    between atoms: C_3  and  S_4
REMARK    5  A    between atoms: N_7  and  CA_8
REMARK    6  A    between atoms: CA_8  and  C_9
REMARK    7  A    between atoms: CA_8  and  C_12
REMARK    8  A    between atoms: C_9  and  OXT_11
REMARK                            x       y       z     vdW  Elec       q    Type
REMARK                         _______ _______ _______ _____ _____    ______ ____
ROOT
ATOM      1  CA  UNL     1       2.957   5.989  18.469  0.00  0.00    +0.000 C 
ENDROOT
BRANCH   1   2
ATOM      2  C   UNL     1       2.317   4.877  19.290  0.00  0.00    +0.000 A 
ATOM      3  C   UNL     1       2.631   4.737  20.653  0.00  0.00    +0.000 A 
ATOM      4  C   UNL     1       2.064   3.712  21.416  0.00  0.00    +0.000 A 
ATOM      5  C   UNL     1       1.170   2.819  20.832  0.00  0.00    +0.000 A 
ATOM      6  C   UNL     1       0.832   2.955  19.487  0.00  0.00    +0.000 A 
ATOM      7  C   UNL     1       1.393   3.980  18.724  0.00  0.00    +0.000 A 
ENDBRANCH   1   2
BRANCH   1  10
ATOM      8  C   UNL     1       5.291   6.336  17.638  0.00  0.00    +0.000 C 
ATOM      9  O   UNL     1       4.877   6.914  16.634  0.00  0.00    +0.000 OA
ATOM     10  N   UNL     1       4.418   5.898  18.592  0.00  0.00    +0.000 N 
ATOM     11  H   UNL     1       4.781   5.691  19.517  0.00  0.00    +0.000 HD
BRANCH   8  13
ATOM     12  C   UNL     1       7.595   7.374  17.503  0.00  0.00    +0.000 C 
ATOM     13  C   UNL     1       6.780   6.150  17.915  0.00  0.00    +0.000 C 
BRANCH  13  14
ATOM     14  C   UNL     1       7.338   4.833  17.358  0.00  0.00    +0.000 C 
BRANCH  14  15
ATOM     15  S   UNL     1       6.759   4.348  15.696  0.00  0.00    +0.000 S 
ATOM     16  H   UNL     1       7.933   3.898  15.229  0.00  0.00    +0.000 HD
ENDBRANCH  14  15
ENDBRANCH  13  14
ENDBRANCH   8  13
ENDBRANCH   1  10
BRANCH   1  17
ATOM     17  C   UNL     1       2.391   7.400  18.801  0.00  0.00    +0.000 C 
ATOM     18  O   UNL     1       1.943   7.749  19.888  0.00  0.00    +0.000 OA
BRANCH  17  19
ATOM     19  OXT UNL     1       2.306   8.231  17.728  0.00  0.00    +0.000 OA
ATOM     20  HXT UNL     1       2.382   7.754  16.865  0.00  0.00    +0.000 HD
ENDBRANCH  17  19
ENDBRANCH   1  17
TORSDOF 7
ENDMDL
