MODEL 1
REMARK VINA RESULT:      -8.2      0.000      0.000
REMARK  Name = 
REMARK  8 active torsions:
REMARK  status: ('A' for Active; 'I' for Inactive)
REMARK    1  A    between atoms: C_1  and  C_2
REMARK    2  A    between atoms: C_2  and  C_3
REMARK    3  A    between atoms: C_2  and  C_4
REMARK    4  A    between atoms: C_7  and  C_8
REMARK    5  A    between atoms: C_9  and  N_10
REMARK    6  A    between atoms: N_10  and  C_11
REMARK    7  A    between atoms: C_11  and  C_12
REMARK    8  A    between atoms: C_12  and  C_13
REMARK                            x       y       z     vdW  Elec       q    Type
REMARK                         _______ _______ _______ _____ _____    ______ ____
ROOT
ATOM      1  C   UNL     1       5.035   5.884  17.437  0.00  0.00    +0.000 C 
ATOM      2  C   UNL     1       5.347   4.617  17.078  0.00  0.00    +0.000 C 
ATOM      3  C   UNL     1       6.691   5.065  16.601  0.00  0.00    +0.000 C 
ATOM      4  O   UNL     1       7.694   4.602  16.120  0.00  0.00    +0.000 OA
ATOM      5  C   UNL     1       6.288   6.463  16.961  0.00  0.00    +0.000 C 
ATOM      6  O   UNL     1       6.863   7.514  16.937  0.00  0.00    +0.000 OA
ENDROOT
BRANCH   1  10
ATOM      7  C   UNL     1       1.874   7.974  19.380  0.00  0.00    +0.000 A 
ATOM      8  C   UNL     1       2.378   6.781  19.926  0.00  0.00    +0.000 A 
ATOM      9  C   UNL     1       3.389   6.070  19.276  0.00  0.00    +0.000 A 
ATOM     10  C   UNL     1       3.932   6.584  18.099  0.00  0.00    +0.000 A 
ATOM     11  C   UNL     1       3.446   7.756  17.539  0.00  0.00    +0.000 A 
ATOM     12  C   UNL     1       2.398   8.430  18.160  0.00  0.00    +0.000 A 
BRANCH   7  14
ATOM     13  C   UNL     1       1.142   8.985  21.582  0.00  0.00    +0.000 C 
ATOM     14  C   UNL     1       0.789   8.747  20.108  0.00  0.00    +0.000 C 
ATOM     15  C   UNL     1       0.487  10.070  19.404  0.00  0.00    +0.000 C 
ENDBRANCH   7  14
ENDBRANCH   1  10
BRANCH   2  16
ATOM     16  N   UNL     1       4.797   3.423  17.056  0.00  0.00    +0.000 N 
ATOM     17  H   UNL     1       5.257   2.625  17.495  0.00  0.00    +0.000 HD
BRANCH  16  18
ATOM     18  C   UNL     1       3.362   3.237  16.820  0.00  0.00    +0.000 C 
BRANCH  18  19
ATOM     19  C   UNL     1       2.834   2.019  17.597  0.00  0.00    +0.000 C 
BRANCH  19  20
ATOM     20  C   UNL     1       2.361   2.421  18.971  0.00  0.00    +0.000 A 
ATOM     21  C   UNL     1       1.091   2.991  19.135  0.00  0.00    +0.000 A 
ATOM     22  C   UNL     1       0.698   3.496  20.373  0.00  0.00    +0.000 A 
ATOM     23  C   UNL     1       1.560   3.416  21.464  0.00  0.00    +0.000 A 
ATOM     24  C   UNL     1       2.807   2.811  21.323  0.00  0.00    +0.000 A 
ATOM     25  C   UNL     1       3.209   2.316  20.081  0.00  0.00    +0.000 A 
ENDBRANCH  19  20
ENDBRANCH  18  19
ENDBRANCH  16  18
ENDBRANCH   2  16
TORSDOF 6
ENDMDL
MODEL 2
REMARK VINA RESULT:      -8.0      0.483      1.097
REMARK  Name = 
REMARK  8 active torsions:
REMARK  status: ('A' for Active; 'I' for Inactive)
REMARK    1  A    between atoms: C_1  and  C_2
REMARK    2  A    between atoms: C_2  and  C_3
REMARK    3  A    between atoms: C_2  and  C_4
REMARK    4  A    between atoms: C_7  and  C_8
REMARK    5  A    between atoms: C_9  and  N_10
REMARK    6  A    between atoms: N_10  and  C_11
REMARK    7  A    between atoms: C_11  and  C_12
REMARK    8  A    between atoms: C_12  and  C_13
REMARK                            x       y       z     vdW  Elec       q    Type
REMARK                         _______ _______ _______ _____ _____    ______ ____
ROOT
ATOM      1  C   UNL     1       4.705   6.124  17.305  0.00  0.00    +0.000 C 
ATOM      2  C   UNL     1       4.918   4.935  16.694  0.00  0.00    +0.000 C 
ATOM      3  C   UNL     1       6.289   5.368  16.289  0.00  0.00    +0.000 C 
ATOM      4  O   UNL     1       7.252   4.938  15.705  0.00  0.00    +0.000 OA
ATOM      5  C   UNL     1       5.997   6.692  16.929  0.00  0.00    +0.000 C 
ATOM      6  O   UNL     1       6.651   7.680  17.103  0.00  0.00    +0.000 OA
ENDROOT
BRANCH   1  10
ATOM      7  C   UNL     1       1.720   8.019  19.677  0.00  0.00    +0.000 A 
ATOM      8  C   UNL     1       2.300   6.811  20.099  0.00  0.00    +0.000 A 
ATOM      9  C   UNL     1       3.253   6.163  19.309  0.00  0.00    +0.000 A 
ATOM     10  C   UNL     1       3.663   6.757  18.115  0.00  0.00    +0.000 A 
ATOM     11  C   UNL     1       3.100   7.946  17.678  0.00  0.00    +0.000 A 
ATOM     12  C   UNL     1       2.107   8.556  18.440  0.00  0.00    +0.000 A 
BRANCH   7  14
ATOM     13  C   UNL     1       1.227   8.953  21.978  0.00  0.00    +0.000 C 
ATOM     14  C   UNL     1       0.700   8.722  20.556  0.00  0.00    +0.000 C 
ATOM     15  C   UNL     1       0.245  10.039  19.928  0.00  0.00    +0.000 C 
ENDBRANCH   7  14
ENDBRANCH   1  10
BRANCH   2  16
ATOM     16  N   UNL     1       4.278   3.814  16.447  0.00  0.00    +0.000 N 
ATOM     17  H   UNL     1       3.963   3.585  15.503  0.00  0.00    +0.000 HD
BRANCH  16  18
ATOM     18  C   UNL     1       4.358   2.661  17.350  0.00  0.00    +0.000 C 
BRANCH  18  19
ATOM     19  C   UNL     1       2.956   2.102  17.647  0.00  0.00    +0.000 C 
BRANCH  19  20
ATOM     20  C   UNL     1       2.450   2.599  18.978  0.00  0.00    +0.000 A 
ATOM     21  C   UNL     1       3.235   2.440  20.128  0.00  0.00    +0.000 A 
ATOM     22  C   UNL     1       2.723   2.765  21.383  0.00  0.00    +0.000 A 
ATOM     23  C   UNL     1       1.431   3.272  21.499  0.00  0.00    +0.000 A 
ATOM     24  C   UNL     1       0.658   3.475  20.358  0.00  0.00    +0.000 A 
ATOM     25  C   UNL     1       1.163   3.138  19.101  0.00  0.00    +0.000 A 
ENDBRANCH  19  20
ENDBRANCH  18  19
ENDBRANCH  16  18
ENDBRANCH   2  16
TORSDOF 6
ENDMDL
MODEL 3
REMARK VINA RESULT:      -7.9      0.478      1.093
REMARK  Name = 
REMARK  8 active torsions:
REMARK  status: ('A' for Active; 'I' for Inactive)
REMARK    1  A    between atoms: C_1  and  C_2
REMARK    2  A    between atoms: C_2  and  C_3
REMARK    3  A    between atoms: C_2  and  C_4
REMARK    4  A    between atoms: C_7  and  C_8
REMARK    5  A    between atoms: C_9  and  N_10
REMARK    6  A    between atoms: N_10  and  C_11
REMARK    7  A    between atoms: C_11  and  C_12
REMARK    8  A    between atoms: C_12  and  C_13
REMARK                            x       y       z     vdW  Elec       q    Type
REMARK                         _______ _______ _______ _____ _____    ______ ____
ROOT
ATOM      1  C   UNL     1       4.953   6.123  17.158  0.00  0.00    +0.000 C 
ATOM      2  C   UNL     1       5.138   4.956  16.499  0.00  0.00    +0.000 C 
ATOM      3  C   UNL     1       6.529   5.363  16.134  0.00  0.00    +0.000 C 
ATOM      4  O   UNL     1       7.487   4.928  15.546  0.00  0.00    +0.000 OA
ATOM      5  C   UNL     1       6.268   6.666  16.827  0.00  0.00    +0.000 C 
ATOM      6  O   UNL     1       6.950   7.624  17.055  0.00  0.00    +0.000 OA
ENDROOT
BRANCH   1  10
ATOM      7  C   UNL     1       1.898   7.902  19.532  0.00  0.00    +0.000 A 
ATOM      8  C   UNL     1       2.305   8.506  18.331  0.00  0.00    +0.000 A 
ATOM      9  C   UNL     1       3.332   7.950  17.565  0.00  0.00    +0.000 A 
ATOM     10  C   UNL     1       3.918   6.754  17.980  0.00  0.00    +0.000 A 
ATOM     11  C   UNL     1       3.534   6.143  19.165  0.00  0.00    +0.000 A 
ATOM     12  C   UNL     1       2.551   6.734  19.954  0.00  0.00    +0.000 A 
BRANCH   7  14
ATOM     13  C   UNL     1       1.164   8.740  21.806  0.00  0.00    +0.000 C 
ATOM     14  C   UNL     1       0.765   8.506  20.344  0.00  0.00    +0.000 C 
ATOM     15  C   UNL     1       0.261   9.802  19.707  0.00  0.00    +0.000 C 
ENDBRANCH   7  14
ENDBRANCH   1  10
BRANCH   2  16
ATOM     16  N   UNL     1       4.467   3.868  16.192  0.00  0.00    +0.000 N 
ATOM     17  H   UNL     1       4.412   3.539  15.227  0.00  0.00    +0.000 HD
BRANCH  16  18
ATOM     18  C   UNL     1       4.147   2.848  17.196  0.00  0.00    +0.000 C 
BRANCH  18  19
ATOM     19  C   UNL     1       2.628   2.765  17.424  0.00  0.00    +0.000 C 
BRANCH  19  20
ATOM     20  C   UNL     1       2.301   2.828  18.895  0.00  0.00    +0.000 A 
ATOM     21  C   UNL     1       1.060   3.329  19.314  0.00  0.00    +0.000 A 
ATOM     22  C   UNL     1       0.800   3.525  20.669  0.00  0.00    +0.000 A 
ATOM     23  C   UNL     1       1.767   3.204  21.619  0.00  0.00    +0.000 A 
ATOM     24  C   UNL     1       2.987   2.664  21.216  0.00  0.00    +0.000 A 
ATOM     25  C   UNL     1       3.255   2.479  19.858  0.00  0.00    +0.000 A 
ENDBRANCH  19  20
ENDBRANCH  18  19
ENDBRANCH  16  18
ENDBRANCH   2  16
TORSDOF 6
ENDMDL
MODEL 4
REMARK VINA RESULT:      -7.8      2.426      5.454
REMARK  Name = 
REMARK  8 active torsions:
REMARK  status: ('A' for Active; 'I' for Inactive)
REMARK    1  A    between atoms: C_1  and  C_2
REMARK    2  A    between atoms: C_2  and  C_3
REMARK    3  A    between atoms: C_2  and  C_4
REMARK    4  A    between atoms: C_7  and  C_8
REMARK    5  A    between atoms: C_9  and  N_10
REMARK    6  A    between atoms: N_10  and  C_11
REMARK    7  A    between atoms: C_11  and  C_12
REMARK    8  A    between atoms: C_12  and  C_13
REMARK                            x       y       z     vdW  Elec       q    Type
REMARK                         _______ _______ _______ _____ _____    ______ ____
ROOT
ATOM      1  C   UNL     1       3.190   6.897  18.234  0.00  0.00    +0.000 C 
ATOM      2  C   UNL     1       2.723   6.705  19.489  0.00  0.00    +0.000 C 
ATOM      3  C   UNL     1       1.954   7.985  19.417  0.00  0.00    +0.000 C 
ATOM      4  O   UNL     1       1.203   8.643  20.092  0.00  0.00    +0.000 OA
ATOM      5  C   UNL     1       2.535   8.189  18.051  0.00  0.00    +0.000 C 
ATOM      6  O   UNL     1       2.376   9.026  17.209  0.00  0.00    +0.000 OA
ENDROOT
BRANCH   1  10
ATOM      7  C   UNL     1       5.536   4.827  15.345  0.00  0.00    +0.000 A 
ATOM      8  C   UNL     1       4.647   4.122  16.174  0.00  0.00    +0.000 A 
ATOM      9  C   UNL     1       3.901   4.788  17.150  0.00  0.00    +0.000 A 
ATOM     10  C   UNL     1       4.010   6.174  17.259  0.00  0.00    +0.000 A 
ATOM     11  C   UNL     1       4.885   6.889  16.454  0.00  0.00    +0.000 A 
ATOM     12  C   UNL     1       5.669   6.212  15.524  0.00  0.00    +0.000 A 
BRANCH   7  14
ATOM     13  C   UNL     1       5.426   3.596  13.135  0.00  0.00    +0.000 C 
ATOM     14  C   UNL     1       6.324   4.092  14.275  0.00  0.00    +0.000 C 
ATOM     15  C   UNL     1       7.458   4.961  13.730  0.00  0.00    +0.000 C 
ENDBRANCH   7  14
ENDBRANCH   1  10
BRANCH   2  16
ATOM     16  N   UNL     1       2.840   5.844  20.475  0.00  0.00    +0.000 N 
ATOM     17  H   UNL     1       3.653   5.859  21.092  0.00  0.00    +0.000 HD
BRANCH  16  18
ATOM     18  C   UNL     1       1.680   5.135  21.025  0.00  0.00    +0.000 C 
BRANCH  18  19
ATOM     19  C   UNL     1       2.087   3.745  21.547  0.00  0.00    +0.000 C 
BRANCH  19  20
ATOM     20  C   UNL     1       2.542   2.859  20.415  0.00  0.00    +0.000 A 
ATOM     21  C   UNL     1       3.872   2.418  20.365  0.00  0.00    +0.000 A 
ATOM     22  C   UNL     1       4.342   1.717  19.255  0.00  0.00    +0.000 A 
ATOM     23  C   UNL     1       3.484   1.432  18.196  0.00  0.00    +0.000 A 
ATOM     24  C   UNL     1       2.149   1.827  18.256  0.00  0.00    +0.000 A 
ATOM     25  C   UNL     1       1.678   2.540  19.360  0.00  0.00    +0.000 A 
ENDBRANCH  19  20
ENDBRANCH  18  19
ENDBRANCH  16  18
ENDBRANCH   2  16
TORSDOF 6
ENDMDL
MODEL 5
REMARK VINA RESULT:      -7.8      2.455      5.347
REMARK  Name = 
REMARK  8 active torsions:
REMARK  status: ('A' for Active; 'I' for Inactive)
REMARK    1  A    between atoms: C_1  and  C_2
REMARK    2  A    between atoms: C_2  and  C_3
REMARK    3  A    between atoms: C_2  and  C_4
REMARK    4  A    between atoms: C_7  and  C_8
REMARK    5  A    between atoms: C_9  and  N_10
REMARK    6  A    between atoms: N_10  and  C_11
REMARK    7  A    between atoms: C_11  and  C_12
REMARK    8  A    between atoms: C_12  and  C_13
REMARK                            x       y       z     vdW  Elec       q    Type
REMARK                         _______ _______ _______ _____ _____    ______ ____
ROOT
ATOM      1  C   UNL     1       3.053   7.049  18.283  0.00  0.00    +0.000 C 
ATOM      2  C   UNL     1       2.548   6.868  19.526  0.00  0.00    +0.000 C 
ATOM      3  C   UNL     1       1.816   8.168  19.436  0.00  0.00    +0.000 C 
ATOM      4  O   UNL     1       1.066   8.845  20.093  0.00  0.00    +0.000 OA
ATOM      5  C   UNL     1       2.437   8.358  18.086  0.00  0.00    +0.000 C 
ATOM      6  O   UNL     1       2.322   9.200  17.241  0.00  0.00    +0.000 OA
ENDROOT
BRANCH   1  10
ATOM      7  C   UNL     1       5.407   4.909  15.453  0.00  0.00    +0.000 A 
ATOM      8  C   UNL     1       4.652   4.217  16.415  0.00  0.00    +0.000 A 
ATOM      9  C   UNL     1       3.907   4.912  17.371  0.00  0.00    +0.000 A 
ATOM     10  C   UNL     1       3.878   6.306  17.328  0.00  0.00    +0.000 A 
ATOM     11  C   UNL     1       4.619   7.008  16.390  0.00  0.00    +0.000 A 
ATOM     12  C   UNL     1       5.407   6.312  15.478  0.00  0.00    +0.000 A 
BRANCH   7  14
ATOM     13  C   UNL     1       5.326   3.734  13.212  0.00  0.00    +0.000 C 
ATOM     14  C   UNL     1       6.196   4.140  14.407  0.00  0.00    +0.000 C 
ATOM     15  C   UNL     1       7.416   4.936  13.942  0.00  0.00    +0.000 C 
ENDBRANCH   7  14
ENDBRANCH   1  10
BRANCH   2  16
ATOM     16  N   UNL     1       2.617   6.003  20.513  0.00  0.00    +0.000 N 
ATOM     17  H   UNL     1       3.346   6.074  21.224  0.00  0.00    +0.000 HD
BRANCH  16  18
ATOM     18  C   UNL     1       1.462   5.192  20.913  0.00  0.00    +0.000 C 
BRANCH  18  19
ATOM     19  C   UNL     1       1.912   3.799  21.388  0.00  0.00    +0.000 C 
BRANCH  19  20
ATOM     20  C   UNL     1       2.518   3.014  20.252  0.00  0.00    +0.000 A 
ATOM     21  C   UNL     1       1.721   2.630  19.164  0.00  0.00    +0.000 A 
ATOM     22  C   UNL     1       2.230   1.787  18.178  0.00  0.00    +0.000 A 
ATOM     23  C   UNL     1       3.546   1.336  18.258  0.00  0.00    +0.000 A 
ATOM     24  C   UNL     1       4.360   1.747  19.311  0.00  0.00    +0.000 A 
ATOM     25  C   UNL     1       3.849   2.581  20.307  0.00  0.00    +0.000 A 
ENDBRANCH  19  20
ENDBRANCH  18  19
ENDBRANCH  16  18
ENDBRANCH   2  16
TORSDOF 6
ENDMDL
MODEL 6
REMARK VINA RESULT:      -7.7      0.945      1.191
REMARK  Name = 
REMARK  8 active torsions:
REMARK  status: ('A' for Active; 'I' for Inactive)
REMARK    1  A    between atoms: C_1  and  C_2
REMARK    2  A    between atoms: C_2  and  C_3
REMARK    3  A    between atoms: C_2  and  C_4
REMARK    4  A    between atoms: C_7  and  C_8
REMARK    5  A    between atoms: C_9  and  N_10
REMARK    6  A    between atoms: N_10  and  C_11
REMARK    7  A    between atoms: C_11  and  C_12
REMARK    8  A    between atoms: C_12  and  C_13
REMARK                            x       y       z     vdW  Elec       q    Type
REMARK                         _______ _______ _______ _____ _____    ______ ____
ROOT
ATOM      1  C   UNL     1       4.446   5.695  17.105  0.00  0.00    +0.000 C 
ATOM      2  C   UNL     1       4.963   4.444  17.137  0.00  0.00    +0.000 C 
ATOM      3  C   UNL     1       5.783   4.735  15.922  0.00  0.00    +0.000 C 
ATOM      4  O   UNL     1       6.594   4.194  15.212  0.00  0.00    +0.000 OA
ATOM      5  C   UNL     1       5.148   6.092  15.888  0.00  0.00    +0.000 C 
ATOM      6  O   UNL     1       5.306   7.053  15.191  0.00  0.00    +0.000 OA
ENDROOT
BRANCH   1  10
ATOM      7  C   UNL     1       1.892   8.143  19.474  0.00  0.00    +0.000 A 
ATOM      8  C   UNL     1       2.405   6.943  19.993  0.00  0.00    +0.000 A 
ATOM      9  C   UNL     1       3.213   6.115  19.210  0.00  0.00    +0.000 A 
ATOM     10  C   UNL     1       3.550   6.520  17.919  0.00  0.00    +0.000 A 
ATOM     11  C   UNL     1       3.050   7.698  17.385  0.00  0.00    +0.000 A 
ATOM     12  C   UNL     1       2.197   8.489  18.149  0.00  0.00    +0.000 A 
BRANCH   7  14
ATOM     13  C   UNL     1       0.125   9.956  19.510  0.00  0.00    +0.000 C 
ATOM     14  C   UNL     1       1.032   9.044  20.344  0.00  0.00    +0.000 C 
ATOM     15  C   UNL     1       0.208   8.225  21.339  0.00  0.00    +0.000 C 
ENDBRANCH   7  14
ENDBRANCH   1  10
BRANCH   2  16
ATOM     16  N   UNL     1       4.854   3.338  17.838  0.00  0.00    +0.000 N 
ATOM     17  H   UNL     1       5.071   3.325  18.836  0.00  0.00    +0.000 HD
BRANCH  16  18
ATOM     18  C   UNL     1       4.028   2.214  17.387  0.00  0.00    +0.000 C 
BRANCH  18  19
ATOM     19  C   UNL     1       3.560   1.365  18.582  0.00  0.00    +0.000 C 
BRANCH  19  20
ATOM     20  C   UNL     1       2.642   2.158  19.477  0.00  0.00    +0.000 A 
ATOM     21  C   UNL     1       1.426   2.644  18.978  0.00  0.00    +0.000 A 
ATOM     22  C   UNL     1       0.636   3.496  19.748  0.00  0.00    +0.000 A 
ATOM     23  C   UNL     1       1.042   3.852  21.032  0.00  0.00    +0.000 A 
ATOM     24  C   UNL     1       2.227   3.339  21.555  0.00  0.00    +0.000 A 
ATOM     25  C   UNL     1       3.027   2.496  20.781  0.00  0.00    +0.000 A 
ENDBRANCH  19  20
ENDBRANCH  18  19
ENDBRANCH  16  18
ENDBRANCH   2  16
TORSDOF 6
ENDMDL
MODEL 7
REMARK VINA RESULT:      -7.7      2.861      5.900
REMARK  Name = 
REMARK  8 active torsions:
REMARK  status: ('A' for Active; 'I' for Inactive)
REMARK    1  A    between atoms: C_1  and  C_2
REMARK    2  A    between atoms: C_2  and  C_3
REMARK    3  A    between atoms: C_2  and  C_4
REMARK    4  A    between atoms: C_7  and  C_8
REMARK    5  A    between atoms: C_9  and  N_10
REMARK    6  A    between atoms: N_10  and  C_11
REMARK    7  A    between atoms: C_11  and  C_12
REMARK    8  A    between atoms: C_12  and  C_13
REMARK                            x       y       z     vdW  Elec       q    Type
REMARK                         _______ _______ _______ _____ _____    ______ ____
ROOT
ATOM      1  C   UNL     1       6.607   5.175  16.811  0.00  0.00    +0.000 C 
ATOM      2  C   UNL     1       6.147   6.171  17.604  0.00  0.00    +0.000 C 
ATOM      3  C   UNL     1       7.203   5.874  18.618  0.00  0.00    +0.000 C 
ATOM      4  O   UNL     1       7.591   6.280  19.685  0.00  0.00    +0.000 OA
ATOM      5  C   UNL     1       7.649   4.745  17.739  0.00  0.00    +0.000 C 
ATOM      6  O   UNL     1       8.553   3.962  17.805  0.00  0.00    +0.000 OA
ENDROOT
BRANCH   1  10
ATOM      7  C   UNL     1       5.774   3.643  12.926  0.00  0.00    +0.000 A 
ATOM      8  C   UNL     1       4.829   3.514  13.957  0.00  0.00    +0.000 A 
ATOM      9  C   UNL     1       5.108   3.981  15.244  0.00  0.00    +0.000 A 
ATOM     10  C   UNL     1       6.322   4.625  15.484  0.00  0.00    +0.000 A 
ATOM     11  C   UNL     1       7.272   4.758  14.482  0.00  0.00    +0.000 A 
ATOM     12  C   UNL     1       7.011   4.238  13.217  0.00  0.00    +0.000 A 
BRANCH   7  14
ATOM     13  C   UNL     1       5.923   1.711  11.297  0.00  0.00    +0.000 C 
ATOM     14  C   UNL     1       5.448   3.150  11.527  0.00  0.00    +0.000 C 
ATOM     15  C   UNL     1       3.954   3.280  11.231  0.00  0.00    +0.000 C 
ENDBRANCH   7  14
ENDBRANCH   1  10
BRANCH   2  16
ATOM     16  N   UNL     1       5.181   7.062  17.625  0.00  0.00    +0.000 N 
ATOM     17  H   UNL     1       5.349   8.026  17.338  0.00  0.00    +0.000 HD
BRANCH  16  18
ATOM     18  C   UNL     1       3.767   6.670  17.623  0.00  0.00    +0.000 C 
BRANCH  18  19
ATOM     19  C   UNL     1       3.261   6.445  19.059  0.00  0.00    +0.000 C 
BRANCH  19  20
ATOM     20  C   UNL     1       2.354   5.243  19.127  0.00  0.00    +0.000 A 
ATOM     21  C   UNL     1       1.756   4.886  20.344  0.00  0.00    +0.000 A 
ATOM     22  C   UNL     1       1.032   3.700  20.454  0.00  0.00    +0.000 A 
ATOM     23  C   UNL     1       0.880   2.871  19.345  0.00  0.00    +0.000 A 
ATOM     24  C   UNL     1       1.433   3.238  18.120  0.00  0.00    +0.000 A 
ATOM     25  C   UNL     1       2.170   4.418  18.010  0.00  0.00    +0.000 A 
ENDBRANCH  19  20
ENDBRANCH  18  19
ENDBRANCH  16  18
ENDBRANCH   2  16
TORSDOF 6
ENDMDL
MODEL 8
REMARK VINA RESULT:      -7.6      2.424      5.509
REMARK  Name = 
REMARK  8 active torsions:
REMARK  status: ('A' for Active; 'I' for Inactive)
REMARK    1  A    between atoms: C_1  and  C_2
REMARK    2  A    between atoms: C_2  and  C_3
REMARK    3  A    between atoms: C_2  and  C_4
REMARK    4  A    between atoms: C_7  and  C_8
REMARK    5  A    between atoms: C_9  and  N_10
REMARK    6  A    between atoms: N_10  and  C_11
REMARK    7  A    between atoms: C_11  and  C_12
REMARK    8  A    between atoms: C_12  and  C_13
REMARK                            x       y       z     vdW  Elec       q    Type
REMARK                         _______ _______ _______ _____ _____    ______ ____
ROOT
ATOM      1  C   UNL     1       3.221   6.930  18.194  0.00  0.00    +0.000 C 
ATOM      2  C   UNL     1       2.819   6.711  19.468  0.00  0.00    +0.000 C 
ATOM      3  C   UNL     1       2.018   7.973  19.450  0.00  0.00    +0.000 C 
ATOM      4  O   UNL     1       1.285   8.604  20.170  0.00  0.00    +0.000 OA
ATOM      5  C   UNL     1       2.528   8.209  18.060  0.00  0.00    +0.000 C 
ATOM      6  O   UNL     1       2.308   9.052  17.239  0.00  0.00    +0.000 OA
ENDROOT
BRANCH   1  10
ATOM      7  C   UNL     1       5.559   4.903  15.270  0.00  0.00    +0.000 A 
ATOM      8  C   UNL     1       5.503   6.306  15.284  0.00  0.00    +0.000 A 
ATOM      9  C   UNL     1       4.709   6.979  16.216  0.00  0.00    +0.000 A 
ATOM     10  C   UNL     1       4.009   6.240  17.171  0.00  0.00    +0.000 A 
ATOM     11  C   UNL     1       4.047   4.854  17.171  0.00  0.00    +0.000 A 
ATOM     12  C   UNL     1       4.792   4.188  16.203  0.00  0.00    +0.000 A 
BRANCH   7  14
ATOM     13  C   UNL     1       5.636   3.605  13.097  0.00  0.00    +0.000 C 
ATOM     14  C   UNL     1       6.444   4.186  14.264  0.00  0.00    +0.000 C 
ATOM     15  C   UNL     1       7.552   5.106  13.750  0.00  0.00    +0.000 C 
ENDBRANCH   7  14
ENDBRANCH   1  10
BRANCH   2  16
ATOM     16  N   UNL     1       3.004   5.841  20.435  0.00  0.00    +0.000 N 
ATOM     17  H   UNL     1       3.900   5.776  20.920  0.00  0.00    +0.000 HD
BRANCH  16  18
ATOM     18  C   UNL     1       1.880   5.245  21.165  0.00  0.00    +0.000 C 
BRANCH  18  19
ATOM     19  C   UNL     1       1.049   4.337  20.240  0.00  0.00    +0.000 C 
BRANCH  19  20
ATOM     20  C   UNL     1       1.906   3.250  19.643  0.00  0.00    +0.000 A 
ATOM     21  C   UNL     1       3.092   2.863  20.284  0.00  0.00    +0.000 A 
ATOM     22  C   UNL     1       3.962   1.962  19.673  0.00  0.00    +0.000 A 
ATOM     23  C   UNL     1       3.647   1.423  18.428  0.00  0.00    +0.000 A 
ATOM     24  C   UNL     1       2.450   1.766  17.803  0.00  0.00    +0.000 A 
ATOM     25  C   UNL     1       1.582   2.678  18.407  0.00  0.00    +0.000 A 
ENDBRANCH  19  20
ENDBRANCH  18  19
ENDBRANCH  16  18
ENDBRANCH   2  16
TORSDOF 6
ENDMDL
MODEL 9
REMARK VINA RESULT:      -7.6      2.321      4.670
REMARK  Name = 
REMARK  8 active torsions:
REMARK  status: ('A' for Active; 'I' for Inactive)
REMARK    1  A    between atoms: C_1  and  C_2
REMARK    2  A    between atoms: C_2  and  C_3
REMARK    3  A    between atoms: C_2  and  C_4
REMARK    4  A    between atoms: C_7  and  C_8
REMARK    5  A    between atoms: C_9  and  N_10
REMARK    6  A    between atoms: N_10  and  C_11
REMARK    7  A    between atoms: C_11  and  C_12
REMARK    8  A    between atoms: C_12  and  C_13
REMARK                            x       y       z     vdW  Elec       q    Type
REMARK                         _______ _______ _______ _____ _____    ______ ____
ROOT
ATOM      1  C   UNL     1       2.978   4.628  18.804  0.00  0.00    +0.000 C 
ATOM      2  C   UNL     1       4.115   3.906  18.941  0.00  0.00    +0.000 C 
ATOM      3  C   UNL     1       3.476   2.739  18.261  0.00  0.00    +0.000 C 
ATOM      4  O   UNL     1       3.750   1.618  17.911  0.00  0.00    +0.000 OA
ATOM      5  C   UNL     1       2.219   3.550  18.177  0.00  0.00    +0.000 C 
ATOM      6  O   UNL     1       1.145   3.350  17.684  0.00  0.00    +0.000 OA
ENDROOT
BRANCH   1  10
ATOM      7  C   UNL     1       1.573   8.567  19.606  0.00  0.00    +0.000 A 
ATOM      8  C   UNL     1       2.137   8.255  18.357  0.00  0.00    +0.000 A 
ATOM      9  C   UNL     1       2.634   6.975  18.099  0.00  0.00    +0.000 A 
ATOM     10  C   UNL     1       2.518   5.991  19.080  0.00  0.00    +0.000 A 
ATOM     11  C   UNL     1       1.970   6.278  20.321  0.00  0.00    +0.000 A 
ATOM     12  C   UNL     1       1.531   7.571  20.593  0.00  0.00    +0.000 A 
BRANCH   7  14
ATOM     13  C   UNL     1      -0.282  10.211  19.092  0.00  0.00    +0.000 C 
ATOM     14  C   UNL     1       1.017   9.956  19.865  0.00  0.00    +0.000 C 
ATOM     15  C   UNL     1       0.812  10.198  21.361  0.00  0.00    +0.000 C 
ENDBRANCH   7  14
ENDBRANCH   1  10
BRANCH   2  16
ATOM     16  N   UNL     1       5.316   4.028  19.459  0.00  0.00    +0.000 N 
ATOM     17  H   UNL     1       5.867   3.206  19.709  0.00  0.00    +0.000 HD
BRANCH  16  18
ATOM     18  C   UNL     1       6.103   5.257  19.308  0.00  0.00    +0.000 C 
BRANCH  18  19
ATOM     19  C   UNL     1       7.246   5.053  18.299  0.00  0.00    +0.000 C 
BRANCH  19  20
ATOM     20  C   UNL     1       6.731   5.114  16.884  0.00  0.00    +0.000 A 
ATOM     21  C   UNL     1       5.807   6.104  16.518  0.00  0.00    +0.000 A 
ATOM     22  C   UNL     1       5.217   6.086  15.256  0.00  0.00    +0.000 A 
ATOM     23  C   UNL     1       5.559   5.095  14.340  0.00  0.00    +0.000 A 
ATOM     24  C   UNL     1       6.510   4.133  14.676  0.00  0.00    +0.000 A 
ATOM     25  C   UNL     1       7.093   4.140  15.945  0.00  0.00    +0.000 A 
ENDBRANCH  19  20
ENDBRANCH  18  19
ENDBRANCH  16  18
ENDBRANCH   2  16
TORSDOF 6
ENDMDL
