MODEL 1
REMARK VINA RESULT:      -7.9      0.000      0.000
REMARK  Name = 
REMARK  6 active torsions:
REMARK  status: ('A' for Active; 'I' for Inactive)
REMARK    1  A    between atoms: C_1  and  O_2
REMARK    2  A    between atoms: O_2  and  C_3
REMARK    3  A    between atoms: C_3  and  C_5
REMARK    4  A    between atoms: C_6  and  C_7
REMARK    5  A    between atoms: C_12  and  C_13
REMARK    6  A    between atoms: C_16  and  N_17
REMARK                            x       y       z     vdW  Elec       q    Type
REMARK                         _______ _______ _______ _____ _____    ______ ____
ROOT
ATOM      1  C   UNL     1       3.154   4.357  19.242  0.00  0.00    +0.000 C 
ATOM      2  C   UNL     1       2.499   3.428  19.972  0.00  0.00    +0.000 C 
ATOM      3  C   UNL     1       1.017   3.296  20.207  0.00  0.00    +0.000 C 
ATOM      4  N   UNL     1       3.240   2.473  20.635  0.00  0.00    +0.000 N 
ATOM      5  C   UNL     1       4.588   2.315  20.558  0.00  0.00    +0.000 C 
ATOM      6  O   UNL     1       5.175   1.421  21.157  0.00  0.00    +0.000 OA
ATOM      7  N   UNL     1       5.246   3.178  19.754  0.00  0.00    +0.000 N 
ATOM      8  C   UNL     1       4.664   4.369  19.165  0.00  0.00    +0.000 C 
ATOM      9  H   UNL     1       2.775   1.782  21.214  0.00  0.00    +0.000 HD
ATOM     10  H   UNL     1       6.248   3.049  19.724  0.00  0.00    +0.000 HD
ENDROOT
BRANCH   8  11
ATOM     11  C   UNL     1       5.259   4.525  17.768  0.00  0.00    +0.000 A 
ATOM     12  C   UNL     1       4.829   3.717  16.697  0.00  0.00    +0.000 A 
ATOM     13  C   UNL     1       5.423   3.827  15.435  0.00  0.00    +0.000 A 
ATOM     14  C   UNL     1       6.455   4.756  15.239  0.00  0.00    +0.000 A 
ATOM     15  C   UNL     1       6.886   5.574  16.288  0.00  0.00    +0.000 A 
ATOM     16  C   UNL     1       6.291   5.452  17.545  0.00  0.00    +0.000 A 
BRANCH  14  17
ATOM     17  N   UNL     1       7.102   4.858  13.925  0.00  0.00    +0.000 N 
ATOM     18  O   UNL     1       8.036   5.663  13.803  0.00  0.00    +0.000 OA
ATOM     19  O   UNL     1       6.673   4.136  13.013  0.00  0.00    +0.000 OA
ENDBRANCH  14  17
ENDBRANCH   8  11
BRANCH   1  20
ATOM     20  C   UNL     1       2.431   5.450  18.534  0.00  0.00    +0.000 C 
ATOM     21  O   UNL     1       1.711   5.296  17.560  0.00  0.00    +0.000 OA
BRANCH  20  23
ATOM     22  C   UNL     1       2.599   7.762  18.224  0.00  0.00    +0.000 C 
ATOM     23  O   UNL     1       2.698   6.647  19.116  0.00  0.00    +0.000 OA
ENDBRANCH  20  23
ENDBRANCH   1  20
TORSDOF 4
ENDMDL
MODEL 2
REMARK VINA RESULT:      -7.6      0.173      1.268
REMARK  Name = 
REMARK  6 active torsions:
REMARK  status: ('A' for Active; 'I' for Inactive)
REMARK    1  A    between atoms: C_1  and  O_2
REMARK    2  A    between atoms: O_2  and  C_3
REMARK    3  A    between atoms: C_3  and  C_5
REMARK    4  A    between atoms: C_6  and  C_7
REMARK    5  A    between atoms: C_12  and  C_13
REMARK    6  A    between atoms: C_16  and  N_17
REMARK                            x       y       z     vdW  Elec       q    Type
REMARK                         _______ _______ _______ _____ _____    ______ ____
ROOT
ATOM      1  C   UNL     1       3.213   4.350  19.203  0.00  0.00    +0.000 C 
ATOM      2  C   UNL     1       2.500   3.459  19.926  0.00  0.00    +0.000 C 
ATOM      3  C   UNL     1       1.006   3.378  20.101  0.00  0.00    +0.000 C 
ATOM      4  N   UNL     1       3.182   2.497  20.639  0.00  0.00    +0.000 N 
ATOM      5  C   UNL     1       4.526   2.295  20.623  0.00  0.00    +0.000 C 
ATOM      6  O   UNL     1       5.059   1.398  21.265  0.00  0.00    +0.000 OA
ATOM      7  N   UNL     1       5.244   3.119  19.828  0.00  0.00    +0.000 N 
ATOM      8  C   UNL     1       4.725   4.313  19.188  0.00  0.00    +0.000 C 
ATOM      9  H   UNL     1       2.671   1.835  21.213  0.00  0.00    +0.000 HD
ATOM     10  H   UNL     1       6.241   2.958  19.842  0.00  0.00    +0.000 HD
ENDROOT
BRANCH   8  11
ATOM     11  C   UNL     1       5.381   4.417  17.814  0.00  0.00    +0.000 A 
ATOM     12  C   UNL     1       6.461   5.290  17.585  0.00  0.00    +0.000 A 
ATOM     13  C   UNL     1       7.016   5.421  16.306  0.00  0.00    +0.000 A 
ATOM     14  C   UNL     1       6.487   4.670  15.247  0.00  0.00    +0.000 A 
ATOM     15  C   UNL     1       5.422   3.790  15.460  0.00  0.00    +0.000 A 
ATOM     16  C   UNL     1       4.871   3.671  16.737  0.00  0.00    +0.000 A 
BRANCH  14  17
ATOM     17  N   UNL     1       7.045   4.823  13.897  0.00  0.00    +0.000 N 
ATOM     18  O   UNL     1       6.583   4.108  12.998  0.00  0.00    +0.000 OA
ATOM     19  O   UNL     1       7.950   5.655  13.738  0.00  0.00    +0.000 OA
ENDBRANCH  14  17
ENDBRANCH   8  11
BRANCH   1  20
ATOM     20  C   UNL     1       2.555   5.447  18.441  0.00  0.00    +0.000 C 
ATOM     21  O   UNL     1       1.778   5.287  17.513  0.00  0.00    +0.000 OA
BRANCH  20  23
ATOM     22  C   UNL     1       2.982   7.688  17.924  0.00  0.00    +0.000 C 
ATOM     23  O   UNL     1       2.954   6.656  18.915  0.00  0.00    +0.000 OA
ENDBRANCH  20  23
ENDBRANCH   1  20
TORSDOF 4
ENDMDL
MODEL 3
REMARK VINA RESULT:      -7.5      3.042      5.462
REMARK  Name = 
REMARK  6 active torsions:
REMARK  status: ('A' for Active; 'I' for Inactive)
REMARK    1  A    between atoms: C_1  and  O_2
REMARK    2  A    between atoms: O_2  and  C_3
REMARK    3  A    between atoms: C_3  and  C_5
REMARK    4  A    between atoms: C_6  and  C_7
REMARK    5  A    between atoms: C_12  and  C_13
REMARK    6  A    between atoms: C_16  and  N_17
REMARK                            x       y       z     vdW  Elec       q    Type
REMARK                         _______ _______ _______ _____ _____    ______ ____
ROOT
ATOM      1  C   UNL     1       3.031   3.998  19.238  0.00  0.00    +0.000 C 
ATOM      2  C   UNL     1       3.844   3.081  18.669  0.00  0.00    +0.000 C 
ATOM      3  C   UNL     1       3.484   1.727  18.115  0.00  0.00    +0.000 C 
ATOM      4  N   UNL     1       5.192   3.359  18.590  0.00  0.00    +0.000 N 
ATOM      5  C   UNL     1       5.788   4.524  18.956  0.00  0.00    +0.000 C 
ATOM      6  O   UNL     1       6.993   4.707  18.829  0.00  0.00    +0.000 OA
ATOM      7  N   UNL     1       4.973   5.487  19.438  0.00  0.00    +0.000 N 
ATOM      8  C   UNL     1       3.581   5.291  19.796  0.00  0.00    +0.000 C 
ATOM      9  H   UNL     1       5.827   2.674  18.194  0.00  0.00    +0.000 HD
ATOM     10  H   UNL     1       5.441   6.338  19.715  0.00  0.00    +0.000 HD
ENDROOT
BRANCH   8  11
ATOM     11  C   UNL     1       2.826   6.559  19.405  0.00  0.00    +0.000 A 
ATOM     12  C   UNL     1       2.921   7.094  18.106  0.00  0.00    +0.000 A 
ATOM     13  C   UNL     1       2.273   8.291  17.777  0.00  0.00    +0.000 A 
ATOM     14  C   UNL     1       1.519   8.956  18.754  0.00  0.00    +0.000 A 
ATOM     15  C   UNL     1       1.405   8.433  20.045  0.00  0.00    +0.000 A 
ATOM     16  C   UNL     1       2.061   7.243  20.366  0.00  0.00    +0.000 A 
BRANCH  14  17
ATOM     17  N   UNL     1       0.859  10.226  18.423  0.00  0.00    +0.000 N 
ATOM     18  O   UNL     1      -0.327  10.184  18.071  0.00  0.00    +0.000 OA
ATOM     19  O   UNL     1       1.531  11.264  18.510  0.00  0.00    +0.000 OA
ENDBRANCH  14  17
ENDBRANCH   8  11
BRANCH   1  20
ATOM     20  C   UNL     1       1.571   3.755  19.404  0.00  0.00    +0.000 C 
ATOM     21  O   UNL     1       0.791   3.533  18.492  0.00  0.00    +0.000 OA
BRANCH  20  23
ATOM     22  C   UNL     1       1.503   2.640  21.459  0.00  0.00    +0.000 C 
ATOM     23  O   UNL     1       1.226   3.831  20.715  0.00  0.00    +0.000 OA
ENDBRANCH  20  23
ENDBRANCH   1  20
TORSDOF 4
ENDMDL
MODEL 4
REMARK VINA RESULT:      -7.5      2.588      5.704
REMARK  Name = 
REMARK  6 active torsions:
REMARK  status: ('A' for Active; 'I' for Inactive)
REMARK    1  A    between atoms: C_1  and  O_2
REMARK    2  A    between atoms: O_2  and  C_3
REMARK    3  A    between atoms: C_3  and  C_5
REMARK    4  A    between atoms: C_6  and  C_7
REMARK    5  A    between atoms: C_12  and  C_13
REMARK    6  A    between atoms: C_16  and  N_17
REMARK                            x       y       z     vdW  Elec       q    Type
REMARK                         _______ _______ _______ _____ _____    ______ ____
ROOT
ATOM      1  C   UNL     1       6.463   6.053  17.475  0.00  0.00    +0.000 C 
ATOM      2  C   UNL     1       7.377   6.923  17.961  0.00  0.00    +0.000 C 
ATOM      3  C   UNL     1       7.750   8.282  17.430  0.00  0.00    +0.000 C 
ATOM      4  N   UNL     1       8.111   6.552  19.067  0.00  0.00    +0.000 N 
ATOM      5  C   UNL     1       7.947   5.411  19.787  0.00  0.00    +0.000 C 
ATOM      6  O   UNL     1       8.622   5.164  20.779  0.00  0.00    +0.000 OA
ATOM      7  N   UNL     1       6.971   4.575  19.369  0.00  0.00    +0.000 N 
ATOM      8  C   UNL     1       6.261   4.696  18.110  0.00  0.00    +0.000 C 
ATOM      9  H   UNL     1       8.823   7.174  19.434  0.00  0.00    +0.000 HD
ATOM     10  H   UNL     1       6.878   3.729  19.911  0.00  0.00    +0.000 HD
ENDROOT
BRANCH   8  11
ATOM     11  C   UNL     1       4.812   4.289  18.363  0.00  0.00    +0.000 A 
ATOM     12  C   UNL     1       4.047   4.901  19.374  0.00  0.00    +0.000 A 
ATOM     13  C   UNL     1       2.739   4.477  19.637  0.00  0.00    +0.000 A 
ATOM     14  C   UNL     1       2.188   3.435  18.878  0.00  0.00    +0.000 A 
ATOM     15  C   UNL     1       2.930   2.824  17.862  0.00  0.00    +0.000 A 
ATOM     16  C   UNL     1       4.236   3.249  17.612  0.00  0.00    +0.000 A 
BRANCH  14  17
ATOM     17  N   UNL     1       0.826   2.967  19.167  0.00  0.00    +0.000 N 
ATOM     18  O   UNL     1       0.314   2.163  18.376  0.00  0.00    +0.000 OA
ATOM     19  O   UNL     1       0.268   3.408  20.182  0.00  0.00    +0.000 OA
ENDBRANCH  14  17
ENDBRANCH   8  11
BRANCH   1  20
ATOM     20  C   UNL     1       5.662   6.358  16.257  0.00  0.00    +0.000 C 
ATOM     21  O   UNL     1       4.590   6.942  16.253  0.00  0.00    +0.000 OA
BRANCH  20  23
ATOM     22  C   UNL     1       5.643   4.742  14.566  0.00  0.00    +0.000 C 
ATOM     23  O   UNL     1       6.286   5.880  15.150  0.00  0.00    +0.000 OA
ENDBRANCH  20  23
ENDBRANCH   1  20
TORSDOF 4
ENDMDL
MODEL 5
REMARK VINA RESULT:      -7.3      3.065      5.459
REMARK  Name = 
REMARK  6 active torsions:
REMARK  status: ('A' for Active; 'I' for Inactive)
REMARK    1  A    between atoms: C_1  and  O_2
REMARK    2  A    between atoms: O_2  and  C_3
REMARK    3  A    between atoms: C_3  and  C_5
REMARK    4  A    between atoms: C_6  and  C_7
REMARK    5  A    between atoms: C_12  and  C_13
REMARK    6  A    between atoms: C_16  and  N_17
REMARK                            x       y       z     vdW  Elec       q    Type
REMARK                         _______ _______ _______ _____ _____    ______ ____
ROOT
ATOM      1  C   UNL     1       3.004   4.069  19.089  0.00  0.00    +0.000 C 
ATOM      2  C   UNL     1       3.846   3.185  18.510  0.00  0.00    +0.000 C 
ATOM      3  C   UNL     1       3.514   1.882  17.831  0.00  0.00    +0.000 C 
ATOM      4  N   UNL     1       5.199   3.448  18.546  0.00  0.00    +0.000 N 
ATOM      5  C   UNL     1       5.780   4.573  19.041  0.00  0.00    +0.000 C 
ATOM      6  O   UNL     1       6.992   4.747  19.012  0.00  0.00    +0.000 OA
ATOM      7  N   UNL     1       4.942   5.509  19.536  0.00  0.00    +0.000 N 
ATOM      8  C   UNL     1       3.526   5.308  19.781  0.00  0.00    +0.000 C 
ATOM      9  H   UNL     1       5.854   2.785  18.145  0.00  0.00    +0.000 HD
ATOM     10  H   UNL     1       5.397   6.330  19.909  0.00  0.00    +0.000 HD
ENDROOT
BRANCH   8  11
ATOM     11  C   UNL     1       2.813   6.613  19.436  0.00  0.00    +0.000 A 
ATOM     12  C   UNL     1       2.063   7.313  20.400  0.00  0.00    +0.000 A 
ATOM     13  C   UNL     1       1.365   8.476  20.057  0.00  0.00    +0.000 A 
ATOM     14  C   UNL     1       1.419   8.947  18.738  0.00  0.00    +0.000 A 
ATOM     15  C   UNL     1       2.168   8.270  17.770  0.00  0.00    +0.000 A 
ATOM     16  C   UNL     1       2.856   7.107  18.120  0.00  0.00    +0.000 A 
BRANCH  14  17
ATOM     17  N   UNL     1       0.666  10.151  18.364  0.00  0.00    +0.000 N 
ATOM     18  O   UNL     1       1.170  11.251  18.629  0.00  0.00    +0.000 OA
ATOM     19  O   UNL     1      -0.432   9.996  17.810  0.00  0.00    +0.000 OA
ENDBRANCH  14  17
ENDBRANCH   8  11
BRANCH   1  20
ATOM     20  C   UNL     1       1.534   3.836  19.134  0.00  0.00    +0.000 C 
ATOM     21  O   UNL     1       0.827   3.635  18.159  0.00  0.00    +0.000 OA
BRANCH  20  23
ATOM     22  C   UNL     1       1.335   2.706  21.172  0.00  0.00    +0.000 C 
ATOM     23  O   UNL     1       1.086   3.894  20.415  0.00  0.00    +0.000 OA
ENDBRANCH  20  23
ENDBRANCH   1  20
TORSDOF 4
ENDMDL
MODEL 6
REMARK VINA RESULT:      -7.3      2.590      5.588
REMARK  Name = 
REMARK  6 active torsions:
REMARK  status: ('A' for Active; 'I' for Inactive)
REMARK    1  A    between atoms: C_1  and  O_2
REMARK    2  A    between atoms: O_2  and  C_3
REMARK    3  A    between atoms: C_3  and  C_5
REMARK    4  A    between atoms: C_6  and  C_7
REMARK    5  A    between atoms: C_12  and  C_13
REMARK    6  A    between atoms: C_16  and  N_17
REMARK                            x       y       z     vdW  Elec       q    Type
REMARK                         _______ _______ _______ _____ _____    ______ ____
ROOT
ATOM      1  C   UNL     1       6.422   6.124  17.465  0.00  0.00    +0.000 C 
ATOM      2  C   UNL     1       7.343   6.993  17.939  0.00  0.00    +0.000 C 
ATOM      3  C   UNL     1       7.631   8.396  17.474  0.00  0.00    +0.000 C 
ATOM      4  N   UNL     1       8.172   6.578  18.959  0.00  0.00    +0.000 N 
ATOM      5  C   UNL     1       8.101   5.386  19.609  0.00  0.00    +0.000 C 
ATOM      6  O   UNL     1       8.859   5.100  20.529  0.00  0.00    +0.000 OA
ATOM      7  N   UNL     1       7.122   4.545  19.210  0.00  0.00    +0.000 N 
ATOM      8  C   UNL     1       6.312   4.722  18.020  0.00  0.00    +0.000 C 
ATOM      9  H   UNL     1       8.891   7.200  19.312  0.00  0.00    +0.000 HD
ATOM     10  H   UNL     1       7.097   3.662  19.700  0.00  0.00    +0.000 HD
ENDROOT
BRANCH   8  11
ATOM     11  C   UNL     1       4.900   4.247  18.353  0.00  0.00    +0.000 A 
ATOM     12  C   UNL     1       4.251   3.277  17.565  0.00  0.00    +0.000 A 
ATOM     13  C   UNL     1       2.934   2.893  17.845  0.00  0.00    +0.000 A 
ATOM     14  C   UNL     1       2.261   3.481  18.926  0.00  0.00    +0.000 A 
ATOM     15  C   UNL     1       2.895   4.437  19.725  0.00  0.00    +0.000 A 
ATOM     16  C   UNL     1       4.207   4.819  19.434  0.00  0.00    +0.000 A 
BRANCH  14  17
ATOM     17  N   UNL     1       0.871   3.104  19.208  0.00  0.00    +0.000 N 
ATOM     18  O   UNL     1       0.323   3.618  20.192  0.00  0.00    +0.000 OA
ATOM     19  O   UNL     1       0.328   2.289  18.447  0.00  0.00    +0.000 OA
ENDBRANCH  14  17
ENDBRANCH   8  11
BRANCH   1  20
ATOM     20  C   UNL     1       5.520   6.478  16.335  0.00  0.00    +0.000 C 
ATOM     21  O   UNL     1       4.414   6.982  16.454  0.00  0.00    +0.000 OA
BRANCH  20  23
ATOM     22  C   UNL     1       5.650   4.894  14.618  0.00  0.00    +0.000 C 
ATOM     23  O   UNL     1       6.095   6.147  15.150  0.00  0.00    +0.000 OA
ENDBRANCH  20  23
ENDBRANCH   1  20
TORSDOF 4
ENDMDL
MODEL 7
REMARK VINA RESULT:      -7.1      2.855      5.873
REMARK  Name = 
REMARK  6 active torsions:
REMARK  status: ('A' for Active; 'I' for Inactive)
REMARK    1  A    between atoms: C_1  and  O_2
REMARK    2  A    between atoms: O_2  and  C_3
REMARK    3  A    between atoms: C_3  and  C_5
REMARK    4  A    between atoms: C_6  and  C_7
REMARK    5  A    between atoms: C_12  and  C_13
REMARK    6  A    between atoms: C_16  and  N_17
REMARK                            x       y       z     vdW  Elec       q    Type
REMARK                         _______ _______ _______ _____ _____    ______ ____
ROOT
ATOM      1  C   UNL     1       5.292   5.527  17.632  0.00  0.00    +0.000 C 
ATOM      2  C   UNL     1       6.197   4.648  18.118  0.00  0.00    +0.000 C 
ATOM      3  C   UNL     1       7.687   4.626  17.906  0.00  0.00    +0.000 C 
ATOM      4  N   UNL     1       5.743   3.599  18.889  0.00  0.00    +0.000 N 
ATOM      5  C   UNL     1       4.459   3.400  19.289  0.00  0.00    +0.000 C 
ATOM      6  O   UNL     1       4.137   2.455  20.000  0.00  0.00    +0.000 OA
ATOM      7  N   UNL     1       3.559   4.325  18.891  0.00  0.00    +0.000 N 
ATOM      8  C   UNL     1       3.814   5.358  17.904  0.00  0.00    +0.000 C 
ATOM      9  H   UNL     1       6.398   2.909  19.240  0.00  0.00    +0.000 HD
ATOM     10  H   UNL     1       2.611   4.150  19.190  0.00  0.00    +0.000 HD
ENDROOT
BRANCH   8  11
ATOM     11  C   UNL     1       3.073   6.614  18.356  0.00  0.00    +0.000 A 
ATOM     12  C   UNL     1       2.577   6.737  19.668  0.00  0.00    +0.000 A 
ATOM     13  C   UNL     1       1.847   7.867  20.053  0.00  0.00    +0.000 A 
ATOM     14  C   UNL     1       1.613   8.886  19.119  0.00  0.00    +0.000 A 
ATOM     15  C   UNL     1       2.108   8.785  17.815  0.00  0.00    +0.000 A 
ATOM     16  C   UNL     1       2.829   7.651  17.438  0.00  0.00    +0.000 A 
BRANCH  14  17
ATOM     17  N   UNL     1       0.824  10.062  19.508  0.00  0.00    +0.000 N 
ATOM     18  O   UNL     1      -0.187   9.874  20.199  0.00  0.00    +0.000 OA
ATOM     19  O   UNL     1       1.212  11.172  19.117  0.00  0.00    +0.000 OA
ENDBRANCH  14  17
ENDBRANCH   8  11
BRANCH   1  20
ATOM     20  C   UNL     1       5.694   6.660  16.755  0.00  0.00    +0.000 C 
ATOM     21  O   UNL     1       6.350   7.625  17.115  0.00  0.00    +0.000 OA
BRANCH  20  23
ATOM     22  C   UNL     1       5.771   5.346  14.822  0.00  0.00    +0.000 C 
ATOM     23  O   UNL     1       5.215   6.478  15.497  0.00  0.00    +0.000 OA
ENDBRANCH  20  23
ENDBRANCH   1  20
TORSDOF 4
ENDMDL
MODEL 8
REMARK VINA RESULT:      -7.0      2.877      5.836
REMARK  Name = 
REMARK  6 active torsions:
REMARK  status: ('A' for Active; 'I' for Inactive)
REMARK    1  A    between atoms: C_1  and  O_2
REMARK    2  A    between atoms: O_2  and  C_3
REMARK    3  A    between atoms: C_3  and  C_5
REMARK    4  A    between atoms: C_6  and  C_7
REMARK    5  A    between atoms: C_12  and  C_13
REMARK    6  A    between atoms: C_16  and  N_17
REMARK                            x       y       z     vdW  Elec       q    Type
REMARK                         _______ _______ _______ _____ _____    ______ ____
ROOT
ATOM      1  C   UNL     1       5.243   5.526  17.592  0.00  0.00    +0.000 C 
ATOM      2  C   UNL     1       6.123   4.602  18.034  0.00  0.00    +0.000 C 
ATOM      3  C   UNL     1       7.618   4.572  17.854  0.00  0.00    +0.000 C 
ATOM      4  N   UNL     1       5.638   3.508  18.719  0.00  0.00    +0.000 N 
ATOM      5  C   UNL     1       4.343   3.302  19.076  0.00  0.00    +0.000 C 
ATOM      6  O   UNL     1       3.991   2.314  19.711  0.00  0.00    +0.000 OA
ATOM      7  N   UNL     1       3.465   4.266  18.724  0.00  0.00    +0.000 N 
ATOM      8  C   UNL     1       3.757   5.362  17.819  0.00  0.00    +0.000 C 
ATOM      9  H   UNL     1       6.275   2.785  19.035  0.00  0.00    +0.000 HD
ATOM     10  H   UNL     1       2.507   4.084  18.989  0.00  0.00    +0.000 HD
ENDROOT
BRANCH   8  11
ATOM     11  C   UNL     1       3.022   6.594  18.341  0.00  0.00    +0.000 A 
ATOM     12  C   UNL     1       2.569   6.664  19.672  0.00  0.00    +0.000 A 
ATOM     13  C   UNL     1       1.844   7.773  20.123  0.00  0.00    +0.000 A 
ATOM     14  C   UNL     1       1.574   8.824  19.237  0.00  0.00    +0.000 A 
ATOM     15  C   UNL     1       2.026   8.776  17.915  0.00  0.00    +0.000 A 
ATOM     16  C   UNL     1       2.742   7.662  17.472  0.00  0.00    +0.000 A 
BRANCH  14  17
ATOM     17  N   UNL     1       0.790   9.979  19.695  0.00  0.00    +0.000 N 
ATOM     18  O   UNL     1       1.152  11.104  19.326  0.00  0.00    +0.000 OA
ATOM     19  O   UNL     1      -0.185   9.759  20.429  0.00  0.00    +0.000 OA
ENDBRANCH  14  17
ENDBRANCH   8  11
BRANCH   1  20
ATOM     20  C   UNL     1       5.681   6.712  16.806  0.00  0.00    +0.000 C 
ATOM     21  O   UNL     1       5.608   6.812  15.591  0.00  0.00    +0.000 OA
BRANCH  20  23
ATOM     22  C   UNL     1       7.563   7.974  17.384  0.00  0.00    +0.000 C 
ATOM     23  O   UNL     1       6.188   7.664  17.631  0.00  0.00    +0.000 OA
ENDBRANCH  20  23
ENDBRANCH   1  20
TORSDOF 4
ENDMDL
MODEL 9
REMARK VINA RESULT:      -7.0      2.830      5.830
REMARK  Name = 
REMARK  6 active torsions:
REMARK  status: ('A' for Active; 'I' for Inactive)
REMARK    1  A    between atoms: C_1  and  O_2
REMARK    2  A    between atoms: O_2  and  C_3
REMARK    3  A    between atoms: C_3  and  C_5
REMARK    4  A    between atoms: C_6  and  C_7
REMARK    5  A    between atoms: C_12  and  C_13
REMARK    6  A    between atoms: C_16  and  N_17
REMARK                            x       y       z     vdW  Elec       q    Type
REMARK                         _______ _______ _______ _____ _____    ______ ____
ROOT
ATOM      1  C   UNL     1       5.284   5.499  17.627  0.00  0.00    +0.000 C 
ATOM      2  C   UNL     1       6.201   4.648  18.139  0.00  0.00    +0.000 C 
ATOM      3  C   UNL     1       7.696   4.662  17.957  0.00  0.00    +0.000 C 
ATOM      4  N   UNL     1       5.759   3.594  18.910  0.00  0.00    +0.000 N 
ATOM      5  C   UNL     1       4.472   3.367  19.287  0.00  0.00    +0.000 C 
ATOM      6  O   UNL     1       4.160   2.420  19.999  0.00  0.00    +0.000 OA
ATOM      7  N   UNL     1       3.557   4.265  18.862  0.00  0.00    +0.000 N 
ATOM      8  C   UNL     1       3.806   5.296  17.872  0.00  0.00    +0.000 C 
ATOM      9  H   UNL     1       6.424   2.924  19.281  0.00  0.00    +0.000 HD
ATOM     10  H   UNL     1       2.608   4.068  19.144  0.00  0.00    +0.000 HD
ENDROOT
BRANCH   8  11
ATOM     11  C   UNL     1       3.024   6.535  18.297  0.00  0.00    +0.000 A 
ATOM     12  C   UNL     1       2.793   7.596  17.400  0.00  0.00    +0.000 A 
ATOM     13  C   UNL     1       2.127   8.754  17.819  0.00  0.00    +0.000 A 
ATOM     14  C   UNL     1       1.684   8.851  19.146  0.00  0.00    +0.000 A 
ATOM     15  C   UNL     1       1.896   7.802  20.046  0.00  0.00    +0.000 A 
ATOM     16  C   UNL     1       2.567   6.654  19.621  0.00  0.00    +0.000 A 
BRANCH  14  17
ATOM     17  N   UNL     1       1.010  10.074  19.599  0.00  0.00    +0.000 N 
ATOM     18  O   UNL     1       0.836  10.218  20.817  0.00  0.00    +0.000 OA
ATOM     19  O   UNL     1       0.650  10.888  18.736  0.00  0.00    +0.000 OA
ENDBRANCH  14  17
ENDBRANCH   8  11
BRANCH   1  20
ATOM     20  C   UNL     1       5.676   6.635  16.748  0.00  0.00    +0.000 C 
ATOM     21  O   UNL     1       6.294   7.622  17.114  0.00  0.00    +0.000 OA
BRANCH  20  23
ATOM     22  C   UNL     1       5.818   5.287  14.842  0.00  0.00    +0.000 C 
ATOM     23  O   UNL     1       5.233   6.426  15.481  0.00  0.00    +0.000 OA
ENDBRANCH  20  23
ENDBRANCH   1  20
TORSDOF 4
ENDMDL
