MODEL 1
REMARK VINA RESULT:      -7.0      0.000      0.000
REMARK  Name = 
REMARK  9 active torsions:
REMARK  status: ('A' for Active; 'I' for Inactive)
REMARK    1  A    between atoms: C_1  and  C_2
REMARK    2  A    between atoms: C_2  and  O_3
REMARK    3  A    between atoms: O_3  and  C_4
REMARK    4  A    between atoms: C_9  and  C_10
REMARK    5  A    between atoms: C_10  and  N_11
REMARK    6  A    between atoms: C_12  and  C_14
REMARK    7  A    between atoms: N_17  and  C_18
REMARK    8  A    between atoms: C_18  and  C_19
REMARK    9  A    between atoms: C_20  and  C_21
REMARK                            x       y       z     vdW  Elec       q    Type
REMARK                         _______ _______ _______ _____ _____    ______ ____
ROOT
ATOM      1  N   UNL     1       3.162   6.739  19.830  0.00  0.00    +0.000 N 
ATOM      2  C   UNL     1       1.903   6.900  20.372  0.00  0.00    +0.000 C 
ATOM      3  O   UNL     1       1.152   5.957  20.588  0.00  0.00    +0.000 OA
ATOM      4  H   UNL     1       3.810   7.514  19.760  0.00  0.00    +0.000 HD
ENDROOT
BRANCH   2   5
ATOM      5  C   UNL     1       1.504   8.265  20.672  0.00  0.00    +0.000 A 
ATOM      6  C   UNL     1       1.286   8.884  21.920  0.00  0.00    +0.000 A 
ATOM      7  N   UNL     1       0.889  10.150  21.807  0.00  0.00    +0.000 NA
ATOM      8  N   UNL     1       0.817  10.359  20.477  0.00  0.00    +0.000 N 
ATOM      9  C   UNL     1       1.198   9.259  19.745  0.00  0.00    +0.000 A 
BRANCH   9  10
ATOM     10  C   UNL     1       1.250   9.299  18.271  0.00  0.00    +0.000 C 
ATOM     11  F   UNL     1       0.087   9.626  17.665  0.00  0.00    +0.000 F 
ATOM     12  F   UNL     1       2.191  10.174  17.831  0.00  0.00    +0.000 F 
ATOM     13  F   UNL     1       1.600   8.083  17.771  0.00  0.00    +0.000 F 
ENDBRANCH   9  10
BRANCH   8  14
ATOM     14  C   UNL     1       0.462  11.688  20.000  0.00  0.00    +0.000 C 
ATOM     15  C   UNL     1       1.541  12.736  20.215  0.00  0.00    +0.000 C 
ENDBRANCH   8  14
ENDBRANCH   2   5
BRANCH   1  16
ATOM     16  C   UNL     1       3.681   5.417  19.572  0.00  0.00    +0.000 C 
BRANCH  16  22
ATOM     17  C   UNL     1       4.435   3.939  17.584  0.00  0.00    +0.000 A 
ATOM     18  C   UNL     1       4.905   3.867  16.262  0.00  0.00    +0.000 A 
ATOM     19  C   UNL     1       5.311   5.015  15.580  0.00  0.00    +0.000 A 
ATOM     20  C   UNL     1       5.226   6.251  16.205  0.00  0.00    +0.000 A 
ATOM     21  C   UNL     1       4.712   6.338  17.498  0.00  0.00    +0.000 A 
ATOM     22  C   UNL     1       4.308   5.190  18.213  0.00  0.00    +0.000 A 
BRANCH  17  23
ATOM     23  O   UNL     1       4.077   2.828  18.304  0.00  0.00    +0.000 OA
BRANCH  23  25
ATOM     24  C   UNL     1       1.780   2.334  18.725  0.00  0.00    +0.000 C 
ATOM     25  C   UNL     1       2.950   2.111  17.786  0.00  0.00    +0.000 C 
ENDBRANCH  23  25
ENDBRANCH  17  23
ENDBRANCH  16  22
ENDBRANCH   1  16
TORSDOF 7
ENDMDL
MODEL 2
REMARK VINA RESULT:      -6.9      2.139      3.446
REMARK  Name = 
REMARK  9 active torsions:
REMARK  status: ('A' for Active; 'I' for Inactive)
REMARK    1  A    between atoms: C_1  and  C_2
REMARK    2  A    between atoms: C_2  and  O_3
REMARK    3  A    between atoms: O_3  and  C_4
REMARK    4  A    between atoms: C_9  and  C_10
REMARK    5  A    between atoms: C_10  and  N_11
REMARK    6  A    between atoms: C_12  and  C_14
REMARK    7  A    between atoms: N_17  and  C_18
REMARK    8  A    between atoms: C_18  and  C_19
REMARK    9  A    between atoms: C_20  and  C_21
REMARK                            x       y       z     vdW  Elec       q    Type
REMARK                         _______ _______ _______ _____ _____    ______ ____
ROOT
ATOM      1  N   UNL     1       1.918   7.465  20.574  0.00  0.00    +0.000 N 
ATOM      2  C   UNL     1       1.398   8.704  20.259  0.00  0.00    +0.000 C 
ATOM      3  O   UNL     1       1.520   9.208  19.149  0.00  0.00    +0.000 OA
ATOM      4  H   UNL     1       1.715   7.015  21.458  0.00  0.00    +0.000 HD
ENDROOT
BRANCH   2   5
ATOM      5  C   UNL     1       0.693   9.393  21.326  0.00  0.00    +0.000 A 
ATOM      6  C   UNL     1       0.831   9.266  22.724  0.00  0.00    +0.000 A 
ATOM      7  N   UNL     1      -0.017  10.039  23.400  0.00  0.00    +0.000 NA
ATOM      8  N   UNL     1      -0.737  10.659  22.443  0.00  0.00    +0.000 N 
ATOM      9  C   UNL     1      -0.336  10.320  21.173  0.00  0.00    +0.000 A 
BRANCH   9  10
ATOM     10  C   UNL     1      -0.955  10.936  19.983  0.00  0.00    +0.000 C 
ATOM     11  F   UNL     1      -2.065  11.665  20.228  0.00  0.00    +0.000 F 
ATOM     12  F   UNL     1      -0.079  11.743  19.330  0.00  0.00    +0.000 F 
ATOM     13  F   UNL     1      -1.329   9.981  19.089  0.00  0.00    +0.000 F 
ENDBRANCH   9  10
BRANCH   8  14
ATOM     14  C   UNL     1      -1.734  11.639  22.849  0.00  0.00    +0.000 C 
ATOM     15  C   UNL     1      -1.176  13.032  23.087  0.00  0.00    +0.000 C 
ENDBRANCH   8  14
ENDBRANCH   2   5
BRANCH   1  16
ATOM     16  C   UNL     1       2.565   6.666  19.560  0.00  0.00    +0.000 C 
BRANCH  16  22
ATOM     17  C   UNL     1       2.546   4.318  18.468  0.00  0.00    +0.000 A 
ATOM     18  C   UNL     1       2.207   2.958  18.568  0.00  0.00    +0.000 A 
ATOM     19  C   UNL     1       1.419   2.490  19.620  0.00  0.00    +0.000 A 
ATOM     20  C   UNL     1       0.984   3.373  20.598  0.00  0.00    +0.000 A 
ATOM     21  C   UNL     1       1.360   4.714  20.535  0.00  0.00    +0.000 A 
ATOM     22  C   UNL     1       2.144   5.214  19.474  0.00  0.00    +0.000 A 
BRANCH  17  23
ATOM     23  O   UNL     1       3.274   4.824  17.420  0.00  0.00    +0.000 OA
BRANCH  23  25
ATOM     24  C   UNL     1       5.054   4.205  15.957  0.00  0.00    +0.000 C 
ATOM     25  C   UNL     1       4.652   4.436  17.401  0.00  0.00    +0.000 C 
ENDBRANCH  23  25
ENDBRANCH  17  23
ENDBRANCH  16  22
ENDBRANCH   1  16
TORSDOF 7
ENDMDL
MODEL 3
REMARK VINA RESULT:      -6.8      2.879      7.347
REMARK  Name = 
REMARK  9 active torsions:
REMARK  status: ('A' for Active; 'I' for Inactive)
REMARK    1  A    between atoms: C_1  and  C_2
REMARK    2  A    between atoms: C_2  and  O_3
REMARK    3  A    between atoms: O_3  and  C_4
REMARK    4  A    between atoms: C_9  and  C_10
REMARK    5  A    between atoms: C_10  and  N_11
REMARK    6  A    between atoms: C_12  and  C_14
REMARK    7  A    between atoms: N_17  and  C_18
REMARK    8  A    between atoms: C_18  and  C_19
REMARK    9  A    between atoms: C_20  and  C_21
REMARK                            x       y       z     vdW  Elec       q    Type
REMARK                         _______ _______ _______ _____ _____    ______ ____
ROOT
ATOM      1  N   UNL     1       2.195   7.571  19.368  0.00  0.00    +0.000 N 
ATOM      2  C   UNL     1       3.062   7.069  18.419  0.00  0.00    +0.000 C 
ATOM      3  O   UNL     1       3.266   7.630  17.349  0.00  0.00    +0.000 OA
ATOM      4  H   UNL     1       2.121   7.156  20.289  0.00  0.00    +0.000 HD
ENDROOT
BRANCH   2   5
ATOM      5  C   UNL     1       3.724   5.820  18.753  0.00  0.00    +0.000 A 
ATOM      6  C   UNL     1       5.066   5.583  19.120  0.00  0.00    +0.000 A 
ATOM      7  N   UNL     1       5.327   4.293  19.319  0.00  0.00    +0.000 NA
ATOM      8  N   UNL     1       4.160   3.672  19.056  0.00  0.00    +0.000 N 
ATOM      9  C   UNL     1       3.153   4.549  18.729  0.00  0.00    +0.000 A 
BRANCH   9  10
ATOM     10  C   UNL     1       1.779   4.077  18.466  0.00  0.00    +0.000 C 
ATOM     11  F   UNL     1       1.679   2.777  18.111  0.00  0.00    +0.000 F 
ATOM     12  F   UNL     1       0.976   4.263  19.545  0.00  0.00    +0.000 F 
ATOM     13  F   UNL     1       1.218   4.784  17.448  0.00  0.00    +0.000 F 
ENDBRANCH   9  10
BRANCH   8  14
ATOM     14  C   UNL     1       4.082   2.229  19.240  0.00  0.00    +0.000 C 
ATOM     15  C   UNL     1       4.532   1.751  20.610  0.00  0.00    +0.000 C 
ENDBRANCH   8  14
ENDBRANCH   2   5
BRANCH   1  16
ATOM     16  C   UNL     1       1.551   8.847  19.165  0.00  0.00    +0.000 C 
BRANCH  16  22
ATOM     17  C   UNL     1      -0.043  10.527  20.325  0.00  0.00    +0.000 A 
ATOM     18  C   UNL     1      -0.718  10.921  21.492  0.00  0.00    +0.000 A 
ATOM     19  C   UNL     1      -0.446  10.312  22.719  0.00  0.00    +0.000 A 
ATOM     20  C   UNL     1       0.484   9.284  22.783  0.00  0.00    +0.000 A 
ATOM     21  C   UNL     1       1.119   8.852  21.621  0.00  0.00    +0.000 A 
ATOM     22  C   UNL     1       0.871   9.461  20.371  0.00  0.00    +0.000 A 
BRANCH  17  23
ATOM     23  O   UNL     1      -0.245  11.137  19.112  0.00  0.00    +0.000 OA
BRANCH  23  25
ATOM     24  C   UNL     1      -1.619  10.073  17.477  0.00  0.00    +0.000 C 
ATOM     25  C   UNL     1      -1.588  11.069  18.619  0.00  0.00    +0.000 C 
ENDBRANCH  23  25
ENDBRANCH  17  23
ENDBRANCH  16  22
ENDBRANCH   1  16
TORSDOF 7
ENDMDL
MODEL 4
REMARK VINA RESULT:      -6.8      1.816      3.008
REMARK  Name = 
REMARK  9 active torsions:
REMARK  status: ('A' for Active; 'I' for Inactive)
REMARK    1  A    between atoms: C_1  and  C_2
REMARK    2  A    between atoms: C_2  and  O_3
REMARK    3  A    between atoms: O_3  and  C_4
REMARK    4  A    between atoms: C_9  and  C_10
REMARK    5  A    between atoms: C_10  and  N_11
REMARK    6  A    between atoms: C_12  and  C_14
REMARK    7  A    between atoms: N_17  and  C_18
REMARK    8  A    between atoms: C_18  and  C_19
REMARK    9  A    between atoms: C_20  and  C_21
REMARK                            x       y       z     vdW  Elec       q    Type
REMARK                         _______ _______ _______ _____ _____    ______ ____
ROOT
ATOM      1  N   UNL     1       3.906   5.934  19.583  0.00  0.00    +0.000 N 
ATOM      2  C   UNL     1       2.551   6.113  19.389  0.00  0.00    +0.000 C 
ATOM      3  O   UNL     1       1.867   5.324  18.749  0.00  0.00    +0.000 OA
ATOM      4  H   UNL     1       4.435   6.534  20.204  0.00  0.00    +0.000 HD
ENDROOT
BRANCH   2   5
ATOM      5  C   UNL     1       1.970   7.304  19.984  0.00  0.00    +0.000 A 
ATOM      6  C   UNL     1       1.521   7.523  21.303  0.00  0.00    +0.000 A 
ATOM      7  N   UNL     1       1.007   8.738  21.480  0.00  0.00    +0.000 NA
ATOM      8  N   UNL     1       1.093   9.316  20.265  0.00  0.00    +0.000 N 
ATOM      9  C   UNL     1       1.685   8.501  19.329  0.00  0.00    +0.000 A 
BRANCH   9  10
ATOM     10  C   UNL     1       1.930   8.967  17.950  0.00  0.00    +0.000 C 
ATOM     11  F   UNL     1       2.450  10.209  17.850  0.00  0.00    +0.000 F 
ATOM     12  F   UNL     1       2.765   8.127  17.285  0.00  0.00    +0.000 F 
ATOM     13  F   UNL     1       0.771   8.991  17.240  0.00  0.00    +0.000 F 
ENDBRANCH   9  10
BRANCH   8  14
ATOM     14  C   UNL     1       0.663  10.699  20.120  0.00  0.00    +0.000 C 
ATOM     15  C   UNL     1      -0.793  10.860  19.717  0.00  0.00    +0.000 C 
ENDBRANCH   8  14
ENDBRANCH   2   5
BRANCH   1  16
ATOM     16  C   UNL     1       4.561   4.742  19.100  0.00  0.00    +0.000 C 
BRANCH  16  22
ATOM     17  C   UNL     1       6.377   5.642  17.489  0.00  0.00    +0.000 A 
ATOM     18  C   UNL     1       7.017   5.552  16.242  0.00  0.00    +0.000 A 
ATOM     19  C   UNL     1       6.512   4.729  15.233  0.00  0.00    +0.000 A 
ATOM     20  C   UNL     1       5.377   3.968  15.473  0.00  0.00    +0.000 A 
ATOM     21  C   UNL     1       4.767   4.012  16.725  0.00  0.00    +0.000 A 
ATOM     22  C   UNL     1       5.250   4.846  17.756  0.00  0.00    +0.000 A 
BRANCH  17  23
ATOM     23  O   UNL     1       6.813   6.479  18.486  0.00  0.00    +0.000 OA
BRANCH  23  25
ATOM     24  C   UNL     1       7.796   8.530  17.764  0.00  0.00    +0.000 C 
ATOM     25  C   UNL     1       8.072   7.115  18.232  0.00  0.00    +0.000 C 
ENDBRANCH  23  25
ENDBRANCH  17  23
ENDBRANCH  16  22
ENDBRANCH   1  16
TORSDOF 7
ENDMDL
MODEL 5
REMARK VINA RESULT:      -6.7      0.878      1.224
REMARK  Name = 
REMARK  9 active torsions:
REMARK  status: ('A' for Active; 'I' for Inactive)
REMARK    1  A    between atoms: C_1  and  C_2
REMARK    2  A    between atoms: C_2  and  O_3
REMARK    3  A    between atoms: O_3  and  C_4
REMARK    4  A    between atoms: C_9  and  C_10
REMARK    5  A    between atoms: C_10  and  N_11
REMARK    6  A    between atoms: C_12  and  C_14
REMARK    7  A    between atoms: N_17  and  C_18
REMARK    8  A    between atoms: C_18  and  C_19
REMARK    9  A    between atoms: C_20  and  C_21
REMARK                            x       y       z     vdW  Elec       q    Type
REMARK                         _______ _______ _______ _____ _____    ______ ____
ROOT
ATOM      1  N   UNL     1       3.087   6.440  20.040  0.00  0.00    +0.000 N 
ATOM      2  C   UNL     1       1.809   6.735  20.467  0.00  0.00    +0.000 C 
ATOM      3  O   UNL     1       0.962   5.871  20.659  0.00  0.00    +0.000 OA
ATOM      4  H   UNL     1       3.806   7.152  19.993  0.00  0.00    +0.000 HD
ENDROOT
BRANCH   2   5
ATOM      5  C   UNL     1       1.510   8.141  20.674  0.00  0.00    +0.000 A 
ATOM      6  C   UNL     1       1.315   8.852  21.876  0.00  0.00    +0.000 A 
ATOM      7  N   UNL     1       1.019  10.135  21.676  0.00  0.00    +0.000 NA
ATOM      8  N   UNL     1       0.991  10.266  20.335  0.00  0.00    +0.000 N 
ATOM      9  C   UNL     1       1.301   9.097  19.681  0.00  0.00    +0.000 A 
BRANCH   9  10
ATOM     10  C   UNL     1       1.387   9.041  18.208  0.00  0.00    +0.000 C 
ATOM     11  F   UNL     1       1.717   7.833  17.700  0.00  0.00    +0.000 F 
ATOM     12  F   UNL     1       0.216   9.414  17.629  0.00  0.00    +0.000 F 
ATOM     13  F   UNL     1       2.330   9.907  17.750  0.00  0.00    +0.000 F 
ENDBRANCH   9  10
BRANCH   8  14
ATOM     14  C   UNL     1       0.750  11.585  19.769  0.00  0.00    +0.000 C 
ATOM     15  C   UNL     1      -0.291  12.402  20.516  0.00  0.00    +0.000 C 
ENDBRANCH   8  14
ENDBRANCH   2   5
BRANCH   1  16
ATOM     16  C   UNL     1       3.506   5.067  19.885  0.00  0.00    +0.000 C 
BRANCH  16  22
ATOM     17  C   UNL     1       3.939   4.209  17.480  0.00  0.00    +0.000 A 
ATOM     18  C   UNL     1       4.822   4.100  16.393  0.00  0.00    +0.000 A 
ATOM     19  C   UNL     1       6.163   4.470  16.516  0.00  0.00    +0.000 A 
ATOM     20  C   UNL     1       6.626   4.980  17.721  0.00  0.00    +0.000 A 
ATOM     21  C   UNL     1       5.744   5.141  18.788  0.00  0.00    +0.000 A 
ATOM     22  C   UNL     1       4.388   4.761  18.692  0.00  0.00    +0.000 A 
BRANCH  17  23
ATOM     23  O   UNL     1       2.629   3.806  17.412  0.00  0.00    +0.000 OA
BRANCH  23  25
ATOM     24  C   UNL     1       1.278   2.309  18.689  0.00  0.00    +0.000 C 
ATOM     25  C   UNL     1       2.411   2.418  17.686  0.00  0.00    +0.000 C 
ENDBRANCH  23  25
ENDBRANCH  17  23
ENDBRANCH  16  22
ENDBRANCH   1  16
TORSDOF 7
ENDMDL
MODEL 6
REMARK VINA RESULT:      -6.7      1.518      2.576
REMARK  Name = 
REMARK  9 active torsions:
REMARK  status: ('A' for Active; 'I' for Inactive)
REMARK    1  A    between atoms: C_1  and  C_2
REMARK    2  A    between atoms: C_2  and  O_3
REMARK    3  A    between atoms: O_3  and  C_4
REMARK    4  A    between atoms: C_9  and  C_10
REMARK    5  A    between atoms: C_10  and  N_11
REMARK    6  A    between atoms: C_12  and  C_14
REMARK    7  A    between atoms: N_17  and  C_18
REMARK    8  A    between atoms: C_18  and  C_19
REMARK    9  A    between atoms: C_20  and  C_21
REMARK                            x       y       z     vdW  Elec       q    Type
REMARK                         _______ _______ _______ _____ _____    ______ ____
ROOT
ATOM      1  N   UNL     1       3.316   6.419  19.847  0.00  0.00    +0.000 N 
ATOM      2  C   UNL     1       2.030   6.591  20.315  0.00  0.00    +0.000 C 
ATOM      3  O   UNL     1       1.276   5.651  20.534  0.00  0.00    +0.000 OA
ATOM      4  H   UNL     1       3.962   7.196  19.776  0.00  0.00    +0.000 HD
ENDROOT
BRANCH   2   5
ATOM      5  C   UNL     1       1.606   7.963  20.533  0.00  0.00    +0.000 A 
ATOM      6  C   UNL     1       1.310   8.633  21.739  0.00  0.00    +0.000 A 
ATOM      7  N   UNL     1       0.913   9.890  21.549  0.00  0.00    +0.000 NA
ATOM      8  N   UNL     1       0.919  10.042  20.209  0.00  0.00    +0.000 N 
ATOM      9  C   UNL     1       1.348   8.916  19.548  0.00  0.00    +0.000 A 
BRANCH   9  10
ATOM     10  C   UNL     1       1.487   8.894  18.079  0.00  0.00    +0.000 C 
ATOM     11  F   UNL     1       1.901   7.717  17.561  0.00  0.00    +0.000 F 
ATOM     12  F   UNL     1       0.319   9.214  17.466  0.00  0.00    +0.000 F 
ATOM     13  F   UNL     1       2.396   9.820  17.670  0.00  0.00    +0.000 F 
ENDBRANCH   9  10
BRANCH   8  14
ATOM     14  C   UNL     1       0.584  11.346  19.656  0.00  0.00    +0.000 C 
ATOM     15  C   UNL     1      -0.908  11.601  19.521  0.00  0.00    +0.000 C 
ENDBRANCH   8  14
ENDBRANCH   2   5
BRANCH   1  16
ATOM     16  C   UNL     1       3.859   5.092  19.676  0.00  0.00    +0.000 C 
BRANCH  16  22
ATOM     17  C   UNL     1       6.077   4.857  18.359  0.00  0.00    +0.000 A 
ATOM     18  C   UNL     1       6.725   4.481  17.171  0.00  0.00    +0.000 A 
ATOM     19  C   UNL     1       5.995   4.163  16.024  0.00  0.00    +0.000 A 
ATOM     20  C   UNL     1       4.608   4.191  16.063  0.00  0.00    +0.000 A 
ATOM     21  C   UNL     1       3.957   4.512  17.253  0.00  0.00    +0.000 A 
ATOM     22  C   UNL     1       4.672   4.851  18.422  0.00  0.00    +0.000 A 
BRANCH  17  23
ATOM     23  O   UNL     1       6.760   5.227  19.490  0.00  0.00    +0.000 OA
BRANCH  23  25
ATOM     24  C   UNL     1       7.883   7.051  18.438  0.00  0.00    +0.000 C 
ATOM     25  C   UNL     1       8.058   5.785  19.254  0.00  0.00    +0.000 C 
ENDBRANCH  23  25
ENDBRANCH  17  23
ENDBRANCH  16  22
ENDBRANCH   1  16
TORSDOF 7
ENDMDL
MODEL 7
REMARK VINA RESULT:      -6.6      2.898      7.509
REMARK  Name = 
REMARK  9 active torsions:
REMARK  status: ('A' for Active; 'I' for Inactive)
REMARK    1  A    between atoms: C_1  and  C_2
REMARK    2  A    between atoms: C_2  and  O_3
REMARK    3  A    between atoms: O_3  and  C_4
REMARK    4  A    between atoms: C_9  and  C_10
REMARK    5  A    between atoms: C_10  and  N_11
REMARK    6  A    between atoms: C_12  and  C_14
REMARK    7  A    between atoms: N_17  and  C_18
REMARK    8  A    between atoms: C_18  and  C_19
REMARK    9  A    between atoms: C_20  and  C_21
REMARK                            x       y       z     vdW  Elec       q    Type
REMARK                         _______ _______ _______ _____ _____    ______ ____
ROOT
ATOM      1  N   UNL     1       2.097   7.842  19.846  0.00  0.00    +0.000 N 
ATOM      2  C   UNL     1       2.452   7.048  18.775  0.00  0.00    +0.000 C 
ATOM      3  O   UNL     1       2.106   7.296  17.626  0.00  0.00    +0.000 OA
ATOM      4  H   UNL     1       2.481   7.687  20.770  0.00  0.00    +0.000 HD
ENDROOT
BRANCH   2   5
ATOM      5  C   UNL     1       3.263   5.883  19.082  0.00  0.00    +0.000 A 
ATOM      6  C   UNL     1       4.660   5.709  18.987  0.00  0.00    +0.000 A 
ATOM      7  N   UNL     1       5.052   4.481  19.321  0.00  0.00    +0.000 NA
ATOM      8  N   UNL     1       3.906   3.833  19.612  0.00  0.00    +0.000 N 
ATOM      9  C   UNL     1       2.797   4.639  19.504  0.00  0.00    +0.000 A 
BRANCH   9  10
ATOM     10  C   UNL     1       1.449   4.140  19.839  0.00  0.00    +0.000 C 
ATOM     11  F   UNL     1       0.719   3.713  18.785  0.00  0.00    +0.000 F 
ATOM     12  F   UNL     1       1.507   3.115  20.729  0.00  0.00    +0.000 F 
ATOM     13  F   UNL     1       0.711   5.116  20.432  0.00  0.00    +0.000 F 
ENDBRANCH   9  10
BRANCH   8  14
ATOM     14  C   UNL     1       3.984   2.456  20.080  0.00  0.00    +0.000 C 
ATOM     15  C   UNL     1       3.802   1.416  18.989  0.00  0.00    +0.000 C 
ENDBRANCH   8  14
ENDBRANCH   2   5
BRANCH   1  16
ATOM     16  C   UNL     1       1.360   9.066  19.634  0.00  0.00    +0.000 C 
BRANCH  16  22
ATOM     17  C   UNL     1      -0.240  10.734  20.802  0.00  0.00    +0.000 A 
ATOM     18  C   UNL     1      -0.961  11.088  21.955  0.00  0.00    +0.000 A 
ATOM     19  C   UNL     1      -0.770  10.407  23.159  0.00  0.00    +0.000 A 
ATOM     20  C   UNL     1       0.124   9.348  23.214  0.00  0.00    +0.000 A 
ATOM     21  C   UNL     1       0.804   8.956  22.062  0.00  0.00    +0.000 A 
ATOM     22  C   UNL     1       0.639   9.637  20.837  0.00  0.00    +0.000 A 
BRANCH  17  23
ATOM     23  O   UNL     1      -0.361  11.413  19.616  0.00  0.00    +0.000 OA
BRANCH  23  25
ATOM     24  C   UNL     1      -1.836  10.274  18.125  0.00  0.00    +0.000 C 
ATOM     25  C   UNL     1      -1.687  11.447  19.074  0.00  0.00    +0.000 C 
ENDBRANCH  23  25
ENDBRANCH  17  23
ENDBRANCH  16  22
ENDBRANCH   1  16
TORSDOF 7
ENDMDL
MODEL 8
REMARK VINA RESULT:      -6.6      1.573      2.919
REMARK  Name = 
REMARK  9 active torsions:
REMARK  status: ('A' for Active; 'I' for Inactive)
REMARK    1  A    between atoms: C_1  and  C_2
REMARK    2  A    between atoms: C_2  and  O_3
REMARK    3  A    between atoms: O_3  and  C_4
REMARK    4  A    between atoms: C_9  and  C_10
REMARK    5  A    between atoms: C_10  and  N_11
REMARK    6  A    between atoms: C_12  and  C_14
REMARK    7  A    between atoms: N_17  and  C_18
REMARK    8  A    between atoms: C_18  and  C_19
REMARK    9  A    between atoms: C_20  and  C_21
REMARK                            x       y       z     vdW  Elec       q    Type
REMARK                         _______ _______ _______ _____ _____    ______ ____
ROOT
ATOM      1  N   UNL     1       2.025   7.312  20.710  0.00  0.00    +0.000 N 
ATOM      2  C   UNL     1       0.878   8.028  20.986  0.00  0.00    +0.000 C 
ATOM      3  O   UNL     1      -0.146   7.499  21.402  0.00  0.00    +0.000 OA
ATOM      4  H   UNL     1       2.894   7.776  20.473  0.00  0.00    +0.000 HD
ENDROOT
BRANCH   2   5
ATOM      5  C   UNL     1       0.943   9.459  20.749  0.00  0.00    +0.000 A 
ATOM      6  C   UNL     1       0.917  10.526  21.671  0.00  0.00    +0.000 A 
ATOM      7  N   UNL     1       0.960  11.720  21.083  0.00  0.00    +0.000 NA
ATOM      8  N   UNL     1       0.985  11.441  19.764  0.00  0.00    +0.000 N 
ATOM      9  C   UNL     1       0.997  10.090  19.507  0.00  0.00    +0.000 A 
BRANCH   9  10
ATOM     10  C   UNL     1       1.087   9.572  18.128  0.00  0.00    +0.000 C 
ATOM     11  F   UNL     1       1.450   8.275  18.026  0.00  0.00    +0.000 F 
ATOM     12  F   UNL     1      -0.092   9.712  17.468  0.00  0.00    +0.000 F 
ATOM     13  F   UNL     1       2.008  10.272  17.412  0.00  0.00    +0.000 F 
ENDBRANCH   9  10
BRANCH   8  14
ATOM     14  C   UNL     1       1.094  12.545  18.821  0.00  0.00    +0.000 C 
ATOM     15  C   UNL     1      -0.241  13.093  18.347  0.00  0.00    +0.000 C 
ENDBRANCH   8  14
ENDBRANCH   2   5
BRANCH   1  16
ATOM     16  C   UNL     1       2.086   5.897  20.989  0.00  0.00    +0.000 C 
BRANCH  16  22
ATOM     17  C   UNL     1       2.806   5.049  18.650  0.00  0.00    +0.000 A 
ATOM     18  C   UNL     1       2.729   4.048  17.668  0.00  0.00    +0.000 A 
ATOM     19  C   UNL     1       1.811   3.002  17.779  0.00  0.00    +0.000 A 
ATOM     20  C   UNL     1       0.980   2.934  18.888  0.00  0.00    +0.000 A 
ATOM     21  C   UNL     1       1.086   3.894  19.892  0.00  0.00    +0.000 A 
ATOM     22  C   UNL     1       1.997   4.968  19.797  0.00  0.00    +0.000 A 
BRANCH  17  23
ATOM     23  O   UNL     1       3.659   6.120  18.550  0.00  0.00    +0.000 OA
BRANCH  23  25
ATOM     24  C   UNL     1       5.790   5.291  19.232  0.00  0.00    +0.000 C 
ATOM     25  C   UNL     1       4.969   5.805  18.065  0.00  0.00    +0.000 C 
ENDBRANCH  23  25
ENDBRANCH  17  23
ENDBRANCH  16  22
ENDBRANCH   1  16
TORSDOF 7
ENDMDL
MODEL 9
REMARK VINA RESULT:      -6.6      2.280      3.698
REMARK  Name = 
REMARK  9 active torsions:
REMARK  status: ('A' for Active; 'I' for Inactive)
REMARK    1  A    between atoms: C_1  and  C_2
REMARK    2  A    between atoms: C_2  and  O_3
REMARK    3  A    between atoms: O_3  and  C_4
REMARK    4  A    between atoms: C_9  and  C_10
REMARK    5  A    between atoms: C_10  and  N_11
REMARK    6  A    between atoms: C_12  and  C_14
REMARK    7  A    between atoms: N_17  and  C_18
REMARK    8  A    between atoms: C_18  and  C_19
REMARK    9  A    between atoms: C_20  and  C_21
REMARK                            x       y       z     vdW  Elec       q    Type
REMARK                         _______ _______ _______ _____ _____    ______ ____
ROOT
ATOM      1  N   UNL     1       1.604   6.220  18.286  0.00  0.00    +0.000 N 
ATOM      2  C   UNL     1       2.506   7.256  18.415  0.00  0.00    +0.000 C 
ATOM      3  O   UNL     1       3.717   7.092  18.328  0.00  0.00    +0.000 OA
ATOM      4  H   UNL     1       0.606   6.389  18.250  0.00  0.00    +0.000 HD
ENDROOT
BRANCH   2   5
ATOM      5  C   UNL     1       1.941   8.570  18.671  0.00  0.00    +0.000 A 
ATOM      6  C   UNL     1       1.897   9.708  17.839  0.00  0.00    +0.000 A 
ATOM      7  N   UNL     1       1.327  10.757  18.427  0.00  0.00    +0.000 NA
ATOM      8  N   UNL     1       1.017  10.319  19.664  0.00  0.00    +0.000 N 
ATOM      9  C   UNL     1       1.348   8.998  19.857  0.00  0.00    +0.000 A 
BRANCH   9  10
ATOM     10  C   UNL     1       1.036   8.306  21.123  0.00  0.00    +0.000 C 
ATOM     11  F   UNL     1      -0.278   8.242  21.432  0.00  0.00    +0.000 F 
ATOM     12  F   UNL     1       1.511   7.034  21.122  0.00  0.00    +0.000 F 
ATOM     13  F   UNL     1       1.634   8.934  22.172  0.00  0.00    +0.000 F 
ENDBRANCH   9  10
BRANCH   8  14
ATOM     14  C   UNL     1       0.313  11.219  20.566  0.00  0.00    +0.000 C 
ATOM     15  C   UNL     1       0.987  12.568  20.749  0.00  0.00    +0.000 C 
ENDBRANCH   8  14
ENDBRANCH   2   5
BRANCH   1  16
ATOM     16  C   UNL     1       2.062   4.892  17.950  0.00  0.00    +0.000 C 
BRANCH  16  22
ATOM     17  C   UNL     1       3.469   3.254  19.379  0.00  0.00    +0.000 A 
ATOM     18  C   UNL     1       3.591   2.503  20.560  0.00  0.00    +0.000 A 
ATOM     19  C   UNL     1       2.516   2.369  21.441  0.00  0.00    +0.000 A 
ATOM     20  C   UNL     1       1.317   3.008  21.162  0.00  0.00    +0.000 A 
ATOM     21  C   UNL     1       1.203   3.798  20.019  0.00  0.00    +0.000 A 
ATOM     22  C   UNL     1       2.271   3.938  19.106  0.00  0.00    +0.000 A 
BRANCH  17  23
ATOM     23  O   UNL     1       4.485   3.365  18.464  0.00  0.00    +0.000 OA
BRANCH  23  25
ATOM     24  C   UNL     1       6.251   4.696  17.568  0.00  0.00    +0.000 C 
ATOM     25  C   UNL     1       5.533   4.268  18.833  0.00  0.00    +0.000 C 
ENDBRANCH  23  25
ENDBRANCH  17  23
ENDBRANCH  16  22
ENDBRANCH   1  16
TORSDOF 7
ENDMDL
