MODEL 1
REMARK VINA RESULT:      -7.5      0.000      0.000
REMARK  Name = 
REMARK  8 active torsions:
REMARK  status: ('A' for Active; 'I' for Inactive)
REMARK    1  A    between atoms: C_1  and  C_2
REMARK    2  A    between atoms: C_4  and  C_5
REMARK    3  A    between atoms: C_5  and  N_6
REMARK    4  A    between atoms: C_7  and  C_9
REMARK    5  A    between atoms: C_9  and  C_10
REMARK    6  A    between atoms: N_12  and  O_13
REMARK    7  A    between atoms: O_13  and  C_14
REMARK    8  A    between atoms: C_14  and  C_15
REMARK                            x       y       z     vdW  Elec       q    Type
REMARK                         _______ _______ _______ _____ _____    ______ ____
ROOT
ATOM      1  C   UNL     1       7.159   6.581  17.576  0.00  0.00    +0.000 C 
ATOM      2  N   UNL     1       7.531   7.758  17.157  0.00  0.00    +0.000 NA
ENDROOT
BRANCH   1   4
ATOM      3  N   UNL     1       5.689   4.605  17.300  0.00  0.00    +0.000 N 
ATOM      4  C   UNL     1       6.226   5.739  16.720  0.00  0.00    +0.000 C 
ATOM      5  O   UNL     1       5.979   6.083  15.571  0.00  0.00    +0.000 OA
ATOM      6  H   UNL     1       5.955   4.302  18.232  0.00  0.00    +0.000 HD
BRANCH   3   7
ATOM      7  C   UNL     1       4.754   3.764  16.571  0.00  0.00    +0.000 C 
BRANCH   7  11
ATOM      8  C   UNL     1       2.159   4.279  20.146  0.00  0.00    +0.000 C 
ATOM      9  C   UNL     1       1.720   4.063  18.703  0.00  0.00    +0.000 C 
ATOM     10  C   UNL     1       2.612   4.748  17.692  0.00  0.00    +0.000 C 
ATOM     11  C   UNL     1       3.474   3.592  17.342  0.00  0.00    +0.000 C 
ATOM     12  N   UNL     1       3.015   2.434  17.690  0.00  0.00    +0.000 NA
ATOM     13  O   UNL     1       1.800   2.664  18.385  0.00  0.00    +0.000 OA
ENDBRANCH   7  11
ENDBRANCH   3   7
ENDBRANCH   1   4
BRANCH   1  14
ATOM     14  C   UNL     1       7.632   6.110  18.862  0.00  0.00    +0.000 C 
ATOM     15  N   UNL     1       7.943   5.717  19.910  0.00  0.00    +0.000 NA
ENDBRANCH   1  14
BRANCH   2  16
ATOM     16  O   UNL     1       8.373   8.419  18.072  0.00  0.00    +0.000 OA
BRANCH  16  17
ATOM     17  C   UNL     1       8.042   9.813  18.120  0.00  0.00    +0.000 C 
BRANCH  17  18
ATOM     18  C   UNL     1       9.248  10.559  18.635  0.00  0.00    +0.000 A 
ATOM     19  C   UNL     1      10.245  11.014  17.761  0.00  0.00    +0.000 A 
ATOM     20  C   UNL     1      11.387  11.648  18.258  0.00  0.00    +0.000 A 
ATOM     21  C   UNL     1      11.539  11.840  19.630  0.00  0.00    +0.000 A 
ATOM     22  C   UNL     1      10.542  11.417  20.506  0.00  0.00    +0.000 A 
ATOM     23  C   UNL     1       9.400  10.785  20.011  0.00  0.00    +0.000 A 
ENDBRANCH  17  18
ENDBRANCH  16  17
ENDBRANCH   2  16
TORSDOF 7
ENDMDL
MODEL 2
REMARK VINA RESULT:      -7.4      0.994      1.486
REMARK  Name = 
REMARK  8 active torsions:
REMARK  status: ('A' for Active; 'I' for Inactive)
REMARK    1  A    between atoms: C_1  and  C_2
REMARK    2  A    between atoms: C_4  and  C_5
REMARK    3  A    between atoms: C_5  and  N_6
REMARK    4  A    between atoms: C_7  and  C_9
REMARK    5  A    between atoms: C_9  and  C_10
REMARK    6  A    between atoms: N_12  and  O_13
REMARK    7  A    between atoms: O_13  and  C_14
REMARK    8  A    between atoms: C_14  and  C_15
REMARK                            x       y       z     vdW  Elec       q    Type
REMARK                         _______ _______ _______ _____ _____    ______ ____
ROOT
ATOM      1  C   UNL     1       7.226   6.330  17.825  0.00  0.00    +0.000 C 
ATOM      2  N   UNL     1       7.513   7.504  17.335  0.00  0.00    +0.000 NA
ENDROOT
BRANCH   1   4
ATOM      3  N   UNL     1       5.180   4.940  17.665  0.00  0.00    +0.000 N 
ATOM      4  C   UNL     1       6.330   5.387  17.039  0.00  0.00    +0.000 C 
ATOM      5  O   UNL     1       6.641   5.061  15.900  0.00  0.00    +0.000 OA
ATOM      6  H   UNL     1       4.973   5.171  18.632  0.00  0.00    +0.000 HD
BRANCH   3   7
ATOM      7  C   UNL     1       4.244   4.070  16.973  0.00  0.00    +0.000 C 
BRANCH   7  11
ATOM      8  C   UNL     1       0.772   2.930  19.509  0.00  0.00    +0.000 C 
ATOM      9  C   UNL     1       1.846   2.013  18.938  0.00  0.00    +0.000 C 
ATOM     10  C   UNL     1       2.311   2.414  17.557  0.00  0.00    +0.000 C 
ATOM     11  C   UNL     1       3.522   3.179  17.947  0.00  0.00    +0.000 C 
ATOM     12  N   UNL     1       3.941   2.973  19.154  0.00  0.00    +0.000 NA
ATOM     13  O   UNL     1       3.020   2.082  19.763  0.00  0.00    +0.000 OA
ENDBRANCH   7  11
ENDBRANCH   3   7
ENDBRANCH   1   4
BRANCH   1  14
ATOM     14  C   UNL     1       7.757   5.960  19.121  0.00  0.00    +0.000 C 
ATOM     15  N   UNL     1       8.121   5.630  20.174  0.00  0.00    +0.000 NA
ENDBRANCH   1  14
BRANCH   2  16
ATOM     16  O   UNL     1       8.331   8.264  18.192  0.00  0.00    +0.000 OA
BRANCH  16  17
ATOM     17  C   UNL     1       8.106   9.662  17.968  0.00  0.00    +0.000 C 
BRANCH  17  18
ATOM     18  C   UNL     1       9.216  10.426  18.645  0.00  0.00    +0.000 A 
ATOM     19  C   UNL     1       9.209  10.638  20.031  0.00  0.00    +0.000 A 
ATOM     20  C   UNL     1      10.211  11.401  20.636  0.00  0.00    +0.000 A 
ATOM     21  C   UNL     1      11.233  11.952  19.864  0.00  0.00    +0.000 A 
ATOM     22  C   UNL     1      11.266  11.725  18.491  0.00  0.00    +0.000 A 
ATOM     23  C   UNL     1      10.267  10.962  17.884  0.00  0.00    +0.000 A 
ENDBRANCH  17  18
ENDBRANCH  16  17
ENDBRANCH   2  16
TORSDOF 7
ENDMDL
MODEL 3
REMARK VINA RESULT:      -7.4      1.047      1.108
REMARK  Name = 
REMARK  8 active torsions:
REMARK  status: ('A' for Active; 'I' for Inactive)
REMARK    1  A    between atoms: C_1  and  C_2
REMARK    2  A    between atoms: C_4  and  C_5
REMARK    3  A    between atoms: C_5  and  N_6
REMARK    4  A    between atoms: C_7  and  C_9
REMARK    5  A    between atoms: C_9  and  C_10
REMARK    6  A    between atoms: N_12  and  O_13
REMARK    7  A    between atoms: O_13  and  C_14
REMARK    8  A    between atoms: C_14  and  C_15
REMARK                            x       y       z     vdW  Elec       q    Type
REMARK                         _______ _______ _______ _____ _____    ______ ____
ROOT
ATOM      1  C   UNL     1       7.345   6.158  17.956  0.00  0.00    +0.000 C 
ATOM      2  N   UNL     1       7.582   7.312  17.398  0.00  0.00    +0.000 NA
ENDROOT
BRANCH   1   4
ATOM      3  N   UNL     1       5.158   5.084  17.498  0.00  0.00    +0.000 N 
ATOM      4  C   UNL     1       6.512   5.123  17.217  0.00  0.00    +0.000 C 
ATOM      5  O   UNL     1       7.048   4.375  16.409  0.00  0.00    +0.000 OA
ATOM      6  H   UNL     1       4.744   5.670  18.217  0.00  0.00    +0.000 HD
BRANCH   3   7
ATOM      7  C   UNL     1       4.279   4.157  16.808  0.00  0.00    +0.000 C 
BRANCH   7  11
ATOM      8  C   UNL     1       1.024   3.085  19.643  0.00  0.00    +0.000 C 
ATOM      9  C   UNL     1       1.934   2.136  18.872  0.00  0.00    +0.000 C 
ATOM     10  C   UNL     1       2.276   2.624  17.483  0.00  0.00    +0.000 C 
ATOM     11  C   UNL     1       3.590   3.244  17.785  0.00  0.00    +0.000 C 
ATOM     12  N   UNL     1       4.122   2.891  18.911  0.00  0.00    +0.000 NA
ATOM     13  O   UNL     1       3.195   2.029  19.552  0.00  0.00    +0.000 OA
ENDBRANCH   7  11
ENDBRANCH   3   7
ENDBRANCH   1   4
BRANCH   1  14
ATOM     14  C   UNL     1       7.870   5.895  19.281  0.00  0.00    +0.000 C 
ATOM     15  N   UNL     1       8.251   5.626  20.345  0.00  0.00    +0.000 NA
ENDBRANCH   1  14
BRANCH   2  16
ATOM     16  O   UNL     1       8.345   8.165  18.219  0.00  0.00    +0.000 OA
BRANCH  16  17
ATOM     17  C   UNL     1       8.122   9.530  17.844  0.00  0.00    +0.000 C 
BRANCH  17  18
ATOM     18  C   UNL     1       9.162  10.377  18.534  0.00  0.00    +0.000 A 
ATOM     19  C   UNL     1      10.138  11.067  17.800  0.00  0.00    +0.000 A 
ATOM     20  C   UNL     1      11.133  11.796  18.455  0.00  0.00    +0.000 A 
ATOM     21  C   UNL     1      11.158  11.851  19.848  0.00  0.00    +0.000 A 
ATOM     22  C   UNL     1      10.178  11.193  20.587  0.00  0.00    +0.000 A 
ATOM     23  C   UNL     1       9.182  10.465  19.934  0.00  0.00    +0.000 A 
ENDBRANCH  17  18
ENDBRANCH  16  17
ENDBRANCH   2  16
TORSDOF 7
ENDMDL
MODEL 4
REMARK VINA RESULT:      -7.2      0.859      1.337
REMARK  Name = 
REMARK  8 active torsions:
REMARK  status: ('A' for Active; 'I' for Inactive)
REMARK    1  A    between atoms: C_1  and  C_2
REMARK    2  A    between atoms: C_4  and  C_5
REMARK    3  A    between atoms: C_5  and  N_6
REMARK    4  A    between atoms: C_7  and  C_9
REMARK    5  A    between atoms: C_9  and  C_10
REMARK    6  A    between atoms: N_12  and  O_13
REMARK    7  A    between atoms: O_13  and  C_14
REMARK    8  A    between atoms: C_14  and  C_15
REMARK                            x       y       z     vdW  Elec       q    Type
REMARK                         _______ _______ _______ _____ _____    ______ ____
ROOT
ATOM      1  C   UNL     1       7.218   6.118  17.902  0.00  0.00    +0.000 C 
ATOM      2  N   UNL     1       7.559   7.240  17.331  0.00  0.00    +0.000 NA
ENDROOT
BRANCH   1   4
ATOM      3  N   UNL     1       4.989   5.238  17.269  0.00  0.00    +0.000 N 
ATOM      4  C   UNL     1       6.361   5.119  17.142  0.00  0.00    +0.000 C 
ATOM      5  O   UNL     1       6.896   4.259  16.453  0.00  0.00    +0.000 OA
ATOM      6  H   UNL     1       4.566   5.917  17.896  0.00  0.00    +0.000 HD
BRANCH   3   7
ATOM      7  C   UNL     1       4.092   4.354  16.545  0.00  0.00    +0.000 C 
BRANCH   7  11
ATOM      8  C   UNL     1       2.374   2.625  20.266  0.00  0.00    +0.000 C 
ATOM      9  C   UNL     1       1.697   3.571  19.282  0.00  0.00    +0.000 C 
ATOM     10  C   UNL     1       2.632   4.603  18.695  0.00  0.00    +0.000 C 
ATOM     11  C   UNL     1       2.955   3.909  17.424  0.00  0.00    +0.000 C 
ATOM     12  N   UNL     1       2.153   2.946  17.101  0.00  0.00    +0.000 NA
ATOM     13  O   UNL     1       1.213   2.821  18.156  0.00  0.00    +0.000 OA
ENDBRANCH   7  11
ENDBRANCH   3   7
ENDBRANCH   1   4
BRANCH   1  14
ATOM     14  C   UNL     1       7.653   5.859  19.260  0.00  0.00    +0.000 C 
ATOM     15  N   UNL     1       8.051   5.608  20.322  0.00  0.00    +0.000 NA
ENDBRANCH   1  14
BRANCH   2  16
ATOM     16  O   UNL     1       8.330   8.064  18.172  0.00  0.00    +0.000 OA
BRANCH  16  17
ATOM     17  C   UNL     1       8.078   9.442  17.869  0.00  0.00    +0.000 C 
BRANCH  17  18
ATOM     18  C   UNL     1       9.124  10.272  18.571  0.00  0.00    +0.000 A 
ATOM     19  C   UNL     1       9.091  10.453  19.961  0.00  0.00    +0.000 A 
ATOM     20  C   UNL     1      10.030  11.275  20.590  0.00  0.00    +0.000 A 
ATOM     21  C   UNL     1      11.013  11.916  19.838  0.00  0.00    +0.000 A 
ATOM     22  C   UNL     1      11.073  11.722  18.460  0.00  0.00    +0.000 A 
ATOM     23  C   UNL     1      10.137  10.900  17.830  0.00  0.00    +0.000 A 
ENDBRANCH  17  18
ENDBRANCH  16  17
ENDBRANCH   2  16
TORSDOF 7
ENDMDL
MODEL 5
REMARK VINA RESULT:      -7.1      4.547      7.072
REMARK  Name = 
REMARK  8 active torsions:
REMARK  status: ('A' for Active; 'I' for Inactive)
REMARK    1  A    between atoms: C_1  and  C_2
REMARK    2  A    between atoms: C_4  and  C_5
REMARK    3  A    between atoms: C_5  and  N_6
REMARK    4  A    between atoms: C_7  and  C_9
REMARK    5  A    between atoms: C_9  and  C_10
REMARK    6  A    between atoms: N_12  and  O_13
REMARK    7  A    between atoms: O_13  and  C_14
REMARK    8  A    between atoms: C_14  and  C_15
REMARK                            x       y       z     vdW  Elec       q    Type
REMARK                         _______ _______ _______ _____ _____    ______ ____
ROOT
ATOM      1  C   UNL     1       5.921   5.061  16.482  0.00  0.00    +0.000 C 
ATOM      2  N   UNL     1       5.809   4.951  15.187  0.00  0.00    +0.000 NA
ENDROOT
BRANCH   1   4
ATOM      3  N   UNL     1       3.607   4.900  17.357  0.00  0.00    +0.000 N 
ATOM      4  C   UNL     1       4.771   5.644  17.287  0.00  0.00    +0.000 C 
ATOM      5  O   UNL     1       4.905   6.729  17.842  0.00  0.00    +0.000 OA
ATOM      6  H   UNL     1       3.493   4.034  16.839  0.00  0.00    +0.000 HD
BRANCH   3   7
ATOM      7  C   UNL     1       2.472   5.360  18.140  0.00  0.00    +0.000 C 
BRANCH   7  11
ATOM      8  C   UNL     1       2.355   2.655  21.669  0.00  0.00    +0.000 C 
ATOM      9  C   UNL     1       1.197   3.045  20.758  0.00  0.00    +0.000 C 
ATOM     10  C   UNL     1       1.262   4.477  20.278  0.00  0.00    +0.000 C 
ATOM     11  C   UNL     1       1.895   4.236  18.958  0.00  0.00    +0.000 C 
ATOM     12  N   UNL     1       1.855   3.013  18.540  0.00  0.00    +0.000 NA
ATOM     13  O   UNL     1       1.241   2.248  19.564  0.00  0.00    +0.000 OA
ENDBRANCH   7  11
ENDBRANCH   3   7
ENDBRANCH   1   4
BRANCH   1  14
ATOM     14  C   UNL     1       7.150   4.639  17.122  0.00  0.00    +0.000 C 
ATOM     15  N   UNL     1       8.108   4.236  17.641  0.00  0.00    +0.000 NA
ENDBRANCH   1  14
BRANCH   2  16
ATOM     16  O   UNL     1       6.965   4.416  14.588  0.00  0.00    +0.000 OA
BRANCH  16  17
ATOM     17  C   UNL     1       7.032   4.818  13.213  0.00  0.00    +0.000 C 
BRANCH  17  18
ATOM     18  C   UNL     1       6.610   3.645  12.365  0.00  0.00    +0.000 A 
ATOM     19  C   UNL     1       5.255   3.366  12.136  0.00  0.00    +0.000 A 
ATOM     20  C   UNL     1       4.878   2.240  11.401  0.00  0.00    +0.000 A 
ATOM     21  C   UNL     1       5.850   1.387  10.880  0.00  0.00    +0.000 A 
ATOM     22  C   UNL     1       7.200   1.668  11.077  0.00  0.00    +0.000 A 
ATOM     23  C   UNL     1       7.579   2.794  11.810  0.00  0.00    +0.000 A 
ENDBRANCH  17  18
ENDBRANCH  16  17
ENDBRANCH   2  16
TORSDOF 7
ENDMDL
MODEL 6
REMARK VINA RESULT:      -6.9      4.157      7.141
REMARK  Name = 
REMARK  8 active torsions:
REMARK  status: ('A' for Active; 'I' for Inactive)
REMARK    1  A    between atoms: C_1  and  C_2
REMARK    2  A    between atoms: C_4  and  C_5
REMARK    3  A    between atoms: C_5  and  N_6
REMARK    4  A    between atoms: C_7  and  C_9
REMARK    5  A    between atoms: C_9  and  C_10
REMARK    6  A    between atoms: N_12  and  O_13
REMARK    7  A    between atoms: O_13  and  C_14
REMARK    8  A    between atoms: C_14  and  C_15
REMARK                            x       y       z     vdW  Elec       q    Type
REMARK                         _______ _______ _______ _____ _____    ______ ____
ROOT
ATOM      1  C   UNL     1       5.892   4.768  16.918  0.00  0.00    +0.000 C 
ATOM      2  N   UNL     1       5.373   4.313  15.812  0.00  0.00    +0.000 NA
ENDROOT
BRANCH   1   4
ATOM      3  N   UNL     1       4.628   3.068  18.206  0.00  0.00    +0.000 N 
ATOM      4  C   UNL     1       5.568   4.082  18.236  0.00  0.00    +0.000 C 
ATOM      5  O   UNL     1       6.138   4.435  19.261  0.00  0.00    +0.000 OA
ATOM      6  H   UNL     1       4.120   2.834  17.359  0.00  0.00    +0.000 HD
BRANCH   3   7
ATOM      7  C   UNL     1       4.288   2.329  19.410  0.00  0.00    +0.000 C 
BRANCH   7  11
ATOM      8  C   UNL     1       1.589   5.634  20.665  0.00  0.00    +0.000 C 
ATOM      9  C   UNL     1       1.213   4.186  20.380  0.00  0.00    +0.000 C 
ATOM     10  C   UNL     1       1.997   3.571  19.243  0.00  0.00    +0.000 C 
ATOM     11  C   UNL     1       3.041   2.883  20.044  0.00  0.00    +0.000 C 
ATOM     12  N   UNL     1       2.769   2.741  21.300  0.00  0.00    +0.000 NA
ATOM     13  O   UNL     1       1.522   3.378  21.527  0.00  0.00    +0.000 OA
ENDBRANCH   7  11
ENDBRANCH   3   7
ENDBRANCH   1   4
BRANCH   1  14
ATOM     14  C   UNL     1       6.754   5.931  16.867  0.00  0.00    +0.000 C 
ATOM     15  N   UNL     1       7.451   6.854  16.755  0.00  0.00    +0.000 NA
ENDBRANCH   1  14
BRANCH   2  16
ATOM     16  O   UNL     1       5.750   5.070  14.686  0.00  0.00    +0.000 OA
BRANCH  16  17
ATOM     17  C   UNL     1       6.740   4.359  13.930  0.00  0.00    +0.000 C 
BRANCH  17  18
ATOM     18  C   UNL     1       6.035   3.615  12.824  0.00  0.00    +0.000 A 
ATOM     19  C   UNL     1       4.756   3.997  12.396  0.00  0.00    +0.000 A 
ATOM     20  C   UNL     1       4.088   3.261  11.414  0.00  0.00    +0.000 A 
ATOM     21  C   UNL     1       4.695   2.141  10.846  0.00  0.00    +0.000 A 
ATOM     22  C   UNL     1       5.977   1.769  11.243  0.00  0.00    +0.000 A 
ATOM     23  C   UNL     1       6.646   2.504  12.223  0.00  0.00    +0.000 A 
ENDBRANCH  17  18
ENDBRANCH  16  17
ENDBRANCH   2  16
TORSDOF 7
ENDMDL
MODEL 7
REMARK VINA RESULT:      -6.9      3.566      5.907
REMARK  Name = 
REMARK  8 active torsions:
REMARK  status: ('A' for Active; 'I' for Inactive)
REMARK    1  A    between atoms: C_1  and  C_2
REMARK    2  A    between atoms: C_4  and  C_5
REMARK    3  A    between atoms: C_5  and  N_6
REMARK    4  A    between atoms: C_7  and  C_9
REMARK    5  A    between atoms: C_9  and  C_10
REMARK    6  A    between atoms: N_12  and  O_13
REMARK    7  A    between atoms: O_13  and  C_14
REMARK    8  A    between atoms: C_14  and  C_15
REMARK                            x       y       z     vdW  Elec       q    Type
REMARK                         _______ _______ _______ _____ _____    ______ ____
ROOT
ATOM      1  C   UNL     1       3.515   4.231  18.806  0.00  0.00    +0.000 C 
ATOM      2  N   UNL     1       3.801   4.433  17.550  0.00  0.00    +0.000 NA
ENDROOT
BRANCH   1   4
ATOM      3  N   UNL     1       2.843   6.395  19.811  0.00  0.00    +0.000 N 
ATOM      4  C   UNL     1       2.472   5.102  19.488  0.00  0.00    +0.000 C 
ATOM      5  O   UNL     1       1.359   4.648  19.723  0.00  0.00    +0.000 OA
ATOM      6  H   UNL     1       3.790   6.732  19.667  0.00  0.00    +0.000 HD
BRANCH   3   7
ATOM      7  C   UNL     1       1.898   7.311  20.426  0.00  0.00    +0.000 C 
BRANCH   7  11
ATOM      8  C   UNL     1      -0.710  10.045  18.079  0.00  0.00    +0.000 C 
ATOM      9  C   UNL     1       0.658  10.351  18.676  0.00  0.00    +0.000 C 
ATOM     10  C   UNL     1       0.896   9.686  20.013  0.00  0.00    +0.000 C 
ATOM     11  C   UNL     1       1.645   8.497  19.536  0.00  0.00    +0.000 C 
ATOM     12  N   UNL     1       2.114   8.584  18.334  0.00  0.00    +0.000 NA
ATOM     13  O   UNL     1       1.682   9.831  17.813  0.00  0.00    +0.000 OA
ENDBRANCH   7  11
ENDBRANCH   3   7
ENDBRANCH   1   4
BRANCH   1  14
ATOM     14  C   UNL     1       4.214   3.188  19.529  0.00  0.00    +0.000 C 
ATOM     15  N   UNL     1       4.833   2.392  20.106  0.00  0.00    +0.000 NA
ENDBRANCH   1  14
BRANCH   2  16
ATOM     16  O   UNL     1       4.800   3.562  17.075  0.00  0.00    +0.000 OA
BRANCH  16  17
ATOM     17  C   UNL     1       5.670   4.263  16.177  0.00  0.00    +0.000 C 
BRANCH  17  18
ATOM     18  C   UNL     1       6.528   5.195  16.995  0.00  0.00    +0.000 A 
ATOM     19  C   UNL     1       7.266   4.726  18.091  0.00  0.00    +0.000 A 
ATOM     20  C   UNL     1       8.006   5.612  18.878  0.00  0.00    +0.000 A 
ATOM     21  C   UNL     1       8.023   6.972  18.572  0.00  0.00    +0.000 A 
ATOM     22  C   UNL     1       7.317   7.446  17.469  0.00  0.00    +0.000 A 
ATOM     23  C   UNL     1       6.578   6.562  16.681  0.00  0.00    +0.000 A 
ENDBRANCH  17  18
ENDBRANCH  16  17
ENDBRANCH   2  16
TORSDOF 7
ENDMDL
MODEL 8
REMARK VINA RESULT:      -6.9      1.875      8.817
REMARK  Name = 
REMARK  8 active torsions:
REMARK  status: ('A' for Active; 'I' for Inactive)
REMARK    1  A    between atoms: C_1  and  C_2
REMARK    2  A    between atoms: C_4  and  C_5
REMARK    3  A    between atoms: C_5  and  N_6
REMARK    4  A    between atoms: C_7  and  C_9
REMARK    5  A    between atoms: C_9  and  C_10
REMARK    6  A    between atoms: N_12  and  O_13
REMARK    7  A    between atoms: O_13  and  C_14
REMARK    8  A    between atoms: C_14  and  C_15
REMARK                            x       y       z     vdW  Elec       q    Type
REMARK                         _______ _______ _______ _____ _____    ______ ____
ROOT
ATOM      1  C   UNL     1       6.853   6.356  18.392  0.00  0.00    +0.000 C 
ATOM      2  N   UNL     1       5.646   5.999  18.051  0.00  0.00    +0.000 NA
ENDROOT
BRANCH   1   4
ATOM      3  N   UNL     1       7.881   8.603  18.206  0.00  0.00    +0.000 N 
ATOM      4  C   UNL     1       7.583   7.409  17.575  0.00  0.00    +0.000 C 
ATOM      5  O   UNL     1       7.884   7.176  16.411  0.00  0.00    +0.000 OA
ATOM      6  H   UNL     1       7.567   8.802  19.151  0.00  0.00    +0.000 HD
BRANCH   3   7
ATOM      7  C   UNL     1       8.614   9.651  17.516  0.00  0.00    +0.000 C 
BRANCH   7  11
ATOM      8  C   UNL     1      12.181  11.605  19.315  0.00  0.00    +0.000 C 
ATOM      9  C   UNL     1      10.740  12.100  19.338  0.00  0.00    +0.000 C 
ATOM     10  C   UNL     1       9.981  11.807  18.064  0.00  0.00    +0.000 C 
ATOM     11  C   UNL     1       9.299  10.561  18.498  0.00  0.00    +0.000 C 
ATOM     12  N   UNL     1       9.283  10.356  19.775  0.00  0.00    +0.000 NA
ATOM     13  O   UNL     1      10.016  11.413  20.371  0.00  0.00    +0.000 OA
ENDBRANCH   7  11
ENDBRANCH   3   7
ENDBRANCH   1   4
BRANCH   1  14
ATOM     14  C   UNL     1       7.478   5.723  19.536  0.00  0.00    +0.000 C 
ATOM     15  N   UNL     1       7.979   5.279  20.485  0.00  0.00    +0.000 NA
ENDBRANCH   1  14
BRANCH   2  16
ATOM     16  O   UNL     1       5.119   4.999  18.891  0.00  0.00    +0.000 OA
BRANCH  16  17
ATOM     17  C   UNL     1       3.997   5.516  19.619  0.00  0.00    +0.000 C 
BRANCH  17  18
ATOM     18  C   UNL     1       2.882   4.504  19.535  0.00  0.00    +0.000 A 
ATOM     19  C   UNL     1       2.412   4.046  18.296  0.00  0.00    +0.000 A 
ATOM     20  C   UNL     1       1.337   3.156  18.231  0.00  0.00    +0.000 A 
ATOM     21  C   UNL     1       0.727   2.709  19.402  0.00  0.00    +0.000 A 
ATOM     22  C   UNL     1       1.202   3.136  20.640  0.00  0.00    +0.000 A 
ATOM     23  C   UNL     1       2.277   4.024  20.707  0.00  0.00    +0.000 A 
ENDBRANCH  17  18
ENDBRANCH  16  17
ENDBRANCH   2  16
TORSDOF 7
ENDMDL
MODEL 9
REMARK VINA RESULT:      -6.8      4.635      7.399
REMARK  Name = 
REMARK  8 active torsions:
REMARK  status: ('A' for Active; 'I' for Inactive)
REMARK    1  A    between atoms: C_1  and  C_2
REMARK    2  A    between atoms: C_4  and  C_5
REMARK    3  A    between atoms: C_5  and  N_6
REMARK    4  A    between atoms: C_7  and  C_9
REMARK    5  A    between atoms: C_9  and  C_10
REMARK    6  A    between atoms: N_12  and  O_13
REMARK    7  A    between atoms: O_13  and  C_14
REMARK    8  A    between atoms: C_14  and  C_15
REMARK                            x       y       z     vdW  Elec       q    Type
REMARK                         _______ _______ _______ _____ _____    ______ ____
ROOT
ATOM      1  C   UNL     1       2.908   5.327  19.778  0.00  0.00    +0.000 C 
ATOM      2  N   UNL     1       2.912   6.631  19.801  0.00  0.00    +0.000 NA
ENDROOT
BRANCH   1   4
ATOM      3  N   UNL     1       5.220   5.341  18.886  0.00  0.00    +0.000 N 
ATOM      4  C   UNL     1       4.124   4.582  19.253  0.00  0.00    +0.000 C 
ATOM      5  O   UNL     1       4.102   3.359  19.176  0.00  0.00    +0.000 OA
ATOM      6  H   UNL     1       5.196   6.356  18.897  0.00  0.00    +0.000 HD
BRANCH   3   7
ATOM      7  C   UNL     1       6.441   4.710  18.413  0.00  0.00    +0.000 C 
BRANCH   7  11
ATOM      8  C   UNL     1       5.600   4.001  14.104  0.00  0.00    +0.000 C 
ATOM      9  C   UNL     1       6.163   5.263  14.745  0.00  0.00    +0.000 C 
ATOM     10  C   UNL     1       5.574   5.565  16.104  0.00  0.00    +0.000 C 
ATOM     11  C   UNL     1       6.639   4.961  16.943  0.00  0.00    +0.000 C 
ATOM     12  N   UNL     1       7.758   4.731  16.336  0.00  0.00    +0.000 NA
ATOM     13  O   UNL     1       7.571   5.093  14.977  0.00  0.00    +0.000 OA
ENDBRANCH   7  11
ENDBRANCH   3   7
ENDBRANCH   1   4
BRANCH   1  14
ATOM     14  C   UNL     1       1.732   4.618  20.241  0.00  0.00    +0.000 C 
ATOM     15  N   UNL     1       0.803   4.074  20.676  0.00  0.00    +0.000 NA
ENDBRANCH   1  14
BRANCH   2  16
ATOM     16  O   UNL     1       1.707   7.168  20.292  0.00  0.00    +0.000 OA
BRANCH  16  17
ATOM     17  C   UNL     1       1.550   8.516  19.830  0.00  0.00    +0.000 C 
BRANCH  17  18
ATOM     18  C   UNL     1       0.694   9.253  20.830  0.00  0.00    +0.000 A 
ATOM     19  C   UNL     1      -0.042  10.387  20.456  0.00  0.00    +0.000 A 
ATOM     20  C   UNL     1      -0.779  11.097  21.407  0.00  0.00    +0.000 A 
ATOM     21  C   UNL     1      -0.795  10.677  22.736  0.00  0.00    +0.000 A 
ATOM     22  C   UNL     1      -0.090   9.537  23.114  0.00  0.00    +0.000 A 
ATOM     23  C   UNL     1       0.646   8.825  22.165  0.00  0.00    +0.000 A 
ENDBRANCH  17  18
ENDBRANCH  16  17
ENDBRANCH   2  16
TORSDOF 7
ENDMDL
