MODEL 1
REMARK VINA RESULT:      -8.3      0.000      0.000
REMARK  Name = 
REMARK  10 active torsions:
REMARK  status: ('A' for Active; 'I' for Inactive)
REMARK    1  A    between atoms: C_1  and  O_2
REMARK    2  A    between atoms: O_2  and  C_3
REMARK    3  A    between atoms: C_3  and  C_4
REMARK    4  A    between atoms: C_3  and  C_5
REMARK    5  A    between atoms: C_3  and  C_6
REMARK    6  A    between atoms: C_6  and  N_7
REMARK    7  A    between atoms: N_7  and  C_8
REMARK    8  A    between atoms: N_16  and  C_17
REMARK    9  A    between atoms: C_23  and  O_24
REMARK   10  A    between atoms: O_24  and  C_25
REMARK                            x       y       z     vdW  Elec       q    Type
REMARK                         _______ _______ _______ _____ _____    ______ ____
ROOT
ATOM      1  C   UNL     1       3.379   4.599  17.584  0.00  0.00    +0.000 A 
ATOM      2  N   UNL     1       3.270   3.323  17.119  0.00  0.00    +0.000 NA
ATOM      3  C   UNL     1       2.411   2.488  17.727  0.00  0.00    +0.000 A 
ATOM      4  C   UNL     1       1.642   2.858  18.804  0.00  0.00    +0.000 A 
ATOM      5  C   UNL     1       1.781   4.163  19.286  0.00  0.00    +0.000 A 
ATOM      6  C   UNL     1       1.069   4.625  20.376  0.00  0.00    +0.000 A 
ATOM      7  N   UNL     1       1.196   5.860  20.887  0.00  0.00    +0.000 NA
ATOM      8  C   UNL     1       2.060   6.687  20.283  0.00  0.00    +0.000 A 
ATOM      9  N   UNL     1       2.229   7.994  20.775  0.00  0.00    +0.000 N 
ATOM     10  N   UNL     1       2.787   6.346  19.208  0.00  0.00    +0.000 NA
ATOM     11  C   UNL     1       2.661   5.083  18.708  0.00  0.00    +0.000 A 
ATOM     12  H   UNL     1       2.783   8.479  20.070  0.00  0.00    +0.000 HD
ENDROOT
BRANCH   9  13
ATOM     13  C   UNL     1       1.202   8.828  21.285  0.00  0.00    +0.000 A 
ATOM     14  C   UNL     1       0.951   8.866  22.675  0.00  0.00    +0.000 A 
ATOM     15  C   UNL     1      -0.058   9.663  23.220  0.00  0.00    +0.000 A 
ATOM     16  C   UNL     1      -0.839  10.431  22.377  0.00  0.00    +0.000 A 
ATOM     17  F   UNL     1      -1.803  11.206  22.891  0.00  0.00    +0.000 F 
ATOM     18  C   UNL     1      -0.641  10.399  21.006  0.00  0.00    +0.000 A 
ATOM     19  C   UNL     1       0.353   9.580  20.445  0.00  0.00    +0.000 A 
BRANCH  19  20
ATOM     20  O   UNL     1       0.391   9.687  19.082  0.00  0.00    +0.000 OA
BRANCH  20  21
ATOM     21  C   UNL     1      -0.673  10.333  18.411  0.00  0.00    +0.000 C 
ATOM     22  F   UNL     1      -0.340  11.608  18.086  0.00  0.00    +0.000 F 
ATOM     23  F   UNL     1      -0.844   9.679  17.231  0.00  0.00    +0.000 F 
ENDBRANCH  20  21
ENDBRANCH  19  20
ENDBRANCH   9  13
BRANCH   1  24
ATOM     24  N   UNL     1       4.296   5.462  16.940  0.00  0.00    +0.000 N 
ATOM     25  H   UNL     1       3.788   6.057  16.286  0.00  0.00    +0.000 HD
BRANCH  24  26
ATOM     26  C   UNL     1       5.423   4.783  16.287  0.00  0.00    +0.000 C 
BRANCH  26  27
ATOM     27  C   UNL     1       6.773   5.492  16.603  0.00  0.00    +0.000 C 
ATOM     28  C   UNL     1       7.523   4.632  17.634  0.00  0.00    +0.000 C 
ATOM     29  C   UNL     1       6.512   6.894  17.176  0.00  0.00    +0.000 C 
BRANCH  27  31
ATOM     30  C   UNL     1       6.925   4.876  14.248  0.00  0.00    +0.000 C 
ATOM     31  O   UNL     1       7.496   5.557  15.355  0.00  0.00    +0.000 OA
ENDBRANCH  27  31
ENDBRANCH  26  27
ENDBRANCH  24  26
ENDBRANCH   1  24
TORSDOF 7
ENDMDL
MODEL 2
REMARK VINA RESULT:      -8.2      1.027      1.166
REMARK  Name = 
REMARK  10 active torsions:
REMARK  status: ('A' for Active; 'I' for Inactive)
REMARK    1  A    between atoms: C_1  and  O_2
REMARK    2  A    between atoms: O_2  and  C_3
REMARK    3  A    between atoms: C_3  and  C_4
REMARK    4  A    between atoms: C_3  and  C_5
REMARK    5  A    between atoms: C_3  and  C_6
REMARK    6  A    between atoms: C_6  and  N_7
REMARK    7  A    between atoms: N_7  and  C_8
REMARK    8  A    between atoms: N_16  and  C_17
REMARK    9  A    between atoms: C_23  and  O_24
REMARK   10  A    between atoms: O_24  and  C_25
REMARK                            x       y       z     vdW  Elec       q    Type
REMARK                         _______ _______ _______ _____ _____    ______ ____
ROOT
ATOM      1  C   UNL     1       3.360   4.127  17.619  0.00  0.00    +0.000 A 
ATOM      2  N   UNL     1       3.218   2.819  17.266  0.00  0.00    +0.000 NA
ATOM      3  C   UNL     1       2.351   2.058  17.955  0.00  0.00    +0.000 A 
ATOM      4  C   UNL     1       1.606   2.534  19.007  0.00  0.00    +0.000 A 
ATOM      5  C   UNL     1       1.780   3.872  19.373  0.00  0.00    +0.000 A 
ATOM      6  C   UNL     1       1.094   4.441  20.430  0.00  0.00    +0.000 A 
ATOM      7  N   UNL     1       1.254   5.711  20.832  0.00  0.00    +0.000 NA
ATOM      8  C   UNL     1       2.126   6.465  20.147  0.00  0.00    +0.000 A 
ATOM      9  N   UNL     1       2.330   7.806  20.524  0.00  0.00    +0.000 N 
ATOM     10  N   UNL     1       2.829   6.018  19.096  0.00  0.00    +0.000 NA
ATOM     11  C   UNL     1       2.669   4.721  18.707  0.00  0.00    +0.000 A 
ATOM     12  H   UNL     1       2.882   8.216  19.772  0.00  0.00    +0.000 HD
ENDROOT
BRANCH   9  13
ATOM     13  C   UNL     1       1.328   8.702  20.975  0.00  0.00    +0.000 A 
ATOM     14  C   UNL     1       0.996   8.754  22.347  0.00  0.00    +0.000 A 
ATOM     15  C   UNL     1       0.008   9.613  22.834  0.00  0.00    +0.000 A 
ATOM     16  C   UNL     1      -0.671  10.429  21.949  0.00  0.00    +0.000 A 
ATOM     17  F   UNL     1      -1.613  11.263  22.408  0.00  0.00    +0.000 F 
ATOM     18  C   UNL     1      -0.393  10.386  20.592  0.00  0.00    +0.000 A 
ATOM     19  C   UNL     1       0.580   9.507  20.088  0.00  0.00    +0.000 A 
BRANCH  19  20
ATOM     20  O   UNL     1       0.707   9.612  18.731  0.00  0.00    +0.000 OA
BRANCH  20  21
ATOM     21  C   UNL     1       1.999   9.622  18.158  0.00  0.00    +0.000 C 
ATOM     22  F   UNL     1       2.120   8.654  17.214  0.00  0.00    +0.000 F 
ATOM     23  F   UNL     1       2.124  10.805  17.497  0.00  0.00    +0.000 F 
ENDBRANCH  20  21
ENDBRANCH  19  20
ENDBRANCH   9  13
BRANCH   1  24
ATOM     24  N   UNL     1       4.284   4.912  16.891  0.00  0.00    +0.000 N 
ATOM     25  H   UNL     1       3.955   5.005  15.930  0.00  0.00    +0.000 HD
BRANCH  24  26
ATOM     26  C   UNL     1       5.671   4.433  16.942  0.00  0.00    +0.000 C 
BRANCH  26  27
ATOM     27  C   UNL     1       6.678   5.616  17.040  0.00  0.00    +0.000 C 
ATOM     28  C   UNL     1       7.559   5.381  18.278  0.00  0.00    +0.000 C 
ATOM     29  C   UNL     1       5.919   6.945  17.180  0.00  0.00    +0.000 C 
BRANCH  27  31
ATOM     30  C   UNL     1       6.972   4.769  14.772  0.00  0.00    +0.000 C 
ATOM     31  O   UNL     1       7.462   5.581  15.829  0.00  0.00    +0.000 OA
ENDBRANCH  27  31
ENDBRANCH  26  27
ENDBRANCH  24  26
ENDBRANCH   1  24
TORSDOF 7
ENDMDL
MODEL 3
REMARK VINA RESULT:      -8.0      1.561      2.782
REMARK  Name = 
REMARK  10 active torsions:
REMARK  status: ('A' for Active; 'I' for Inactive)
REMARK    1  A    between atoms: C_1  and  O_2
REMARK    2  A    between atoms: O_2  and  C_3
REMARK    3  A    between atoms: C_3  and  C_4
REMARK    4  A    between atoms: C_3  and  C_5
REMARK    5  A    between atoms: C_3  and  C_6
REMARK    6  A    between atoms: C_6  and  N_7
REMARK    7  A    between atoms: N_7  and  C_8
REMARK    8  A    between atoms: N_16  and  C_17
REMARK    9  A    between atoms: C_23  and  O_24
REMARK   10  A    between atoms: O_24  and  C_25
REMARK                            x       y       z     vdW  Elec       q    Type
REMARK                         _______ _______ _______ _____ _____    ______ ____
ROOT
ATOM      1  C   UNL     1       3.911   4.180  18.506  0.00  0.00    +0.000 A 
ATOM      2  N   UNL     1       4.079   2.903  18.950  0.00  0.00    +0.000 NA
ATOM      3  C   UNL     1       3.426   2.517  20.059  0.00  0.00    +0.000 A 
ATOM      4  C   UNL     1       2.602   3.352  20.773  0.00  0.00    +0.000 A 
ATOM      5  C   UNL     1       2.458   4.667  20.319  0.00  0.00    +0.000 A 
ATOM      6  C   UNL     1       1.670   5.591  20.979  0.00  0.00    +0.000 A 
ATOM      7  N   UNL     1       1.529   6.869  20.593  0.00  0.00    +0.000 NA
ATOM      8  C   UNL     1       2.189   7.253  19.492  0.00  0.00    +0.000 A 
ATOM      9  N   UNL     1       2.073   8.581  19.041  0.00  0.00    +0.000 N 
ATOM     10  N   UNL     1       2.965   6.433  18.768  0.00  0.00    +0.000 NA
ATOM     11  C   UNL     1       3.113   5.140  19.178  0.00  0.00    +0.000 A 
ATOM     12  H   UNL     1       2.503   8.590  18.117  0.00  0.00    +0.000 HD
ENDROOT
BRANCH   9  13
ATOM     13  C   UNL     1       0.893   9.366  19.067  0.00  0.00    +0.000 A 
ATOM     14  C   UNL     1       0.158   9.572  17.878  0.00  0.00    +0.000 A 
ATOM     15  C   UNL     1      -1.003  10.348  17.856  0.00  0.00    +0.000 A 
ATOM     16  C   UNL     1      -1.442  10.938  19.026  0.00  0.00    +0.000 A 
ATOM     17  F   UNL     1      -2.560  11.676  19.016  0.00  0.00    +0.000 F 
ATOM     18  C   UNL     1      -0.732  10.782  20.206  0.00  0.00    +0.000 A 
ATOM     19  C   UNL     1       0.452  10.026  20.234  0.00  0.00    +0.000 A 
BRANCH  19  20
ATOM     20  O   UNL     1       1.003   9.991  21.485  0.00  0.00    +0.000 OA
BRANCH  20  21
ATOM     21  C   UNL     1       0.183   9.671  22.591  0.00  0.00    +0.000 C 
ATOM     22  F   UNL     1      -0.569   8.570  22.336  0.00  0.00    +0.000 F 
ATOM     23  F   UNL     1       1.018   9.325  23.608  0.00  0.00    +0.000 F 
ENDBRANCH  20  21
ENDBRANCH  19  20
ENDBRANCH   9  13
BRANCH   1  24
ATOM     24  N   UNL     1       4.614   4.573  17.344  0.00  0.00    +0.000 N 
ATOM     25  H   UNL     1       4.495   3.859  16.626  0.00  0.00    +0.000 HD
BRANCH  24  26
ATOM     26  C   UNL     1       6.032   4.888  17.560  0.00  0.00    +0.000 C 
BRANCH  26  27
ATOM     27  C   UNL     1       6.511   6.029  16.616  0.00  0.00    +0.000 C 
ATOM     28  C   UNL     1       7.200   7.097  17.482  0.00  0.00    +0.000 C 
ATOM     29  C   UNL     1       5.312   6.644  15.878  0.00  0.00    +0.000 C 
BRANCH  27  31
ATOM     30  C   UNL     1       6.897   4.819  14.534  0.00  0.00    +0.000 C 
ATOM     31  O   UNL     1       7.445   5.426  15.695  0.00  0.00    +0.000 OA
ENDBRANCH  27  31
ENDBRANCH  26  27
ENDBRANCH  24  26
ENDBRANCH   1  24
TORSDOF 7
ENDMDL
MODEL 4
REMARK VINA RESULT:      -7.9      1.365      1.755
REMARK  Name = 
REMARK  10 active torsions:
REMARK  status: ('A' for Active; 'I' for Inactive)
REMARK    1  A    between atoms: C_1  and  O_2
REMARK    2  A    between atoms: O_2  and  C_3
REMARK    3  A    between atoms: C_3  and  C_4
REMARK    4  A    between atoms: C_3  and  C_5
REMARK    5  A    between atoms: C_3  and  C_6
REMARK    6  A    between atoms: C_6  and  N_7
REMARK    7  A    between atoms: N_7  and  C_8
REMARK    8  A    between atoms: N_16  and  C_17
REMARK    9  A    between atoms: C_23  and  O_24
REMARK   10  A    between atoms: O_24  and  C_25
REMARK                            x       y       z     vdW  Elec       q    Type
REMARK                         _______ _______ _______ _____ _____    ______ ____
ROOT
ATOM      1  C   UNL     1       3.847   3.784  18.170  0.00  0.00    +0.000 A 
ATOM      2  N   UNL     1       3.694   2.490  17.771  0.00  0.00    +0.000 NA
ATOM      3  C   UNL     1       2.595   1.822  18.161  0.00  0.00    +0.000 A 
ATOM      4  C   UNL     1       1.621   2.380  18.953  0.00  0.00    +0.000 A 
ATOM      5  C   UNL     1       1.802   3.700  19.375  0.00  0.00    +0.000 A 
ATOM      6  C   UNL     1       0.891   4.344  20.190  0.00  0.00    +0.000 A 
ATOM      7  N   UNL     1       1.043   5.599  20.641  0.00  0.00    +0.000 NA
ATOM      8  C   UNL     1       2.145   6.259  20.257  0.00  0.00    +0.000 A 
ATOM      9  N   UNL     1       2.352   7.580  20.697  0.00  0.00    +0.000 N 
ATOM     10  N   UNL     1       3.082   5.735  19.453  0.00  0.00    +0.000 NA
ATOM     11  C   UNL     1       2.924   4.453  19.014  0.00  0.00    +0.000 A 
ATOM     12  H   UNL     1       3.137   7.927  20.148  0.00  0.00    +0.000 HD
ENDROOT
BRANCH   9  13
ATOM     13  C   UNL     1       1.350   8.571  20.846  0.00  0.00    +0.000 A 
ATOM     14  C   UNL     1       0.936   8.967  22.138  0.00  0.00    +0.000 A 
ATOM     15  C   UNL     1      -0.055   9.930  22.331  0.00  0.00    +0.000 A 
ATOM     16  C   UNL     1      -0.656  10.510  21.229  0.00  0.00    +0.000 A 
ATOM     17  F   UNL     1      -1.602  11.442  21.405  0.00  0.00    +0.000 F 
ATOM     18  C   UNL     1      -0.297  10.127  19.946  0.00  0.00    +0.000 A 
ATOM     19  C   UNL     1       0.679   9.139  19.740  0.00  0.00    +0.000 A 
BRANCH  19  20
ATOM     20  O   UNL     1       0.891   8.903  18.411  0.00  0.00    +0.000 OA
BRANCH  20  21
ATOM     21  C   UNL     1       1.970   9.545  17.760  0.00  0.00    +0.000 C 
ATOM     22  F   UNL     1       2.326  10.681  18.413  0.00  0.00    +0.000 F 
ATOM     23  F   UNL     1       3.038   8.708  17.857  0.00  0.00    +0.000 F 
ENDBRANCH  20  21
ENDBRANCH  19  20
ENDBRANCH   9  13
BRANCH   1  24
ATOM     24  N   UNL     1       5.014   4.469  17.759  0.00  0.00    +0.000 N 
ATOM     25  H   UNL     1       4.835   5.473  17.782  0.00  0.00    +0.000 HD
BRANCH  24  26
ATOM     26  C   UNL     1       5.548   4.046  16.458  0.00  0.00    +0.000 C 
BRANCH  26  27
ATOM     27  C   UNL     1       6.288   5.214  15.742  0.00  0.00    +0.000 C 
ATOM     28  C   UNL     1       5.300   6.385  15.611  0.00  0.00    +0.000 C 
ATOM     29  C   UNL     1       6.761   4.766  14.351  0.00  0.00    +0.000 C 
BRANCH  27  31
ATOM     30  C   UNL     1       7.365   6.851  17.194  0.00  0.00    +0.000 C 
ATOM     31  O   UNL     1       7.402   5.567  16.591  0.00  0.00    +0.000 OA
ENDBRANCH  27  31
ENDBRANCH  26  27
ENDBRANCH  24  26
ENDBRANCH   1  24
TORSDOF 7
ENDMDL
MODEL 5
REMARK VINA RESULT:      -7.9      1.019      1.534
REMARK  Name = 
REMARK  10 active torsions:
REMARK  status: ('A' for Active; 'I' for Inactive)
REMARK    1  A    between atoms: C_1  and  O_2
REMARK    2  A    between atoms: O_2  and  C_3
REMARK    3  A    between atoms: C_3  and  C_4
REMARK    4  A    between atoms: C_3  and  C_5
REMARK    5  A    between atoms: C_3  and  C_6
REMARK    6  A    between atoms: C_6  and  N_7
REMARK    7  A    between atoms: N_7  and  C_8
REMARK    8  A    between atoms: N_16  and  C_17
REMARK    9  A    between atoms: C_23  and  O_24
REMARK   10  A    between atoms: O_24  and  C_25
REMARK                            x       y       z     vdW  Elec       q    Type
REMARK                         _______ _______ _______ _____ _____    ______ ____
ROOT
ATOM      1  C   UNL     1       3.214   3.884  17.643  0.00  0.00    +0.000 A 
ATOM      2  N   UNL     1       3.064   2.556  17.380  0.00  0.00    +0.000 NA
ATOM      3  C   UNL     1       2.244   1.834  18.162  0.00  0.00    +0.000 A 
ATOM      4  C   UNL     1       1.556   2.370  19.224  0.00  0.00    +0.000 A 
ATOM      5  C   UNL     1       1.738   3.729  19.497  0.00  0.00    +0.000 A 
ATOM      6  C   UNL     1       1.108   4.358  20.554  0.00  0.00    +0.000 A 
ATOM      7  N   UNL     1       1.279   5.652  20.867  0.00  0.00    +0.000 NA
ATOM      8  C   UNL     1       2.104   6.367  20.089  0.00  0.00    +0.000 A 
ATOM      9  N   UNL     1       2.316   7.730  20.370  0.00  0.00    +0.000 N 
ATOM     10  N   UNL     1       2.750   5.860  19.029  0.00  0.00    +0.000 NA
ATOM     11  C   UNL     1       2.581   4.540  18.730  0.00  0.00    +0.000 A 
ATOM     12  H   UNL     1       2.821   8.096  19.565  0.00  0.00    +0.000 HD
ENDROOT
BRANCH   9  13
ATOM     13  C   UNL     1       1.333   8.646  20.822  0.00  0.00    +0.000 A 
ATOM     14  C   UNL     1       0.596   8.368  21.995  0.00  0.00    +0.000 A 
ATOM     15  C   UNL     1      -0.389   9.236  22.470  0.00  0.00    +0.000 A 
ATOM     16  C   UNL     1      -0.658  10.397  21.770  0.00  0.00    +0.000 A 
ATOM     17  F   UNL     1      -1.594  11.241  22.222  0.00  0.00    +0.000 F 
ATOM     18  C   UNL     1       0.024  10.691  20.600  0.00  0.00    +0.000 A 
ATOM     19  C   UNL     1       0.998   9.811  20.098  0.00  0.00    +0.000 A 
BRANCH  19  20
ATOM     20  O   UNL     1       1.555  10.276  18.939  0.00  0.00    +0.000 OA
BRANCH  20  21
ATOM     21  C   UNL     1       1.153   9.711  17.707  0.00  0.00    +0.000 C 
ATOM     22  F   UNL     1       1.802   8.542  17.473  0.00  0.00    +0.000 F 
ATOM     23  F   UNL     1      -0.162   9.388  17.836  0.00  0.00    +0.000 F 
ENDBRANCH  20  21
ENDBRANCH  19  20
ENDBRANCH   9  13
BRANCH   1  24
ATOM     24  N   UNL     1       4.088   4.627  16.817  0.00  0.00    +0.000 N 
ATOM     25  H   UNL     1       3.564   4.988  16.019  0.00  0.00    +0.000 HD
BRANCH  24  26
ATOM     26  C   UNL     1       5.292   3.904  16.388  0.00  0.00    +0.000 C 
BRANCH  26  27
ATOM     27  C   UNL     1       6.424   4.885  15.965  0.00  0.00    +0.000 C 
ATOM     28  C   UNL     1       5.982   6.306  16.354  0.00  0.00    +0.000 C 
ATOM     29  C   UNL     1       6.655   4.803  14.449  0.00  0.00    +0.000 C 
BRANCH  27  31
ATOM     30  C   UNL     1       7.653   4.855  18.072  0.00  0.00    +0.000 C 
ATOM     31  O   UNL     1       7.600   4.486  16.702  0.00  0.00    +0.000 OA
ENDBRANCH  27  31
ENDBRANCH  26  27
ENDBRANCH  24  26
ENDBRANCH   1  24
TORSDOF 7
ENDMDL
MODEL 6
REMARK VINA RESULT:      -7.8      1.001      1.455
REMARK  Name = 
REMARK  10 active torsions:
REMARK  status: ('A' for Active; 'I' for Inactive)
REMARK    1  A    between atoms: C_1  and  O_2
REMARK    2  A    between atoms: O_2  and  C_3
REMARK    3  A    between atoms: C_3  and  C_4
REMARK    4  A    between atoms: C_3  and  C_5
REMARK    5  A    between atoms: C_3  and  C_6
REMARK    6  A    between atoms: C_6  and  N_7
REMARK    7  A    between atoms: N_7  and  C_8
REMARK    8  A    between atoms: N_16  and  C_17
REMARK    9  A    between atoms: C_23  and  O_24
REMARK   10  A    between atoms: O_24  and  C_25
REMARK                            x       y       z     vdW  Elec       q    Type
REMARK                         _______ _______ _______ _____ _____    ______ ____
ROOT
ATOM      1  C   UNL     1       3.450   4.948  17.537  0.00  0.00    +0.000 A 
ATOM      2  N   UNL     1       3.390   3.681  17.040  0.00  0.00    +0.000 NA
ATOM      3  C   UNL     1       2.571   2.796  17.632  0.00  0.00    +0.000 A 
ATOM      4  C   UNL     1       1.795   3.106  18.723  0.00  0.00    +0.000 A 
ATOM      5  C   UNL     1       1.884   4.404  19.237  0.00  0.00    +0.000 A 
ATOM      6  C   UNL     1       1.162   4.808  20.344  0.00  0.00    +0.000 A 
ATOM      7  N   UNL     1       1.241   6.034  20.884  0.00  0.00    +0.000 NA
ATOM      8  C   UNL     1       2.066   6.911  20.296  0.00  0.00    +0.000 A 
ATOM      9  N   UNL     1       2.185   8.212  20.820  0.00  0.00    +0.000 N 
ATOM     10  N   UNL     1       2.798   6.628  19.208  0.00  0.00    +0.000 NA
ATOM     11  C   UNL     1       2.721   5.374  18.677  0.00  0.00    +0.000 A 
ATOM     12  H   UNL     1       2.712   8.736  20.123  0.00  0.00    +0.000 HD
ENDROOT
BRANCH   9  13
ATOM     13  C   UNL     1       1.128   8.989  21.358  0.00  0.00    +0.000 A 
ATOM     14  C   UNL     1       0.915   9.018  22.754  0.00  0.00    +0.000 A 
ATOM     15  C   UNL     1      -0.121   9.759  23.326  0.00  0.00    +0.000 A 
ATOM     16  C   UNL     1      -0.967  10.480  22.505  0.00  0.00    +0.000 A 
ATOM     17  F   UNL     1      -1.957  11.202  23.045  0.00  0.00    +0.000 F 
ATOM     18  C   UNL     1      -0.807  10.454  21.129  0.00  0.00    +0.000 A 
ATOM     19  C   UNL     1       0.214   9.690  20.541  0.00  0.00    +0.000 A 
BRANCH  19  20
ATOM     20  O   UNL     1       0.207   9.794  19.177  0.00  0.00    +0.000 OA
BRANCH  20  21
ATOM     21  C   UNL     1       1.079  10.714  18.551  0.00  0.00    +0.000 C 
ATOM     22  F   UNL     1       1.614  11.571  19.459  0.00  0.00    +0.000 F 
ATOM     23  F   UNL     1       2.121   9.992  18.060  0.00  0.00    +0.000 F 
ENDBRANCH  20  21
ENDBRANCH  19  20
ENDBRANCH   9  13
BRANCH   1  24
ATOM     24  N   UNL     1       4.325   5.864  16.908  0.00  0.00    +0.000 N 
ATOM     25  H   UNL     1       4.415   5.614  15.923  0.00  0.00    +0.000 HD
BRANCH  24  26
ATOM     26  C   UNL     1       5.638   6.001  17.552  0.00  0.00    +0.000 C 
BRANCH  26  27
ATOM     27  C   UNL     1       6.791   5.640  16.571  0.00  0.00    +0.000 C 
ATOM     28  C   UNL     1       6.175   5.437  15.176  0.00  0.00    +0.000 C 
ATOM     29  C   UNL     1       7.491   4.351  17.029  0.00  0.00    +0.000 C 
BRANCH  27  31
ATOM     30  C   UNL     1       7.401   7.816  17.488  0.00  0.00    +0.000 C 
ATOM     31  O   UNL     1       7.696   6.765  16.580  0.00  0.00    +0.000 OA
ENDBRANCH  27  31
ENDBRANCH  26  27
ENDBRANCH  24  26
ENDBRANCH   1  24
TORSDOF 7
ENDMDL
MODEL 7
REMARK VINA RESULT:      -7.8      1.522      1.564
REMARK  Name = 
REMARK  10 active torsions:
REMARK  status: ('A' for Active; 'I' for Inactive)
REMARK    1  A    between atoms: C_1  and  O_2
REMARK    2  A    between atoms: O_2  and  C_3
REMARK    3  A    between atoms: C_3  and  C_4
REMARK    4  A    between atoms: C_3  and  C_5
REMARK    5  A    between atoms: C_3  and  C_6
REMARK    6  A    between atoms: C_6  and  N_7
REMARK    7  A    between atoms: N_7  and  C_8
REMARK    8  A    between atoms: N_16  and  C_17
REMARK    9  A    between atoms: C_23  and  O_24
REMARK   10  A    between atoms: O_24  and  C_25
REMARK                            x       y       z     vdW  Elec       q    Type
REMARK                         _______ _______ _______ _____ _____    ______ ____
ROOT
ATOM      1  C   UNL     1       3.931   3.428  18.425  0.00  0.00    +0.000 A 
ATOM      2  N   UNL     1       3.745   2.136  18.036  0.00  0.00    +0.000 NA
ATOM      3  C   UNL     1       2.579   1.538  18.330  0.00  0.00    +0.000 A 
ATOM      4  C   UNL     1       1.566   2.164  19.016  0.00  0.00    +0.000 A 
ATOM      5  C   UNL     1       1.781   3.483  19.430  0.00  0.00    +0.000 A 
ATOM      6  C   UNL     1       0.834   4.193  20.143  0.00  0.00    +0.000 A 
ATOM      7  N   UNL     1       1.013   5.448  20.585  0.00  0.00    +0.000 NA
ATOM      8  C   UNL     1       2.181   6.039  20.296  0.00  0.00    +0.000 A 
ATOM      9  N   UNL     1       2.419   7.356  20.731  0.00  0.00    +0.000 N 
ATOM     10  N   UNL     1       3.159   5.447  19.595  0.00  0.00    +0.000 NA
ATOM     11  C   UNL     1       2.972   4.165  19.165  0.00  0.00    +0.000 A 
ATOM     12  H   UNL     1       3.270   7.648  20.254  0.00  0.00    +0.000 HD
ENDROOT
BRANCH   9  13
ATOM     13  C   UNL     1       1.464   8.403  20.766  0.00  0.00    +0.000 A 
ATOM     14  C   UNL     1       1.025   8.915  22.007  0.00  0.00    +0.000 A 
ATOM     15  C   UNL     1       0.078   9.938  22.089  0.00  0.00    +0.000 A 
ATOM     16  C   UNL     1      -0.453  10.460  20.925  0.00  0.00    +0.000 A 
ATOM     17  F   UNL     1      -1.355  11.448  20.992  0.00  0.00    +0.000 F 
ATOM     18  C   UNL     1      -0.068   9.964  19.689  0.00  0.00    +0.000 A 
ATOM     19  C   UNL     1       0.864   8.917  19.596  0.00  0.00    +0.000 A 
BRANCH  19  20
ATOM     20  O   UNL     1       1.111   8.571  18.296  0.00  0.00    +0.000 OA
BRANCH  20  21
ATOM     21  C   UNL     1       2.207   9.157  17.623  0.00  0.00    +0.000 C 
ATOM     22  F   UNL     1       2.515  10.367  18.157  0.00  0.00    +0.000 F 
ATOM     23  F   UNL     1       3.283   8.360  17.861  0.00  0.00    +0.000 F 
ENDBRANCH  20  21
ENDBRANCH  19  20
ENDBRANCH   9  13
BRANCH   1  24
ATOM     24  N   UNL     1       5.168   4.040  18.116  0.00  0.00    +0.000 N 
ATOM     25  H   UNL     1       5.560   4.444  18.966  0.00  0.00    +0.000 HD
BRANCH  24  26
ATOM     26  C   UNL     1       5.112   5.024  17.027  0.00  0.00    +0.000 C 
BRANCH  26  27
ATOM     27  C   UNL     1       6.525   5.590  16.700  0.00  0.00    +0.000 C 
ATOM     28  C   UNL     1       7.565   4.642  17.321  0.00  0.00    +0.000 C 
ATOM     29  C   UNL     1       6.679   7.000  17.292  0.00  0.00    +0.000 C 
BRANCH  27  31
ATOM     30  C   UNL     1       6.612   4.348  14.603  0.00  0.00    +0.000 C 
ATOM     31  O   UNL     1       6.630   5.607  15.261  0.00  0.00    +0.000 OA
ENDBRANCH  27  31
ENDBRANCH  26  27
ENDBRANCH  24  26
ENDBRANCH   1  24
TORSDOF 7
ENDMDL
MODEL 8
REMARK VINA RESULT:      -7.7      1.488      2.784
REMARK  Name = 
REMARK  10 active torsions:
REMARK  status: ('A' for Active; 'I' for Inactive)
REMARK    1  A    between atoms: C_1  and  O_2
REMARK    2  A    between atoms: O_2  and  C_3
REMARK    3  A    between atoms: C_3  and  C_4
REMARK    4  A    between atoms: C_3  and  C_5
REMARK    5  A    between atoms: C_3  and  C_6
REMARK    6  A    between atoms: C_6  and  N_7
REMARK    7  A    between atoms: N_7  and  C_8
REMARK    8  A    between atoms: N_16  and  C_17
REMARK    9  A    between atoms: C_23  and  O_24
REMARK   10  A    between atoms: O_24  and  C_25
REMARK                            x       y       z     vdW  Elec       q    Type
REMARK                         _______ _______ _______ _____ _____    ______ ____
ROOT
ATOM      1  C   UNL     1       3.697   4.045  18.253  0.00  0.00    +0.000 A 
ATOM      2  N   UNL     1       3.790   2.731  18.603  0.00  0.00    +0.000 NA
ATOM      3  C   UNL     1       3.122   2.306  19.689  0.00  0.00    +0.000 A 
ATOM      4  C   UNL     1       2.356   3.137  20.471  0.00  0.00    +0.000 A 
ATOM      5  C   UNL     1       2.289   4.487  20.113  0.00  0.00    +0.000 A 
ATOM      6  C   UNL     1       1.563   5.407  20.846  0.00  0.00    +0.000 A 
ATOM      7  N   UNL     1       1.497   6.715  20.553  0.00  0.00    +0.000 NA
ATOM      8  C   UNL     1       2.171   7.137  19.474  0.00  0.00    +0.000 A 
ATOM      9  N   UNL     1       2.133   8.498  19.119  0.00  0.00    +0.000 N 
ATOM     10  N   UNL     1       2.891   6.326  18.684  0.00  0.00    +0.000 NA
ATOM     11  C   UNL     1       2.963   5.001  19.001  0.00  0.00    +0.000 A 
ATOM     12  H   UNL     1       2.556   8.548  18.194  0.00  0.00    +0.000 HD
ENDROOT
BRANCH   9  13
ATOM     13  C   UNL     1       1.003   9.349  19.215  0.00  0.00    +0.000 A 
ATOM     14  C   UNL     1       0.223   9.616  18.067  0.00  0.00    +0.000 A 
ATOM     15  C   UNL     1      -0.890  10.457  18.113  0.00  0.00    +0.000 A 
ATOM     16  C   UNL     1      -1.237  11.052  19.311  0.00  0.00    +0.000 A 
ATOM     17  F   UNL     1      -2.310  11.852  19.367  0.00  0.00    +0.000 F 
ATOM     18  C   UNL     1      -0.480  10.836  20.452  0.00  0.00    +0.000 A 
ATOM     19  C   UNL     1       0.658  10.014  20.411  0.00  0.00    +0.000 A 
BRANCH  19  20
ATOM     20  O   UNL     1       1.267   9.927  21.632  0.00  0.00    +0.000 OA
BRANCH  20  21
ATOM     21  C   UNL     1       0.588   9.292  22.698  0.00  0.00    +0.000 C 
ATOM     22  F   UNL     1      -0.135  10.190  23.417  0.00  0.00    +0.000 F 
ATOM     23  F   UNL     1      -0.318   8.448  22.136  0.00  0.00    +0.000 F 
ENDBRANCH  20  21
ENDBRANCH  19  20
ENDBRANCH   9  13
BRANCH   1  24
ATOM     24  N   UNL     1       4.414   4.477  17.113  0.00  0.00    +0.000 N 
ATOM     25  H   UNL     1       4.201   3.856  16.332  0.00  0.00    +0.000 HD
BRANCH  24  26
ATOM     26  C   UNL     1       5.862   4.614  17.314  0.00  0.00    +0.000 C 
BRANCH  26  27
ATOM     27  C   UNL     1       6.495   5.564  16.255  0.00  0.00    +0.000 C 
ATOM     28  C   UNL     1       5.435   6.611  15.872  0.00  0.00    +0.000 C 
ATOM     29  C   UNL     1       6.917   4.764  15.013  0.00  0.00    +0.000 C 
BRANCH  27  31
ATOM     30  C   UNL     1       7.439   7.493  17.410  0.00  0.00    +0.000 C 
ATOM     31  O   UNL     1       7.630   6.183  16.896  0.00  0.00    +0.000 OA
ENDBRANCH  27  31
ENDBRANCH  26  27
ENDBRANCH  24  26
ENDBRANCH   1  24
TORSDOF 7
ENDMDL
MODEL 9
REMARK VINA RESULT:      -7.7      1.600      2.850
REMARK  Name = 
REMARK  10 active torsions:
REMARK  status: ('A' for Active; 'I' for Inactive)
REMARK    1  A    between atoms: C_1  and  O_2
REMARK    2  A    between atoms: O_2  and  C_3
REMARK    3  A    between atoms: C_3  and  C_4
REMARK    4  A    between atoms: C_3  and  C_5
REMARK    5  A    between atoms: C_3  and  C_6
REMARK    6  A    between atoms: C_6  and  N_7
REMARK    7  A    between atoms: N_7  and  C_8
REMARK    8  A    between atoms: N_16  and  C_17
REMARK    9  A    between atoms: C_23  and  O_24
REMARK   10  A    between atoms: O_24  and  C_25
REMARK                            x       y       z     vdW  Elec       q    Type
REMARK                         _______ _______ _______ _____ _____    ______ ____
ROOT
ATOM      1  C   UNL     1       4.393   3.783  19.432  0.00  0.00    +0.000 A 
ATOM      2  N   UNL     1       4.345   2.427  19.309  0.00  0.00    +0.000 NA
ATOM      3  C   UNL     1       3.162   1.808  19.463  0.00  0.00    +0.000 A 
ATOM      4  C   UNL     1       1.997   2.478  19.749  0.00  0.00    +0.000 A 
ATOM      5  C   UNL     1       2.066   3.868  19.896  0.00  0.00    +0.000 A 
ATOM      6  C   UNL     1       0.955   4.630  20.204  0.00  0.00    +0.000 A 
ATOM      7  N   UNL     1       0.984   5.960  20.383  0.00  0.00    +0.000 NA
ATOM      8  C   UNL     1       2.168   6.572  20.236  0.00  0.00    +0.000 A 
ATOM      9  N   UNL     1       2.254   7.966  20.408  0.00  0.00    +0.000 N 
ATOM     10  N   UNL     1       3.302   5.930  19.920  0.00  0.00    +0.000 NA
ATOM     11  C   UNL     1       3.263   4.576  19.757  0.00  0.00    +0.000 A 
ATOM     12  H   UNL     1       3.184   8.222  20.080  0.00  0.00    +0.000 HD
ENDROOT
BRANCH   9  13
ATOM     13  C   UNL     1       1.285   8.915  19.996  0.00  0.00    +0.000 A 
ATOM     14  C   UNL     1       0.946   9.027  18.628  0.00  0.00    +0.000 A 
ATOM     15  C   UNL     1       0.005   9.954  18.177  0.00  0.00    +0.000 A 
ATOM     16  C   UNL     1      -0.607  10.793  19.089  0.00  0.00    +0.000 A 
ATOM     17  F   UNL     1      -1.517  11.680  18.666  0.00  0.00    +0.000 F 
ATOM     18  C   UNL     1      -0.280  10.732  20.434  0.00  0.00    +0.000 A 
ATOM     19  C   UNL     1       0.685   9.821  20.896  0.00  0.00    +0.000 A 
BRANCH  19  20
ATOM     20  O   UNL     1       0.866   9.915  22.248  0.00  0.00    +0.000 OA
BRANCH  20  21
ATOM     21  C   UNL     1      -0.221   9.643  23.110  0.00  0.00    +0.000 C 
ATOM     22  F   UNL     1       0.212   9.122  24.288  0.00  0.00    +0.000 F 
ATOM     23  F   UNL     1      -0.785  10.841  23.418  0.00  0.00    +0.000 F 
ENDBRANCH  20  21
ENDBRANCH  19  20
ENDBRANCH   9  13
BRANCH   1  24
ATOM     24  N   UNL     1       5.647   4.416  19.276  0.00  0.00    +0.000 N 
ATOM     25  H   UNL     1       5.853   4.956  20.118  0.00  0.00    +0.000 HD
BRANCH  24  26
ATOM     26  C   UNL     1       5.776   5.237  18.065  0.00  0.00    +0.000 C 
BRANCH  26  27
ATOM     27  C   UNL     1       7.249   5.685  17.836  0.00  0.00    +0.000 C 
ATOM     28  C   UNL     1       7.977   5.611  19.189  0.00  0.00    +0.000 C 
ATOM     29  C   UNL     1       7.287   7.122  17.296  0.00  0.00    +0.000 C 
BRANCH  27  31
ATOM     30  C   UNL     1       7.031   4.449  15.745  0.00  0.00    +0.000 C 
ATOM     31  O   UNL     1       7.812   4.750  16.891  0.00  0.00    +0.000 OA
ENDBRANCH  27  31
ENDBRANCH  26  27
ENDBRANCH  24  26
ENDBRANCH   1  24
TORSDOF 7
ENDMDL
