MODEL 1
REMARK VINA RESULT:      -7.5      0.000      0.000
REMARK  Name = 
REMARK  3 active torsions:
REMARK  status: ('A' for Active; 'I' for Inactive)
REMARK    1  A    between atoms: C_4  and  C_5
REMARK    2  A    between atoms: C_13  and  N_14
REMARK    3  A    between atoms: C_18  and  C_19
REMARK                            x       y       z     vdW  Elec       q    Type
REMARK                         _______ _______ _______ _____ _____    ______ ____
ROOT
ATOM      1 CL   UNL     1       0.677   9.221  21.609  0.00  0.00    +0.000 Cl
ATOM      2  C   UNL     1       1.442   8.396  20.294  0.00  0.00    +0.000 A 
ATOM      3  C   UNL     1       1.894   7.085  20.501  0.00  0.00    +0.000 A 
ATOM      4  C   UNL     1       2.527   6.363  19.471  0.00  0.00    +0.000 A 
ATOM      5  C   UNL     1       2.666   6.991  18.229  0.00  0.00    +0.000 A 
ATOM      6  C   UNL     1       2.218   8.297  18.029  0.00  0.00    +0.000 A 
ATOM      7  C   UNL     1       1.605   9.029  19.053  0.00  0.00    +0.000 A 
ENDROOT
BRANCH   7   8
ATOM      8  N   UNL     1       1.086  10.311  18.787  0.00  0.00    +0.000 N 
ATOM      9  C   UNL     1      -0.255  10.641  18.577  0.00  0.00    +0.000 A 
ATOM     10  N   UNL     1      -0.631  11.901  18.829  0.00  0.00    +0.000 NA
ATOM     11  C   UNL     1      -1.933  12.204  18.623  0.00  0.00    +0.000 A 
ATOM     12  C   UNL     1      -2.872  11.340  18.093  0.00  0.00    +0.000 A 
ATOM     13  C   UNL     1      -2.365  10.077  17.868  0.00  0.00    +0.000 A 
ATOM     14  N   UNL     1      -1.095   9.703  18.114  0.00  0.00    +0.000 NA
ATOM     15  H   UNL     1       1.667  10.904  18.209  0.00  0.00    +0.000 HD
BRANCH  12  16
ATOM     16  C   UNL     1      -4.290  11.721  17.781  0.00  0.00    +0.000 C 
ATOM     17  C   UNL     1      -5.424  10.800  18.170  0.00  0.00    +0.000 C 
ATOM     18  C   UNL     1      -5.221  12.079  18.919  0.00  0.00    +0.000 C 
ENDBRANCH  12  16
ENDBRANCH   7   8
BRANCH   4  19
ATOM     19  C   UNL     1       2.952   4.906  19.678  0.00  0.00    +0.000 C 
ATOM     20  C   UNL     1       2.253   4.144  20.840  0.00  0.00    +0.000 C 
ATOM     21  N   UNL     1       0.832   3.846  20.559  0.00  0.00    +0.000 NA
ATOM     22  C   UNL     1       0.788   3.055  19.317  0.00  0.00    +0.000 C 
ATOM     23  C   UNL     1       1.515   3.741  18.150  0.00  0.00    +0.000 C 
ATOM     24  O   UNL     1       2.859   4.125  18.472  0.00  0.00    +0.000 OA
ATOM     25  H   UNL     1       0.349   4.731  20.391  0.00  0.00    +0.000 HD
ENDBRANCH   4  19
TORSDOF 3
ENDMDL
MODEL 2
REMARK VINA RESULT:      -7.1      1.686      2.152
REMARK  Name = 
REMARK  3 active torsions:
REMARK  status: ('A' for Active; 'I' for Inactive)
REMARK    1  A    between atoms: C_4  and  C_5
REMARK    2  A    between atoms: C_13  and  N_14
REMARK    3  A    between atoms: C_18  and  C_19
REMARK                            x       y       z     vdW  Elec       q    Type
REMARK                         _______ _______ _______ _____ _____    ______ ____
ROOT
ATOM      1 CL   UNL     1       0.931   8.678  21.634  0.00  0.00    +0.000 Cl
ATOM      2  C   UNL     1       1.628   8.184  20.129  0.00  0.00    +0.000 A 
ATOM      3  C   UNL     1       2.152   6.888  20.030  0.00  0.00    +0.000 A 
ATOM      4  C   UNL     1       2.735   6.429  18.834  0.00  0.00    +0.000 A 
ATOM      5  C   UNL     1       2.751   7.304  17.742  0.00  0.00    +0.000 A 
ATOM      6  C   UNL     1       2.231   8.594  17.847  0.00  0.00    +0.000 A 
ATOM      7  C   UNL     1       1.668   9.066  19.039  0.00  0.00    +0.000 A 
ENDROOT
BRANCH   7   8
ATOM      8  N   UNL     1       1.074  10.342  19.078  0.00  0.00    +0.000 N 
ATOM      9  C   UNL     1      -0.259  10.651  18.798  0.00  0.00    +0.000 A 
ATOM     10  N   UNL     1      -0.766  11.764  19.343  0.00  0.00    +0.000 NA
ATOM     11  C   UNL     1      -2.059  12.048  19.064  0.00  0.00    +0.000 A 
ATOM     12  C   UNL     1      -2.857  11.328  18.195  0.00  0.00    +0.000 A 
ATOM     13  C   UNL     1      -2.223  10.212  17.692  0.00  0.00    +0.000 A 
ATOM     14  N   UNL     1      -0.960   9.846  17.985  0.00  0.00    +0.000 NA
ATOM     15  H   UNL     1       1.662  11.105  18.771  0.00  0.00    +0.000 HD
BRANCH  12  16
ATOM     16  C   UNL     1      -4.260  11.712  17.822  0.00  0.00    +0.000 C 
ATOM     17  C   UNL     1      -5.407  10.781  18.137  0.00  0.00    +0.000 C 
ATOM     18  C   UNL     1      -5.246  12.046  18.920  0.00  0.00    +0.000 C 
ENDBRANCH  12  16
ENDBRANCH   7   8
BRANCH   4  19
ATOM     19  C   UNL     1       3.239   4.988  18.705  0.00  0.00    +0.000 C 
ATOM     20  C   UNL     1       3.651   4.529  17.277  0.00  0.00    +0.000 C 
ATOM     21  N   UNL     1       4.901   5.166  16.807  0.00  0.00    +0.000 NA
ATOM     22  C   UNL     1       5.953   4.838  17.784  0.00  0.00    +0.000 C 
ATOM     23  C   UNL     1       5.570   5.222  19.222  0.00  0.00    +0.000 C 
ATOM     24  O   UNL     1       4.302   4.688  19.628  0.00  0.00    +0.000 OA
ATOM     25  H   UNL     1       4.763   6.179  16.814  0.00  0.00    +0.000 HD
ENDBRANCH   4  19
TORSDOF 3
ENDMDL
MODEL 3
REMARK VINA RESULT:      -7.0      1.207      1.577
REMARK  Name = 
REMARK  3 active torsions:
REMARK  status: ('A' for Active; 'I' for Inactive)
REMARK    1  A    between atoms: C_4  and  C_5
REMARK    2  A    between atoms: C_13  and  N_14
REMARK    3  A    between atoms: C_18  and  C_19
REMARK                            x       y       z     vdW  Elec       q    Type
REMARK                         _______ _______ _______ _____ _____    ______ ____
ROOT
ATOM      1 CL   UNL     1       2.120   9.609  17.563  0.00  0.00    +0.000 Cl
ATOM      2  C   UNL     1       1.815   8.594  18.931  0.00  0.00    +0.000 A 
ATOM      3  C   UNL     1       2.372   7.307  18.945  0.00  0.00    +0.000 A 
ATOM      4  C   UNL     1       2.156   6.433  20.027  0.00  0.00    +0.000 A 
ATOM      5  C   UNL     1       1.388   6.904  21.098  0.00  0.00    +0.000 A 
ATOM      6  C   UNL     1       0.834   8.183  21.078  0.00  0.00    +0.000 A 
ATOM      7  C   UNL     1       1.026   9.051  19.996  0.00  0.00    +0.000 A 
ENDROOT
BRANCH   7   8
ATOM      8  N   UNL     1       0.524  10.367  20.053  0.00  0.00    +0.000 N 
ATOM      9  C   UNL     1      -0.737  10.797  19.637  0.00  0.00    +0.000 A 
ATOM     10  N   UNL     1      -1.226  11.913  20.192  0.00  0.00    +0.000 NA
ATOM     11  C   UNL     1      -2.450  12.316  19.781  0.00  0.00    +0.000 A 
ATOM     12  C   UNL     1      -3.183  11.715  18.775  0.00  0.00    +0.000 A 
ATOM     13  C   UNL     1      -2.573  10.584  18.275  0.00  0.00    +0.000 A 
ATOM     14  N   UNL     1      -1.387  10.101  18.691  0.00  0.00    +0.000 NA
ATOM     15  H   UNL     1       1.201  11.097  19.872  0.00  0.00    +0.000 HD
BRANCH  12  16
ATOM     16  C   UNL     1      -4.497  12.231  18.263  0.00  0.00    +0.000 C 
ATOM     17  C   UNL     1      -5.474  11.287  17.601  0.00  0.00    +0.000 C 
ATOM     18  C   UNL     1      -5.772  11.820  18.967  0.00  0.00    +0.000 C 
ENDBRANCH  12  16
ENDBRANCH   7   8
BRANCH   4  19
ATOM     19  C   UNL     1       2.827   5.057  20.074  0.00  0.00    +0.000 C 
ATOM     20  C   UNL     1       2.213   4.026  21.065  0.00  0.00    +0.000 C 
ATOM     21  N   UNL     1       0.888   3.532  20.633  0.00  0.00    +0.000 NA
ATOM     22  C   UNL     1       1.059   2.933  19.298  0.00  0.00    +0.000 C 
ATOM     23  C   UNL     1       1.714   3.895  18.294  0.00  0.00    +0.000 C 
ATOM     24  O   UNL     1       2.946   4.454  18.772  0.00  0.00    +0.000 OA
ATOM     25  H   UNL     1       0.262   4.336  20.544  0.00  0.00    +0.000 HD
ENDBRANCH   4  19
TORSDOF 3
ENDMDL
MODEL 4
REMARK VINA RESULT:      -6.9      5.689      8.760
REMARK  Name = 
REMARK  3 active torsions:
REMARK  status: ('A' for Active; 'I' for Inactive)
REMARK    1  A    between atoms: C_4  and  C_5
REMARK    2  A    between atoms: C_13  and  N_14
REMARK    3  A    between atoms: C_18  and  C_19
REMARK                            x       y       z     vdW  Elec       q    Type
REMARK                         _______ _______ _______ _____ _____    ______ ____
ROOT
ATOM      1 CL   UNL     1       4.396   7.412  16.526  0.00  0.00    +0.000 Cl
ATOM      2  C   UNL     1       4.504   6.238  17.794  0.00  0.00    +0.000 A 
ATOM      3  C   UNL     1       3.444   6.141  18.706  0.00  0.00    +0.000 A 
ATOM      4  C   UNL     1       3.474   5.209  19.761  0.00  0.00    +0.000 A 
ATOM      5  C   UNL     1       4.589   4.368  19.850  0.00  0.00    +0.000 A 
ATOM      6  C   UNL     1       5.643   4.470  18.942  0.00  0.00    +0.000 A 
ATOM      7  C   UNL     1       5.630   5.408  17.903  0.00  0.00    +0.000 A 
ENDROOT
BRANCH   7   8
ATOM      8  N   UNL     1       6.671   5.420  16.954  0.00  0.00    +0.000 N 
ATOM      9  C   UNL     1       6.613   4.933  15.647  0.00  0.00    +0.000 A 
ATOM     10  N   UNL     1       7.469   5.447  14.755  0.00  0.00    +0.000 NA
ATOM     11  C   UNL     1       7.399   4.967  13.492  0.00  0.00    +0.000 A 
ATOM     12  C   UNL     1       6.579   3.932  13.084  0.00  0.00    +0.000 A 
ATOM     13  C   UNL     1       5.752   3.480  14.091  0.00  0.00    +0.000 A 
ATOM     14  N   UNL     1       5.734   3.964  15.347  0.00  0.00    +0.000 NA
ATOM     15  H   UNL     1       7.598   5.265  17.325  0.00  0.00    +0.000 HD
BRANCH  12  16
ATOM     16  C   UNL     1       6.583   3.345  11.702  0.00  0.00    +0.000 C 
ATOM     17  C   UNL     1       7.006   1.909  11.491  0.00  0.00    +0.000 C 
ATOM     18  C   UNL     1       5.563   2.283  11.352  0.00  0.00    +0.000 C 
ENDBRANCH  12  16
ENDBRANCH   7   8
BRANCH   4  19
ATOM     19  C   UNL     1       2.283   5.055  20.710  0.00  0.00    +0.000 C 
ATOM     20  C   UNL     1       0.931   4.647  20.055  0.00  0.00    +0.000 C 
ATOM     21  N   UNL     1       0.924   3.247  19.578  0.00  0.00    +0.000 NA
ATOM     22  C   UNL     1       1.222   2.388  20.737  0.00  0.00    +0.000 C 
ATOM     23  C   UNL     1       2.522   2.786  21.453  0.00  0.00    +0.000 C 
ATOM     24  O   UNL     1       2.563   4.174  21.813  0.00  0.00    +0.000 OA
ATOM     25  H   UNL     1       1.679   3.139  18.898  0.00  0.00    +0.000 HD
ENDBRANCH   4  19
TORSDOF 3
ENDMDL
MODEL 5
REMARK VINA RESULT:      -6.9      0.933      1.087
REMARK  Name = 
REMARK  3 active torsions:
REMARK  status: ('A' for Active; 'I' for Inactive)
REMARK    1  A    between atoms: C_4  and  C_5
REMARK    2  A    between atoms: C_13  and  N_14
REMARK    3  A    between atoms: C_18  and  C_19
REMARK                            x       y       z     vdW  Elec       q    Type
REMARK                         _______ _______ _______ _____ _____    ______ ____
ROOT
ATOM      1 CL   UNL     1       0.551   9.047  21.586  0.00  0.00    +0.000 Cl
ATOM      2  C   UNL     1       1.392   8.307  20.267  0.00  0.00    +0.000 A 
ATOM      3  C   UNL     1       1.848   6.990  20.421  0.00  0.00    +0.000 A 
ATOM      4  C   UNL     1       2.541   6.335  19.386  0.00  0.00    +0.000 A 
ATOM      5  C   UNL     1       2.737   7.036  18.191  0.00  0.00    +0.000 A 
ATOM      6  C   UNL     1       2.285   8.347  18.044  0.00  0.00    +0.000 A 
ATOM      7  C   UNL     1       1.612   9.013  19.075  0.00  0.00    +0.000 A 
ENDROOT
BRANCH   7   8
ATOM      8  N   UNL     1       1.092  10.304  18.857  0.00  0.00    +0.000 N 
ATOM      9  C   UNL     1      -0.236  10.632  18.579  0.00  0.00    +0.000 A 
ATOM     10  N   UNL     1      -0.646  11.870  18.885  0.00  0.00    +0.000 NA
ATOM     11  C   UNL     1      -1.936  12.172  18.611  0.00  0.00    +0.000 A 
ATOM     12  C   UNL     1      -2.825  11.333  17.964  0.00  0.00    +0.000 A 
ATOM     13  C   UNL     1      -2.285  10.094  17.694  0.00  0.00    +0.000 A 
ATOM     14  N   UNL     1      -1.029   9.718  18.000  0.00  0.00    +0.000 NA
ATOM     15  H   UNL     1       1.702  10.939  18.360  0.00  0.00    +0.000 HD
BRANCH  12  16
ATOM     16  C   UNL     1      -4.225  11.719  17.582  0.00  0.00    +0.000 C 
ATOM     17  C   UNL     1      -5.386  10.832  17.968  0.00  0.00    +0.000 C 
ATOM     18  C   UNL     1      -5.192  12.141  18.667  0.00  0.00    +0.000 C 
ENDBRANCH  12  16
ENDBRANCH   7   8
BRANCH   4  19
ATOM     19  C   UNL     1       2.972   4.872  19.529  0.00  0.00    +0.000 C 
ATOM     20  C   UNL     1       1.864   3.804  19.302  0.00  0.00    +0.000 C 
ATOM     21  N   UNL     1       1.449   3.699  17.886  0.00  0.00    +0.000 NA
ATOM     22  C   UNL     1       2.653   3.377  17.100  0.00  0.00    +0.000 C 
ATOM     23  C   UNL     1       3.799   4.373  17.333  0.00  0.00    +0.000 C 
ATOM     24  O   UNL     1       4.118   4.550  18.720  0.00  0.00    +0.000 OA
ATOM     25  H   UNL     1       1.108   4.615  17.586  0.00  0.00    +0.000 HD
ENDBRANCH   4  19
TORSDOF 3
ENDMDL
MODEL 6
REMARK VINA RESULT:      -6.9      2.821      3.992
REMARK  Name = 
REMARK  3 active torsions:
REMARK  status: ('A' for Active; 'I' for Inactive)
REMARK    1  A    between atoms: C_4  and  C_5
REMARK    2  A    between atoms: C_13  and  N_14
REMARK    3  A    between atoms: C_18  and  C_19
REMARK                            x       y       z     vdW  Elec       q    Type
REMARK                         _______ _______ _______ _____ _____    ______ ____
ROOT
ATOM      1 CL   UNL     1       0.094   9.357  21.946  0.00  0.00    +0.000 Cl
ATOM      2  C   UNL     1       0.926   8.857  20.513  0.00  0.00    +0.000 A 
ATOM      3  C   UNL     1       1.641   7.651  20.542  0.00  0.00    +0.000 A 
ATOM      4  C   UNL     1       2.342   7.193  19.411  0.00  0.00    +0.000 A 
ATOM      5  C   UNL     1       2.279   7.972  18.250  0.00  0.00    +0.000 A 
ATOM      6  C   UNL     1       1.571   9.173  18.227  0.00  0.00    +0.000 A 
ATOM      7  C   UNL     1       0.888   9.646  19.354  0.00  0.00    +0.000 A 
ENDROOT
BRANCH   7   8
ATOM      8  N   UNL     1       0.110  10.817  19.264  0.00  0.00    +0.000 N 
ATOM      9  C   UNL     1       0.583  12.127  19.171  0.00  0.00    +0.000 A 
ATOM     10  N   UNL     1      -0.222  13.039  18.612  0.00  0.00    +0.000 NA
ATOM     11  C   UNL     1       0.252  14.304  18.527  0.00  0.00    +0.000 A 
ATOM     12  C   UNL     1       1.456  14.734  19.052  0.00  0.00    +0.000 A 
ATOM     13  C   UNL     1       2.190  13.708  19.609  0.00  0.00    +0.000 A 
ATOM     14  N   UNL     1       1.796  12.422  19.664  0.00  0.00    +0.000 NA
ATOM     15  H   UNL     1      -0.747  10.811  19.802  0.00  0.00    +0.000 HD
BRANCH  12  16
ATOM     16  C   UNL     1       1.923  16.161  19.034  0.00  0.00    +0.000 C 
ATOM     17  C   UNL     1       3.403  16.471  19.026  0.00  0.00    +0.000 C 
ATOM     18  C   UNL     1       2.594  16.698  17.788  0.00  0.00    +0.000 C 
ENDBRANCH  12  16
ENDBRANCH   7   8
BRANCH   4  19
ATOM     19  C   UNL     1       3.058   5.839  19.423  0.00  0.00    +0.000 C 
ATOM     20  C   UNL     1       2.593   4.825  20.508  0.00  0.00    +0.000 C 
ATOM     21  N   UNL     1       1.245   4.278  20.243  0.00  0.00    +0.000 NA
ATOM     22  C   UNL     1       1.285   3.640  18.916  0.00  0.00    +0.000 C 
ATOM     23  C   UNL     1       1.792   4.585  17.816  0.00  0.00    +0.000 C 
ATOM     24  O   UNL     1       3.050   5.196  18.135  0.00  0.00    +0.000 OA
ATOM     25  H   UNL     1       0.587   5.059  20.201  0.00  0.00    +0.000 HD
ENDBRANCH   4  19
TORSDOF 3
ENDMDL
MODEL 7
REMARK VINA RESULT:      -6.8      1.105      1.281
REMARK  Name = 
REMARK  3 active torsions:
REMARK  status: ('A' for Active; 'I' for Inactive)
REMARK    1  A    between atoms: C_4  and  C_5
REMARK    2  A    between atoms: C_13  and  N_14
REMARK    3  A    between atoms: C_18  and  C_19
REMARK                            x       y       z     vdW  Elec       q    Type
REMARK                         _______ _______ _______ _____ _____    ______ ____
ROOT
ATOM      1 CL   UNL     1       1.035   7.829  21.361  0.00  0.00    +0.000 Cl
ATOM      2  C   UNL     1       1.856   7.597  19.855  0.00  0.00    +0.000 A 
ATOM      3  C   UNL     1       2.371   6.327  19.563  0.00  0.00    +0.000 A 
ATOM      4  C   UNL     1       3.052   6.077  18.357  0.00  0.00    +0.000 A 
ATOM      5  C   UNL     1       3.175   7.136  17.450  0.00  0.00    +0.000 A 
ATOM      6  C   UNL     1       2.665   8.399  17.747  0.00  0.00    +0.000 A 
ATOM      7  C   UNL     1       2.004   8.662  18.952  0.00  0.00    +0.000 A 
ENDROOT
BRANCH   7   8
ATOM      8  N   UNL     1       1.424   9.926  19.176  0.00  0.00    +0.000 N 
ATOM      9  C   UNL     1       0.130  10.322  18.834  0.00  0.00    +0.000 A 
ATOM     10  N   UNL     1      -0.415  11.329  19.528  0.00  0.00    +0.000 NA
ATOM     11  C   UNL     1      -1.670  11.700  19.187  0.00  0.00    +0.000 A 
ATOM     12  C   UNL     1      -2.386  11.180  18.125  0.00  0.00    +0.000 A 
ATOM     13  C   UNL     1      -1.719  10.159  17.482  0.00  0.00    +0.000 A 
ATOM     14  N   UNL     1      -0.497   9.706  17.820  0.00  0.00    +0.000 NA
ATOM     15  H   UNL     1       2.050  10.714  19.076  0.00  0.00    +0.000 HD
BRANCH  12  16
ATOM     16  C   UNL     1      -3.741  11.671  17.699  0.00  0.00    +0.000 C 
ATOM     17  C   UNL     1      -4.435  11.039  16.515  0.00  0.00    +0.000 C 
ATOM     18  C   UNL     1      -4.942  10.772  17.897  0.00  0.00    +0.000 C 
ENDBRANCH  12  16
ENDBRANCH   7   8
BRANCH   4  19
ATOM     19  C   UNL     1       3.547   4.670  18.008  0.00  0.00    +0.000 C 
ATOM     20  C   UNL     1       4.185   3.858  19.173  0.00  0.00    +0.000 C 
ATOM     21  N   UNL     1       3.193   3.422  20.180  0.00  0.00    +0.000 NA
ATOM     22  C   UNL     1       2.180   2.617  19.476  0.00  0.00    +0.000 C 
ATOM     23  C   UNL     1       1.558   3.355  18.281  0.00  0.00    +0.000 C 
ATOM     24  O   UNL     1       2.537   3.870  17.367  0.00  0.00    +0.000 OA
ATOM     25  H   UNL     1       2.734   4.255  20.555  0.00  0.00    +0.000 HD
ENDBRANCH   4  19
TORSDOF 3
ENDMDL
MODEL 8
REMARK VINA RESULT:      -6.8      2.314      3.046
REMARK  Name = 
REMARK  3 active torsions:
REMARK  status: ('A' for Active; 'I' for Inactive)
REMARK    1  A    between atoms: C_4  and  C_5
REMARK    2  A    between atoms: C_13  and  N_14
REMARK    3  A    between atoms: C_18  and  C_19
REMARK                            x       y       z     vdW  Elec       q    Type
REMARK                         _______ _______ _______ _____ _____    ______ ____
ROOT
ATOM      1 CL   UNL     1       2.839   8.625  17.947  0.00  0.00    +0.000 Cl
ATOM      2  C   UNL     1       2.330   7.281  18.911  0.00  0.00    +0.000 A 
ATOM      3  C   UNL     1       2.394   5.996  18.353  0.00  0.00    +0.000 A 
ATOM      4  C   UNL     1       1.991   4.864  19.086  0.00  0.00    +0.000 A 
ATOM      5  C   UNL     1       1.547   5.064  20.398  0.00  0.00    +0.000 A 
ATOM      6  C   UNL     1       1.481   6.344  20.947  0.00  0.00    +0.000 A 
ATOM      7  C   UNL     1       1.861   7.478  20.219  0.00  0.00    +0.000 A 
ENDROOT
BRANCH   7   8
ATOM      8  N   UNL     1       1.865   8.743  20.838  0.00  0.00    +0.000 N 
ATOM      9  C   UNL     1       0.857   9.707  20.773  0.00  0.00    +0.000 A 
ATOM     10  N   UNL     1       0.784  10.597  21.770  0.00  0.00    +0.000 NA
ATOM     11  C   UNL     1      -0.199  11.523  21.694  0.00  0.00    +0.000 A 
ATOM     12  C   UNL     1      -1.066  11.669  20.628  0.00  0.00    +0.000 A 
ATOM     13  C   UNL     1      -0.889  10.702  19.661  0.00  0.00    +0.000 A 
ATOM     14  N   UNL     1       0.031   9.720  19.716  0.00  0.00    +0.000 NA
ATOM     15  H   UNL     1       2.764   9.205  20.876  0.00  0.00    +0.000 HD
BRANCH  12  16
ATOM     16  C   UNL     1      -2.090  12.763  20.514  0.00  0.00    +0.000 C 
ATOM     17  C   UNL     1      -3.418  12.489  19.848  0.00  0.00    +0.000 C 
ATOM     18  C   UNL     1      -3.359  12.667  21.332  0.00  0.00    +0.000 C 
ENDBRANCH  12  16
ENDBRANCH   7   8
BRANCH   4  19
ATOM     19  C   UNL     1       2.133   3.456  18.500  0.00  0.00    +0.000 C 
ATOM     20  C   UNL     1       3.422   3.183  17.672  0.00  0.00    +0.000 C 
ATOM     21  N   UNL     1       4.640   3.120  18.508  0.00  0.00    +0.000 NA
ATOM     22  C   UNL     1       4.430   2.061  19.509  0.00  0.00    +0.000 C 
ATOM     23  C   UNL     1       3.138   2.255  20.318  0.00  0.00    +0.000 C 
ATOM     24  O   UNL     1       1.977   2.425  19.492  0.00  0.00    +0.000 OA
ATOM     25  H   UNL     1       4.733   4.011  19.001  0.00  0.00    +0.000 HD
ENDBRANCH   4  19
TORSDOF 3
ENDMDL
MODEL 9
REMARK VINA RESULT:      -6.6      5.849      9.056
REMARK  Name = 
REMARK  3 active torsions:
REMARK  status: ('A' for Active; 'I' for Inactive)
REMARK    1  A    between atoms: C_4  and  C_5
REMARK    2  A    between atoms: C_13  and  N_14
REMARK    3  A    between atoms: C_18  and  C_19
REMARK                            x       y       z     vdW  Elec       q    Type
REMARK                         _______ _______ _______ _____ _____    ______ ____
ROOT
ATOM      1 CL   UNL     1       7.413   5.742  19.434  0.00  0.00    +0.000 Cl
ATOM      2  C   UNL     1       5.820   5.433  18.832  0.00  0.00    +0.000 A 
ATOM      3  C   UNL     1       4.758   5.388  19.746  0.00  0.00    +0.000 A 
ATOM      4  C   UNL     1       3.441   5.137  19.319  0.00  0.00    +0.000 A 
ATOM      5  C   UNL     1       3.226   4.959  17.947  0.00  0.00    +0.000 A 
ATOM      6  C   UNL     1       4.287   5.001  17.042  0.00  0.00    +0.000 A 
ATOM      7  C   UNL     1       5.603   5.230  17.461  0.00  0.00    +0.000 A 
ENDROOT
BRANCH   7   8
ATOM      8  N   UNL     1       6.633   5.354  16.508  0.00  0.00    +0.000 N 
ATOM      9  C   UNL     1       6.640   4.828  15.215  0.00  0.00    +0.000 A 
ATOM     10  N   UNL     1       7.420   5.427  14.305  0.00  0.00    +0.000 NA
ATOM     11  C   UNL     1       7.414   4.907  13.057  0.00  0.00    +0.000 A 
ATOM     12  C   UNL     1       6.739   3.761  12.681  0.00  0.00    +0.000 A 
ATOM     13  C   UNL     1       5.980   3.231  13.702  0.00  0.00    +0.000 A 
ATOM     14  N   UNL     1       5.898   3.743  14.945  0.00  0.00    +0.000 NA
ATOM     15  H   UNL     1       7.573   5.335  16.879  0.00  0.00    +0.000 HD
BRANCH  12  16
ATOM     16  C   UNL     1       6.820   3.142  11.314  0.00  0.00    +0.000 C 
ATOM     17  C   UNL     1       7.656   1.902  11.095  0.00  0.00    +0.000 C 
ATOM     18  C   UNL     1       6.163   1.800  11.076  0.00  0.00    +0.000 C 
ENDBRANCH  12  16
ENDBRANCH   7   8
BRANCH   4  19
ATOM     19  C   UNL     1       2.273   5.163  20.309  0.00  0.00    +0.000 C 
ATOM     20  C   UNL     1       0.920   4.593  19.792  0.00  0.00    +0.000 C 
ATOM     21  N   UNL     1       0.942   3.124  19.625  0.00  0.00    +0.000 NA
ATOM     22  C   UNL     1       1.287   2.540  20.932  0.00  0.00    +0.000 C 
ATOM     23  C   UNL     1       2.590   3.111  21.514  0.00  0.00    +0.000 C 
ATOM     24  O   UNL     1       2.600   4.545  21.568  0.00  0.00    +0.000 OA
ATOM     25  H   UNL     1       1.686   2.890  18.965  0.00  0.00    +0.000 HD
ENDBRANCH   4  19
TORSDOF 3
ENDMDL
