MODEL 1
REMARK VINA RESULT:      -6.0      0.000      0.000
REMARK  Name = 
REMARK  7 active torsions:
REMARK  status: ('A' for Active; 'I' for Inactive)
REMARK    1  A    between atoms: C_1  and  N_2
REMARK    2  A    between atoms: N_2  and  C_3
REMARK    3  A    between atoms: N_2  and  C_4
REMARK    4  A    between atoms: C_4  and  C_5
REMARK    5  A    between atoms: C_5  and  N_6
REMARK    6  A    between atoms: N_15  and  C_16
REMARK    7  A    between atoms: N_15  and  C_17
REMARK                            x       y       z     vdW  Elec       q    Type
REMARK                         _______ _______ _______ _____ _____    ______ ____
ROOT
ATOM      1  N   UNL     1       4.322   4.762  17.040  0.00  0.00    +0.000 NA
ATOM      2  C   UNL     1       5.673   5.040  17.591  0.00  0.00    +0.000 C 
ATOM      3  C   UNL     1       5.756   4.962  19.126  0.00  0.00    +0.000 C 
ATOM      4  O   UNL     1       4.806   5.834  19.744  0.00  0.00    +0.000 OA
ATOM      5  C   UNL     1       3.468   5.526  19.318  0.00  0.00    +0.000 C 
ATOM      6  C   UNL     1       2.534   6.661  19.752  0.00  0.00    +0.000 C 
ATOM      7  N   UNL     1       2.506   7.614  18.651  0.00  0.00    +0.000 N 
ATOM      8  C   UNL     1       1.920   8.844  18.521  0.00  0.00    +0.000 C 
ATOM      9  O   UNL     1       2.107   9.473  17.472  0.00  0.00    +0.000 OA
ATOM     10  N   UNL     1       1.113   9.381  19.508  0.00  0.00    +0.000 N 
ATOM     11  C   UNL     1       0.765   8.884  20.832  0.00  0.00    +0.000 C 
ATOM     12  C   UNL     1       0.541  10.700  19.247  0.00  0.00    +0.000 C 
ATOM     13  C   UNL     1       3.293   7.080  17.530  0.00  0.00    +0.000 C 
ATOM     14  C   UNL     1       3.321   5.558  17.787  0.00  0.00    +0.000 C 
ENDROOT
BRANCH   1  15
ATOM     15  C   UNL     1       4.050   3.301  17.089  0.00  0.00    +0.000 C 
BRANCH  15  16
ATOM     16  C   UNL     1       2.547   2.912  17.153  0.00  0.00    +0.000 C 
BRANCH  16  18
ATOM     17  C   UNL     1       3.300   1.948  19.221  0.00  0.00    +0.000 C 
ATOM     18  N   UNL     1       2.155   2.076  18.310  0.00  0.00    +0.000 NA
ATOM     19  C   UNL     1       1.015   2.630  19.039  0.00  0.00    +0.000 C 
ENDBRANCH  16  18
ENDBRANCH  15  16
ENDBRANCH   1  15
TORSDOF 3
ENDMDL
MODEL 2
REMARK VINA RESULT:      -5.9      1.951      3.655
REMARK  Name = 
REMARK  7 active torsions:
REMARK  status: ('A' for Active; 'I' for Inactive)
REMARK    1  A    between atoms: C_1  and  N_2
REMARK    2  A    between atoms: N_2  and  C_3
REMARK    3  A    between atoms: N_2  and  C_4
REMARK    4  A    between atoms: C_4  and  C_5
REMARK    5  A    between atoms: C_5  and  N_6
REMARK    6  A    between atoms: N_15  and  C_16
REMARK    7  A    between atoms: N_15  and  C_17
REMARK                            x       y       z     vdW  Elec       q    Type
REMARK                         _______ _______ _______ _____ _____    ______ ____
ROOT
ATOM      1  N   UNL     1       3.752   4.384  19.680  0.00  0.00    +0.000 NA
ATOM      2  C   UNL     1       2.659   3.545  19.125  0.00  0.00    +0.000 C 
ATOM      3  C   UNL     1       2.200   3.960  17.715  0.00  0.00    +0.000 C 
ATOM      4  O   UNL     1       1.806   5.334  17.678  0.00  0.00    +0.000 OA
ATOM      5  C   UNL     1       2.878   6.191  18.108  0.00  0.00    +0.000 C 
ATOM      6  C   UNL     1       2.323   7.600  18.347  0.00  0.00    +0.000 C 
ATOM      7  N   UNL     1       1.921   7.651  19.746  0.00  0.00    +0.000 N 
ATOM      8  C   UNL     1       1.286   8.615  20.480  0.00  0.00    +0.000 C 
ATOM      9  O   UNL     1       1.015   8.367  21.662  0.00  0.00    +0.000 OA
ATOM     10  N   UNL     1       0.970   9.853  19.950  0.00  0.00    +0.000 N 
ATOM     11  C   UNL     1       1.134  10.385  18.604  0.00  0.00    +0.000 C 
ATOM     12  C   UNL     1       0.298  10.799  20.837  0.00  0.00    +0.000 C 
ATOM     13  C   UNL     1       2.288   6.386  20.400  0.00  0.00    +0.000 C 
ATOM     14  C   UNL     1       3.405   5.812  19.502  0.00  0.00    +0.000 C 
ENDROOT
BRANCH   1  15
ATOM     15  C   UNL     1       5.041   4.019  19.034  0.00  0.00    +0.000 C 
BRANCH  15  16
ATOM     16  C   UNL     1       6.141   5.115  19.093  0.00  0.00    +0.000 C 
BRANCH  16  18
ATOM     17  C   UNL     1       7.516   6.751  17.995  0.00  0.00    +0.000 C 
ATOM     18  N   UNL     1       6.616   5.611  17.781  0.00  0.00    +0.000 NA
ATOM     19  C   UNL     1       7.313   4.580  17.013  0.00  0.00    +0.000 C 
ENDBRANCH  16  18
ENDBRANCH  15  16
ENDBRANCH   1  15
TORSDOF 3
ENDMDL
MODEL 3
REMARK VINA RESULT:      -5.8      3.329      5.148
REMARK  Name = 
REMARK  7 active torsions:
REMARK  status: ('A' for Active; 'I' for Inactive)
REMARK    1  A    between atoms: C_1  and  N_2
REMARK    2  A    between atoms: N_2  and  C_3
REMARK    3  A    between atoms: N_2  and  C_4
REMARK    4  A    between atoms: C_4  and  C_5
REMARK    5  A    between atoms: C_5  and  N_6
REMARK    6  A    between atoms: N_15  and  C_16
REMARK    7  A    between atoms: N_15  and  C_17
REMARK                            x       y       z     vdW  Elec       q    Type
REMARK                         _______ _______ _______ _____ _____    ______ ____
ROOT
ATOM      1  N   UNL     1       5.436   5.737  15.876  0.00  0.00    +0.000 NA
ATOM      2  C   UNL     1       6.060   6.893  16.571  0.00  0.00    +0.000 C 
ATOM      3  C   UNL     1       7.064   6.500  17.670  0.00  0.00    +0.000 C 
ATOM      4  O   UNL     1       6.465   5.633  18.637  0.00  0.00    +0.000 OA
ATOM      5  C   UNL     1       5.943   4.447  18.016  0.00  0.00    +0.000 C 
ATOM      6  C   UNL     1       5.053   3.709  19.022  0.00  0.00    +0.000 C 
ATOM      7  N   UNL     1       3.703   4.223  18.831  0.00  0.00    +0.000 N 
ATOM      8  C   UNL     1       2.535   3.996  19.505  0.00  0.00    +0.000 C 
ATOM      9  O   UNL     1       1.526   4.621  19.154  0.00  0.00    +0.000 OA
ATOM     10  N   UNL     1       2.448   3.077  20.537  0.00  0.00    +0.000 N 
ATOM     11  C   UNL     1       3.469   2.252  21.167  0.00  0.00    +0.000 C 
ATOM     12  C   UNL     1       1.143   2.921  21.173  0.00  0.00    +0.000 C 
ATOM     13  C   UNL     1       3.701   5.162  17.700  0.00  0.00    +0.000 C 
ATOM     14  C   UNL     1       4.951   4.769  16.885  0.00  0.00    +0.000 C 
ENDROOT
BRANCH   1  15
ATOM     15  C   UNL     1       6.410   5.139  14.924  0.00  0.00    +0.000 C 
BRANCH  15  16
ATOM     16  C   UNL     1       5.965   3.796  14.282  0.00  0.00    +0.000 C 
BRANCH  16  18
ATOM     17  C   UNL     1       5.322   3.326  12.016  0.00  0.00    +0.000 C 
ATOM     18  N   UNL     1       6.465   3.551  12.911  0.00  0.00    +0.000 NA
ATOM     19  C   UNL     1       7.269   4.662  12.401  0.00  0.00    +0.000 C 
ENDBRANCH  16  18
ENDBRANCH  15  16
ENDBRANCH   1  15
TORSDOF 3
ENDMDL
MODEL 4
REMARK VINA RESULT:      -5.7      3.016      4.266
REMARK  Name = 
REMARK  7 active torsions:
REMARK  status: ('A' for Active; 'I' for Inactive)
REMARK    1  A    between atoms: C_1  and  N_2
REMARK    2  A    between atoms: N_2  and  C_3
REMARK    3  A    between atoms: N_2  and  C_4
REMARK    4  A    between atoms: C_4  and  C_5
REMARK    5  A    between atoms: C_5  and  N_6
REMARK    6  A    between atoms: N_15  and  C_16
REMARK    7  A    between atoms: N_15  and  C_17
REMARK                            x       y       z     vdW  Elec       q    Type
REMARK                         _______ _______ _______ _____ _____    ______ ____
ROOT
ATOM      1  N   UNL     1       5.771   5.063  15.650  0.00  0.00    +0.000 NA
ATOM      2  C   UNL     1       7.082   5.421  16.249  0.00  0.00    +0.000 C 
ATOM      3  C   UNL     1       7.488   4.542  17.446  0.00  0.00    +0.000 C 
ATOM      4  O   UNL     1       6.485   4.553  18.465  0.00  0.00    +0.000 OA
ATOM      5  C   UNL     1       5.219   4.107  17.949  0.00  0.00    +0.000 C 
ATOM      6  C   UNL     1       4.124   4.426  18.973  0.00  0.00    +0.000 C 
ATOM      7  N   UNL     1       3.624   5.753  18.641  0.00  0.00    +0.000 N 
ATOM      8  C   UNL     1       2.719   6.571  19.261  0.00  0.00    +0.000 C 
ATOM      9  O   UNL     1       2.518   7.692  18.779  0.00  0.00    +0.000 OA
ATOM     10  N   UNL     1       2.013   6.169  20.381  0.00  0.00    +0.000 N 
ATOM     11  C   UNL     1       2.083   4.943  21.164  0.00  0.00    +0.000 C 
ATOM     12  C   UNL     1       1.072   7.132  20.947  0.00  0.00    +0.000 C 
ATOM     13  C   UNL     1       4.283   6.223  17.413  0.00  0.00    +0.000 C 
ATOM     14  C   UNL     1       4.766   4.927  16.728  0.00  0.00    +0.000 C 
ENDROOT
BRANCH   1  15
ATOM     15  C   UNL     1       5.912   3.826  14.835  0.00  0.00    +0.000 C 
BRANCH  15  16
ATOM     16  C   UNL     1       6.374   4.052  13.369  0.00  0.00    +0.000 C 
BRANCH  16  18
ATOM     17  C   UNL     1       4.745   3.336  11.755  0.00  0.00    +0.000 C 
ATOM     18  N   UNL     1       6.008   2.981  12.415  0.00  0.00    +0.000 NA
ATOM     19  C   UNL     1       7.039   2.758  11.401  0.00  0.00    +0.000 C 
ENDBRANCH  16  18
ENDBRANCH  15  16
ENDBRANCH   1  15
TORSDOF 3
ENDMDL
MODEL 5
REMARK VINA RESULT:      -5.6      3.577      5.273
REMARK  Name = 
REMARK  7 active torsions:
REMARK  status: ('A' for Active; 'I' for Inactive)
REMARK    1  A    between atoms: C_1  and  N_2
REMARK    2  A    between atoms: N_2  and  C_3
REMARK    3  A    between atoms: N_2  and  C_4
REMARK    4  A    between atoms: C_4  and  C_5
REMARK    5  A    between atoms: C_5  and  N_6
REMARK    6  A    between atoms: N_15  and  C_16
REMARK    7  A    between atoms: N_15  and  C_17
REMARK                            x       y       z     vdW  Elec       q    Type
REMARK                         _______ _______ _______ _____ _____    ______ ____
ROOT
ATOM      1  N   UNL     1       5.355   4.766  15.314  0.00  0.00    +0.000 NA
ATOM      2  C   UNL     1       5.700   6.166  15.671  0.00  0.00    +0.000 C 
ATOM      3  C   UNL     1       6.598   6.297  16.914  0.00  0.00    +0.000 C 
ATOM      4  O   UNL     1       6.016   5.651  18.049  0.00  0.00    +0.000 OA
ATOM      5  C   UNL     1       5.766   4.261  17.780  0.00  0.00    +0.000 C 
ATOM      6  C   UNL     1       4.873   3.692  18.889  0.00  0.00    +0.000 C 
ATOM      7  N   UNL     1       3.498   3.873  18.442  0.00  0.00    +0.000 N 
ATOM      8  C   UNL     1       2.299   3.638  19.057  0.00  0.00    +0.000 C 
ATOM      9  O   UNL     1       1.262   3.939  18.452  0.00  0.00    +0.000 OA
ATOM     10  N   UNL     1       2.217   3.055  20.309  0.00  0.00    +0.000 N 
ATOM     11  C   UNL     1       3.259   2.648  21.242  0.00  0.00    +0.000 C 
ATOM     12  C   UNL     1       0.878   2.851  20.856  0.00  0.00    +0.000 C 
ATOM     13  C   UNL     1       3.502   4.430  17.081  0.00  0.00    +0.000 C 
ATOM     14  C   UNL     1       4.894   4.056  16.529  0.00  0.00    +0.000 C 
ENDROOT
BRANCH   1  15
ATOM     15  C   UNL     1       6.526   4.109  14.673  0.00  0.00    +0.000 C 
BRANCH  15  16
ATOM     16  C   UNL     1       6.522   4.127  13.119  0.00  0.00    +0.000 C 
BRANCH  16  18
ATOM     17  C   UNL     1       4.643   3.450  11.784  0.00  0.00    +0.000 C 
ATOM     18  N   UNL     1       5.851   2.977  12.472  0.00  0.00    +0.000 NA
ATOM     19  C   UNL     1       6.718   2.290  11.514  0.00  0.00    +0.000 C 
ENDBRANCH  16  18
ENDBRANCH  15  16
ENDBRANCH   1  15
TORSDOF 3
ENDMDL
MODEL 6
REMARK VINA RESULT:      -5.3      1.844      3.013
REMARK  Name = 
REMARK  7 active torsions:
REMARK  status: ('A' for Active; 'I' for Inactive)
REMARK    1  A    between atoms: C_1  and  N_2
REMARK    2  A    between atoms: N_2  and  C_3
REMARK    3  A    between atoms: N_2  and  C_4
REMARK    4  A    between atoms: C_4  and  C_5
REMARK    5  A    between atoms: C_5  and  N_6
REMARK    6  A    between atoms: N_15  and  C_16
REMARK    7  A    between atoms: N_15  and  C_17
REMARK                            x       y       z     vdW  Elec       q    Type
REMARK                         _______ _______ _______ _____ _____    ______ ____
ROOT
ATOM      1  N   UNL     1       4.853   5.502  16.716  0.00  0.00    +0.000 NA
ATOM      2  C   UNL     1       6.117   5.736  17.461  0.00  0.00    +0.000 C 
ATOM      3  C   UNL     1       6.092   5.239  18.918  0.00  0.00    +0.000 C 
ATOM      4  O   UNL     1       5.002   5.812  19.645  0.00  0.00    +0.000 OA
ATOM      5  C   UNL     1       3.746   5.515  19.013  0.00  0.00    +0.000 C 
ATOM      6  C   UNL     1       2.655   6.392  19.638  0.00  0.00    +0.000 C 
ATOM      7  N   UNL     1       2.599   7.610  18.840  0.00  0.00    +0.000 N 
ATOM      8  C   UNL     1       1.885   8.768  18.987  0.00  0.00    +0.000 C 
ATOM      9  O   UNL     1       2.076   9.679  18.172  0.00  0.00    +0.000 OA
ATOM     10  N   UNL     1       0.948   8.930  19.991  0.00  0.00    +0.000 N 
ATOM     11  C   UNL     1       0.562   8.052  21.087  0.00  0.00    +0.000 C 
ATOM     12  C   UNL     1       0.247  10.211  20.039  0.00  0.00    +0.000 C 
ATOM     13  C   UNL     1       3.526   7.485  17.705  0.00  0.00    +0.000 C 
ATOM     14  C   UNL     1       3.713   5.961  17.541  0.00  0.00    +0.000 C 
ENDROOT
BRANCH   1  15
ATOM     15  C   UNL     1       4.751   4.066  16.340  0.00  0.00    +0.000 C 
BRANCH  15  16
ATOM     16  C   UNL     1       5.847   3.562  15.362  0.00  0.00    +0.000 C 
BRANCH  16  18
ATOM     17  C   UNL     1       7.319   4.972  14.090  0.00  0.00    +0.000 C 
ATOM     18  N   UNL     1       5.992   4.342  14.112  0.00  0.00    +0.000 NA
ATOM     19  C   UNL     1       5.827   3.518  12.916  0.00  0.00    +0.000 C 
ENDBRANCH  16  18
ENDBRANCH  15  16
ENDBRANCH   1  15
TORSDOF 3
ENDMDL
MODEL 7
REMARK VINA RESULT:      -5.3      2.284      5.836
REMARK  Name = 
REMARK  7 active torsions:
REMARK  status: ('A' for Active; 'I' for Inactive)
REMARK    1  A    between atoms: C_1  and  N_2
REMARK    2  A    between atoms: N_2  and  C_3
REMARK    3  A    between atoms: N_2  and  C_4
REMARK    4  A    between atoms: C_4  and  C_5
REMARK    5  A    between atoms: C_5  and  N_6
REMARK    6  A    between atoms: N_15  and  C_16
REMARK    7  A    between atoms: N_15  and  C_17
REMARK                            x       y       z     vdW  Elec       q    Type
REMARK                         _______ _______ _______ _____ _____    ______ ____
ROOT
ATOM      1  N   UNL     1       1.545   5.178  19.643  0.00  0.00    +0.000 NA
ATOM      2  C   UNL     1       1.282   3.763  20.008  0.00  0.00    +0.000 C 
ATOM      3  C   UNL     1       2.392   3.114  20.855  0.00  0.00    +0.000 C 
ATOM      4  O   UNL     1       3.663   3.206  20.208  0.00  0.00    +0.000 OA
ATOM      5  C   UNL     1       4.005   4.575  19.933  0.00  0.00    +0.000 C 
ATOM      6  C   UNL     1       5.204   4.606  18.979  0.00  0.00    +0.000 C 
ATOM      7  N   UNL     1       4.655   4.629  17.629  0.00  0.00    +0.000 N 
ATOM      8  C   UNL     1       5.250   4.569  16.399  0.00  0.00    +0.000 C 
ATOM      9  O   UNL     1       4.523   4.553  15.398  0.00  0.00    +0.000 OA
ATOM     10  N   UNL     1       6.625   4.557  16.248  0.00  0.00    +0.000 N 
ATOM     11  C   UNL     1       7.693   4.528  17.237  0.00  0.00    +0.000 C 
ATOM     12  C   UNL     1       7.139   4.498  14.881  0.00  0.00    +0.000 C 
ATOM     13  C   UNL     1       3.189   4.711  17.707  0.00  0.00    +0.000 C 
ATOM     14  C   UNL     1       2.921   5.294  19.111  0.00  0.00    +0.000 C 
ENDROOT
BRANCH   1  15
ATOM     15  C   UNL     1       1.307   6.053  20.822  0.00  0.00    +0.000 C 
BRANCH  15  16
ATOM     16  C   UNL     1       1.750   7.532  20.646  0.00  0.00    +0.000 C 
BRANCH  16  18
ATOM     17  C   UNL     1       1.132   9.142  22.319  0.00  0.00    +0.000 C 
ATOM     18  N   UNL     1       0.744   8.547  21.033  0.00  0.00    +0.000 NA
ATOM     19  C   UNL     1       0.602   9.604  20.033  0.00  0.00    +0.000 C 
ENDBRANCH  16  18
ENDBRANCH  15  16
ENDBRANCH   1  15
TORSDOF 3
ENDMDL
MODEL 8
REMARK VINA RESULT:      -5.2      3.258      6.102
REMARK  Name = 
REMARK  7 active torsions:
REMARK  status: ('A' for Active; 'I' for Inactive)
REMARK    1  A    between atoms: C_1  and  N_2
REMARK    2  A    between atoms: N_2  and  C_3
REMARK    3  A    between atoms: N_2  and  C_4
REMARK    4  A    between atoms: C_4  and  C_5
REMARK    5  A    between atoms: C_5  and  N_6
REMARK    6  A    between atoms: N_15  and  C_16
REMARK    7  A    between atoms: N_15  and  C_17
REMARK                            x       y       z     vdW  Elec       q    Type
REMARK                         _______ _______ _______ _____ _____    ______ ____
ROOT
ATOM      1  N   UNL     1       7.064   5.899  17.582  0.00  0.00    +0.000 NA
ATOM      2  C   UNL     1       6.976   5.226  16.261  0.00  0.00    +0.000 C 
ATOM      3  C   UNL     1       5.693   5.550  15.473  0.00  0.00    +0.000 C 
ATOM      4  O   UNL     1       4.522   5.248  16.236  0.00  0.00    +0.000 OA
ATOM      5  C   UNL     1       4.517   5.967  17.481  0.00  0.00    +0.000 C 
ATOM      6  C   UNL     1       3.424   5.387  18.386  0.00  0.00    +0.000 C 
ATOM      7  N   UNL     1       4.054   4.332  19.168  0.00  0.00    +0.000 N 
ATOM      8  C   UNL     1       3.546   3.426  20.059  0.00  0.00    +0.000 C 
ATOM      9  O   UNL     1       4.317   2.591  20.547  0.00  0.00    +0.000 OA
ATOM     10  N   UNL     1       2.217   3.440  20.443  0.00  0.00    +0.000 N 
ATOM     11  C   UNL     1       1.105   4.271  20.002  0.00  0.00    +0.000 C 
ATOM     12  C   UNL     1       1.798   2.424  21.405  0.00  0.00    +0.000 C 
ATOM     13  C   UNL     1       5.493   4.300  18.864  0.00  0.00    +0.000 C 
ATOM     14  C   UNL     1       5.789   5.709  18.309  0.00  0.00    +0.000 C 
ENDROOT
BRANCH   1  15
ATOM     15  C   UNL     1       7.413   7.332  17.393  0.00  0.00    +0.000 C 
BRANCH  15  16
ATOM     16  C   UNL     1       8.290   7.951  18.515  0.00  0.00    +0.000 C 
BRANCH  16  18
ATOM     17  C   UNL     1       7.710  10.110  17.635  0.00  0.00    +0.000 C 
ATOM     18  N   UNL     1       8.784   9.322  18.253  0.00  0.00    +0.000 NA
ATOM     19  C   UNL     1       9.240   9.994  19.469  0.00  0.00    +0.000 C 
ENDBRANCH  16  18
ENDBRANCH  15  16
ENDBRANCH   1  15
TORSDOF 3
ENDMDL
MODEL 9
REMARK VINA RESULT:      -5.1      2.832      7.248
REMARK  Name = 
REMARK  7 active torsions:
REMARK  status: ('A' for Active; 'I' for Inactive)
REMARK    1  A    between atoms: C_1  and  N_2
REMARK    2  A    between atoms: N_2  and  C_3
REMARK    3  A    between atoms: N_2  and  C_4
REMARK    4  A    between atoms: C_4  and  C_5
REMARK    5  A    between atoms: C_5  and  N_6
REMARK    6  A    between atoms: N_15  and  C_16
REMARK    7  A    between atoms: N_15  and  C_17
REMARK                            x       y       z     vdW  Elec       q    Type
REMARK                         _______ _______ _______ _____ _____    ______ ____
ROOT
ATOM      1  N   UNL     1      -0.604  11.191  19.178  0.00  0.00    +0.000 NA
ATOM      2  C   UNL     1       0.323  12.245  19.664  0.00  0.00    +0.000 C 
ATOM      3  C   UNL     1       1.500  12.536  18.716  0.00  0.00    +0.000 C 
ATOM      4  O   UNL     1       2.244  11.349  18.428  0.00  0.00    +0.000 OA
ATOM      5  C   UNL     1       1.400  10.337  17.853  0.00  0.00    +0.000 C 
ATOM      6  C   UNL     1       2.155   9.003  17.850  0.00  0.00    +0.000 C 
ATOM      7  N   UNL     1       1.831   8.345  19.109  0.00  0.00    +0.000 N 
ATOM      8  C   UNL     1       2.286   7.187  19.680  0.00  0.00    +0.000 C 
ATOM      9  O   UNL     1       1.871   6.889  20.806  0.00  0.00    +0.000 OA
ATOM     10  N   UNL     1       3.162   6.341  19.025  0.00  0.00    +0.000 N 
ATOM     11  C   UNL     1       3.827   6.468  17.735  0.00  0.00    +0.000 C 
ATOM     12  C   UNL     1       3.568   5.132  19.737  0.00  0.00    +0.000 C 
ATOM     13  C   UNL     1       0.845   9.158  19.838  0.00  0.00    +0.000 C 
ATOM     14  C   UNL     1       0.185  10.017  18.739  0.00  0.00    +0.000 C 
ENDROOT
BRANCH   1  15
ATOM     15  C   UNL     1      -1.467  11.741  18.099  0.00  0.00    +0.000 C 
BRANCH  15  16
ATOM     16  C   UNL     1      -2.225  10.679  17.255  0.00  0.00    +0.000 C 
BRANCH  16  18
ATOM     17  C   UNL     1      -3.005  10.330  15.010  0.00  0.00    +0.000 C 
ATOM     18  N   UNL     1      -3.083  11.219  16.176  0.00  0.00    +0.000 NA
ATOM     19  C   UNL     1      -4.480  11.357  16.588  0.00  0.00    +0.000 C 
ENDBRANCH  16  18
ENDBRANCH  15  16
ENDBRANCH   1  15
TORSDOF 3
ENDMDL
