MODEL 1
REMARK VINA RESULT:      -7.0      0.000      0.000
REMARK  Name = 
REMARK  6 active torsions:
REMARK  status: ('A' for Active; 'I' for Inactive)
REMARK    1  A    between atoms: C_1  and  N_2
REMARK    2  A    between atoms: N_2  and  C_3
REMARK    3  A    between atoms: C_3  and  C_4
REMARK    4  A    between atoms: C_7  and  C_9
REMARK    5  A    between atoms: C_9  and  C_10
REMARK    6  A    between atoms: C_13  and  C_14
REMARK                            x       y       z     vdW  Elec       q    Type
REMARK                         _______ _______ _______ _____ _____    ______ ____
ROOT
ATOM      1  C   UNL     1       4.594   4.747  17.498  0.00  0.00    +0.000 A 
ATOM      2  C   UNL     1       5.769   4.737  18.227  0.00  0.00    +0.000 A 
ATOM      3  S   UNL     1       7.117   4.667  17.174  0.00  0.00    +0.000 S 
ATOM      4  C   UNL     1       6.054   4.653  15.811  0.00  0.00    +0.000 A 
ATOM      5  N   UNL     1       4.768   4.725  16.123  0.00  0.00    +0.000 NA
ENDROOT
BRANCH   4   6
ATOM      6  C   UNL     1       6.603   4.542  14.447  0.00  0.00    +0.000 A 
ATOM      7  N   UNL     1       6.040   3.644  13.610  0.00  0.00    +0.000 NA
ATOM      8  C   UNL     1       6.494   3.648  12.344  0.00  0.00    +0.000 A 
ATOM      9  C   UNL     1       7.484   4.493  11.896  0.00  0.00    +0.000 A 
ATOM     10  C   UNL     1       8.000   5.356  12.831  0.00  0.00    +0.000 A 
ATOM     11  N   UNL     1       7.577   5.411  14.107  0.00  0.00    +0.000 NA
ENDBRANCH   4   6
BRANCH   1  12
ATOM     12  C   UNL     1       3.206   4.709  18.045  0.00  0.00    +0.000 C 
BRANCH  12  15
ATOM     13  C   UNL     1       1.818   7.244  20.556  0.00  0.00    +0.000 C 
ATOM     14  N   UNL     1       2.098   5.961  19.922  0.00  0.00    +0.000 N 
ATOM     15  C   UNL     1       2.820   6.013  18.725  0.00  0.00    +0.000 C 
ATOM     16  O   UNL     1       3.192   7.085  18.237  0.00  0.00    +0.000 OA
BRANCH  14  17
ATOM     17  C   UNL     1       1.384   4.749  20.354  0.00  0.00    +0.000 C 
BRANCH  17  18
ATOM     18  C   UNL     1       2.080   3.942  21.406  0.00  0.00    +0.000 C 
ATOM     19  C   UNL     1       1.556   2.582  21.796  0.00  0.00    +0.000 C 
ATOM     20  C   UNL     1       2.852   2.693  21.049  0.00  0.00    +0.000 C 
ENDBRANCH  17  18
ENDBRANCH  14  17
ENDBRANCH  12  15
ENDBRANCH   1  12
TORSDOF 5
ENDMDL
MODEL 2
REMARK VINA RESULT:      -6.9      1.895      2.513
REMARK  Name = 
REMARK  6 active torsions:
REMARK  status: ('A' for Active; 'I' for Inactive)
REMARK    1  A    between atoms: C_1  and  N_2
REMARK    2  A    between atoms: N_2  and  C_3
REMARK    3  A    between atoms: C_3  and  C_4
REMARK    4  A    between atoms: C_7  and  C_9
REMARK    5  A    between atoms: C_9  and  C_10
REMARK    6  A    between atoms: C_13  and  C_14
REMARK                            x       y       z     vdW  Elec       q    Type
REMARK                         _______ _______ _______ _____ _____    ______ ____
ROOT
ATOM      1  C   UNL     1       5.176   5.254  17.948  0.00  0.00    +0.000 A 
ATOM      2  C   UNL     1       6.175   6.170  18.217  0.00  0.00    +0.000 A 
ATOM      3  S   UNL     1       7.194   6.351  16.853  0.00  0.00    +0.000 S 
ATOM      4  C   UNL     1       6.244   5.194  15.988  0.00  0.00    +0.000 A 
ATOM      5  N   UNL     1       5.210   4.723  16.669  0.00  0.00    +0.000 NA
ENDROOT
BRANCH   4   6
ATOM      6  C   UNL     1       6.629   4.796  14.621  0.00  0.00    +0.000 A 
ATOM      7  N   UNL     1       5.904   3.831  14.017  0.00  0.00    +0.000 NA
ATOM      8  C   UNL     1       6.215   3.573  12.734  0.00  0.00    +0.000 A 
ATOM      9  C   UNL     1       7.217   4.223  12.051  0.00  0.00    +0.000 A 
ATOM     10  C   UNL     1       7.904   5.176  12.763  0.00  0.00    +0.000 A 
ATOM     11  N   UNL     1       7.629   5.491  14.041  0.00  0.00    +0.000 NA
ENDBRANCH   4   6
BRANCH   1  12
ATOM     12  C   UNL     1       4.147   4.751  18.906  0.00  0.00    +0.000 C 
BRANCH  12  15
ATOM     13  C   UNL     1       3.506   0.977  18.928  0.00  0.00    +0.000 C 
ATOM     14  N   UNL     1       3.281   2.400  18.705  0.00  0.00    +0.000 N 
ATOM     15  C   UNL     1       4.284   3.259  19.166  0.00  0.00    +0.000 C 
ATOM     16  O   UNL     1       5.297   2.832  19.730  0.00  0.00    +0.000 OA
BRANCH  14  17
ATOM     17  C   UNL     1       1.948   2.888  18.321  0.00  0.00    +0.000 C 
BRANCH  17  18
ATOM     18  C   UNL     1       0.931   2.892  19.421  0.00  0.00    +0.000 C 
ATOM     19  C   UNL     1       1.367   2.826  20.864  0.00  0.00    +0.000 C 
ATOM     20  C   UNL     1       0.763   4.090  20.326  0.00  0.00    +0.000 C 
ENDBRANCH  17  18
ENDBRANCH  14  17
ENDBRANCH  12  15
ENDBRANCH   1  12
TORSDOF 5
ENDMDL
MODEL 3
REMARK VINA RESULT:      -6.8      2.733      7.233
REMARK  Name = 
REMARK  6 active torsions:
REMARK  status: ('A' for Active; 'I' for Inactive)
REMARK    1  A    between atoms: C_1  and  N_2
REMARK    2  A    between atoms: N_2  and  C_3
REMARK    3  A    between atoms: C_3  and  C_4
REMARK    4  A    between atoms: C_7  and  C_9
REMARK    5  A    between atoms: C_9  and  C_10
REMARK    6  A    between atoms: C_13  and  C_14
REMARK                            x       y       z     vdW  Elec       q    Type
REMARK                         _______ _______ _______ _____ _____    ______ ____
ROOT
ATOM      1  C   UNL     1       4.016   4.724  19.301  0.00  0.00    +0.000 A 
ATOM      2  C   UNL     1       3.115   3.987  20.046  0.00  0.00    +0.000 A 
ATOM      3  S   UNL     1       1.834   4.988  20.583  0.00  0.00    +0.000 S 
ATOM      4  C   UNL     1       2.559   6.343  19.792  0.00  0.00    +0.000 A 
ATOM      5  N   UNL     1       3.678   6.058  19.142  0.00  0.00    +0.000 NA
ENDROOT
BRANCH   4   6
ATOM      6  C   UNL     1       1.942   7.678  19.899  0.00  0.00    +0.000 A 
ATOM      7  N   UNL     1       1.900   8.445  18.789  0.00  0.00    +0.000 NA
ATOM      8  C   UNL     1       1.234   9.609  18.898  0.00  0.00    +0.000 A 
ATOM      9  C   UNL     1       0.631  10.031  20.061  0.00  0.00    +0.000 A 
ATOM     10  C   UNL     1       0.746   9.184  21.135  0.00  0.00    +0.000 A 
ATOM     11  N   UNL     1       1.385   8.001  21.084  0.00  0.00    +0.000 NA
ENDBRANCH   4   6
BRANCH   1  12
ATOM     12  C   UNL     1       5.311   4.240  18.736  0.00  0.00    +0.000 C 
BRANCH  12  15
ATOM     13  C   UNL     1       7.675   7.159  17.996  0.00  0.00    +0.000 C 
ATOM     14  N   UNL     1       6.649   6.145  17.787  0.00  0.00    +0.000 N 
ATOM     15  C   UNL     1       6.415   5.278  18.860  0.00  0.00    +0.000 C 
ATOM     16  O   UNL     1       7.045   5.370  19.919  0.00  0.00    +0.000 OA
BRANCH  14  17
ATOM     17  C   UNL     1       6.147   5.866  16.433  0.00  0.00    +0.000 C 
BRANCH  17  18
ATOM     18  C   UNL     1       6.897   4.809  15.682  0.00  0.00    +0.000 C 
ATOM     19  C   UNL     1       6.154   3.767  14.883  0.00  0.00    +0.000 C 
ATOM     20  C   UNL     1       6.958   4.816  14.172  0.00  0.00    +0.000 C 
ENDBRANCH  17  18
ENDBRANCH  14  17
ENDBRANCH  12  15
ENDBRANCH   1  12
TORSDOF 5
ENDMDL
MODEL 4
REMARK VINA RESULT:      -6.7      1.545      2.743
REMARK  Name = 
REMARK  6 active torsions:
REMARK  status: ('A' for Active; 'I' for Inactive)
REMARK    1  A    between atoms: C_1  and  N_2
REMARK    2  A    between atoms: N_2  and  C_3
REMARK    3  A    between atoms: C_3  and  C_4
REMARK    4  A    between atoms: C_7  and  C_9
REMARK    5  A    between atoms: C_9  and  C_10
REMARK    6  A    between atoms: C_13  and  C_14
REMARK                            x       y       z     vdW  Elec       q    Type
REMARK                         _______ _______ _______ _____ _____    ______ ____
ROOT
ATOM      1  C   UNL     1       4.738   3.681  17.575  0.00  0.00    +0.000 A 
ATOM      2  C   UNL     1       5.746   4.288  18.301  0.00  0.00    +0.000 A 
ATOM      3  S   UNL     1       6.970   4.859  17.249  0.00  0.00    +0.000 S 
ATOM      4  C   UNL     1       6.085   4.260  15.891  0.00  0.00    +0.000 A 
ATOM      5  N   UNL     1       4.929   3.693  16.202  0.00  0.00    +0.000 NA
ENDROOT
BRANCH   4   6
ATOM      6  C   UNL     1       6.644   4.384  14.532  0.00  0.00    +0.000 A 
ATOM      7  N   UNL     1       6.120   3.607  13.560  0.00  0.00    +0.000 NA
ATOM      8  C   UNL     1       6.580   3.825  12.315  0.00  0.00    +0.000 A 
ATOM      9  C   UNL     1       7.538   4.765  12.014  0.00  0.00    +0.000 A 
ATOM     10  C   UNL     1       8.017   5.491  13.077  0.00  0.00    +0.000 A 
ATOM     11  N   UNL     1       7.585   5.331  14.341  0.00  0.00    +0.000 NA
ENDBRANCH   4   6
BRANCH   1  12
ATOM     12  C   UNL     1       3.544   2.976  18.127  0.00  0.00    +0.000 C 
BRANCH  12  15
ATOM     13  C   UNL     1       1.987   4.983  20.991  0.00  0.00    +0.000 C 
ATOM     14  N   UNL     1       2.358   4.600  19.634  0.00  0.00    +0.000 N 
ATOM     15  C   UNL     1       3.175   3.471  19.516  0.00  0.00    +0.000 C 
ATOM     16  O   UNL     1       3.558   2.840  20.507  0.00  0.00    +0.000 OA
BRANCH  14  17
ATOM     17  C   UNL     1       2.150   5.536  18.518  0.00  0.00    +0.000 C 
BRANCH  17  18
ATOM     18  C   UNL     1       2.873   6.842  18.640  0.00  0.00    +0.000 C 
ATOM     19  C   UNL     1       3.686   7.375  17.486  0.00  0.00    +0.000 C 
ATOM     20  C   UNL     1       2.413   8.065  17.881  0.00  0.00    +0.000 C 
ENDBRANCH  17  18
ENDBRANCH  14  17
ENDBRANCH  12  15
ENDBRANCH   1  12
TORSDOF 5
ENDMDL
MODEL 5
REMARK VINA RESULT:      -6.7      1.988      3.091
REMARK  Name = 
REMARK  6 active torsions:
REMARK  status: ('A' for Active; 'I' for Inactive)
REMARK    1  A    between atoms: C_1  and  N_2
REMARK    2  A    between atoms: N_2  and  C_3
REMARK    3  A    between atoms: C_3  and  C_4
REMARK    4  A    between atoms: C_7  and  C_9
REMARK    5  A    between atoms: C_9  and  C_10
REMARK    6  A    between atoms: C_13  and  C_14
REMARK                            x       y       z     vdW  Elec       q    Type
REMARK                         _______ _______ _______ _____ _____    ______ ____
ROOT
ATOM      1  C   UNL     1       5.727   4.535  18.185  0.00  0.00    +0.000 A 
ATOM      2  C   UNL     1       6.438   5.696  18.420  0.00  0.00    +0.000 A 
ATOM      3  S   UNL     1       7.137   6.267  16.965  0.00  0.00    +0.000 S 
ATOM      4  C   UNL     1       6.450   4.930  16.110  0.00  0.00    +0.000 A 
ATOM      5  N   UNL     1       5.719   4.121  16.862  0.00  0.00    +0.000 NA
ENDROOT
BRANCH   4   6
ATOM      6  C   UNL     1       6.722   4.756  14.671  0.00  0.00    +0.000 A 
ATOM      7  N   UNL     1       7.742   5.457  14.131  0.00  0.00    +0.000 NA
ATOM      8  C   UNL     1       8.028   5.190  12.844  0.00  0.00    +0.000 A 
ATOM      9  C   UNL     1       7.333   4.275  12.087  0.00  0.00    +0.000 A 
ATOM     10  C   UNL     1       6.304   3.628  12.727  0.00  0.00    +0.000 A 
ATOM     11  N   UNL     1       5.981   3.839  14.016  0.00  0.00    +0.000 NA
ENDBRANCH   4   6
BRANCH   1  12
ATOM     12  C   UNL     1       5.052   3.681  19.207  0.00  0.00    +0.000 C 
BRANCH  12  15
ATOM     13  C   UNL     1       1.453   3.298  17.958  0.00  0.00    +0.000 C 
ATOM     14  N   UNL     1       2.646   3.920  18.521  0.00  0.00    +0.000 N 
ATOM     15  C   UNL     1       3.754   3.082  18.689  0.00  0.00    +0.000 C 
ATOM     16  O   UNL     1       3.717   1.887  18.379  0.00  0.00    +0.000 OA
BRANCH  14  17
ATOM     17  C   UNL     1       2.560   5.242  19.160  0.00  0.00    +0.000 C 
BRANCH  17  18
ATOM     18  C   UNL     1       2.264   6.380  18.231  0.00  0.00    +0.000 C 
ATOM     19  C   UNL     1       2.432   7.806  18.692  0.00  0.00    +0.000 C 
ATOM     20  C   UNL     1       3.372   7.240  17.669  0.00  0.00    +0.000 C 
ENDBRANCH  17  18
ENDBRANCH  14  17
ENDBRANCH  12  15
ENDBRANCH   1  12
TORSDOF 5
ENDMDL
MODEL 6
REMARK VINA RESULT:      -6.7      1.535      2.930
REMARK  Name = 
REMARK  6 active torsions:
REMARK  status: ('A' for Active; 'I' for Inactive)
REMARK    1  A    between atoms: C_1  and  N_2
REMARK    2  A    between atoms: N_2  and  C_3
REMARK    3  A    between atoms: C_3  and  C_4
REMARK    4  A    between atoms: C_7  and  C_9
REMARK    5  A    between atoms: C_9  and  C_10
REMARK    6  A    between atoms: C_13  and  C_14
REMARK                            x       y       z     vdW  Elec       q    Type
REMARK                         _______ _______ _______ _____ _____    ______ ____
ROOT
ATOM      1  C   UNL     1       4.638   3.720  17.490  0.00  0.00    +0.000 A 
ATOM      2  C   UNL     1       5.698   4.239  18.210  0.00  0.00    +0.000 A 
ATOM      3  S   UNL     1       6.917   4.799  17.147  0.00  0.00    +0.000 S 
ATOM      4  C   UNL     1       5.961   4.314  15.792  0.00  0.00    +0.000 A 
ATOM      5  N   UNL     1       4.787   3.790  16.114  0.00  0.00    +0.000 NA
ENDROOT
BRANCH   4   6
ATOM      6  C   UNL     1       6.484   4.476  14.423  0.00  0.00    +0.000 A 
ATOM      7  N   UNL     1       7.478   5.369  14.228  0.00  0.00    +0.000 NA
ATOM      8  C   UNL     1       8.003   5.410  12.990  0.00  0.00    +0.000 A 
ATOM      9  C   UNL     1       7.568   4.615  11.955  0.00  0.00    +0.000 A 
ATOM     10  C   UNL     1       6.541   3.753  12.255  0.00  0.00    +0.000 A 
ATOM     11  N   UNL     1       5.987   3.653  13.477  0.00  0.00    +0.000 NA
ENDBRANCH   4   6
BRANCH   1  12
ATOM     12  C   UNL     1       3.426   3.050  18.046  0.00  0.00    +0.000 C 
BRANCH  12  15
ATOM     13  C   UNL     1       1.976   5.029  20.985  0.00  0.00    +0.000 C 
ATOM     14  N   UNL     1       2.306   4.665  19.612  0.00  0.00    +0.000 N 
ATOM     15  C   UNL     1       3.101   3.525  19.453  0.00  0.00    +0.000 C 
ATOM     16  O   UNL     1       3.499   2.871  20.422  0.00  0.00    +0.000 OA
BRANCH  14  17
ATOM     17  C   UNL     1       2.085   5.624  18.518  0.00  0.00    +0.000 C 
BRANCH  17  18
ATOM     18  C   UNL     1       2.833   6.915  18.643  0.00  0.00    +0.000 C 
ATOM     19  C   UNL     1       3.714   7.399  17.518  0.00  0.00    +0.000 C 
ATOM     20  C   UNL     1       2.442   8.128  17.832  0.00  0.00    +0.000 C 
ENDBRANCH  17  18
ENDBRANCH  14  17
ENDBRANCH  12  15
ENDBRANCH   1  12
TORSDOF 5
ENDMDL
MODEL 7
REMARK VINA RESULT:      -6.7      2.669      7.212
REMARK  Name = 
REMARK  6 active torsions:
REMARK  status: ('A' for Active; 'I' for Inactive)
REMARK    1  A    between atoms: C_1  and  N_2
REMARK    2  A    between atoms: N_2  and  C_3
REMARK    3  A    between atoms: C_3  and  C_4
REMARK    4  A    between atoms: C_7  and  C_9
REMARK    5  A    between atoms: C_9  and  C_10
REMARK    6  A    between atoms: C_13  and  C_14
REMARK                            x       y       z     vdW  Elec       q    Type
REMARK                         _______ _______ _______ _____ _____    ______ ____
ROOT
ATOM      1  C   UNL     1       3.902   4.654  19.406  0.00  0.00    +0.000 A 
ATOM      2  C   UNL     1       3.025   3.971  20.228  0.00  0.00    +0.000 A 
ATOM      3  S   UNL     1       1.754   5.005  20.725  0.00  0.00    +0.000 S 
ATOM      4  C   UNL     1       2.451   6.300  19.816  0.00  0.00    +0.000 A 
ATOM      5  N   UNL     1       3.553   5.971  19.158  0.00  0.00    +0.000 NA
ENDROOT
BRANCH   4   6
ATOM      6  C   UNL     1       1.830   7.638  19.841  0.00  0.00    +0.000 A 
ATOM      7  N   UNL     1       1.315   8.074  21.010  0.00  0.00    +0.000 NA
ATOM      8  C   UNL     1       0.856   9.338  21.020  0.00  0.00    +0.000 A 
ATOM      9  C   UNL     1       0.882  10.163  19.920  0.00  0.00    +0.000 A 
ATOM     10  C   UNL     1       1.413   9.617  18.776  0.00  0.00    +0.000 A 
ATOM     11  N   UNL     1       1.902   8.366  18.708  0.00  0.00    +0.000 NA
ENDBRANCH   4   6
BRANCH   1  12
ATOM     12  C   UNL     1       5.184   4.134  18.844  0.00  0.00    +0.000 C 
BRANCH  12  15
ATOM     13  C   UNL     1       7.450   7.009  17.726  0.00  0.00    +0.000 C 
ATOM     14  N   UNL     1       6.434   5.965  17.662  0.00  0.00    +0.000 N 
ATOM     15  C   UNL     1       6.272   5.195  18.818  0.00  0.00    +0.000 C 
ATOM     16  O   UNL     1       6.953   5.390  19.830  0.00  0.00    +0.000 OA
BRANCH  14  17
ATOM     17  C   UNL     1       5.870   5.560  16.365  0.00  0.00    +0.000 C 
BRANCH  17  18
ATOM     18  C   UNL     1       6.712   4.604  15.577  0.00  0.00    +0.000 C 
ATOM     19  C   UNL     1       6.134   3.881  14.385  0.00  0.00    +0.000 C 
ATOM     20  C   UNL     1       7.176   4.940  14.179  0.00  0.00    +0.000 C 
ENDBRANCH  17  18
ENDBRANCH  14  17
ENDBRANCH  12  15
ENDBRANCH   1  12
TORSDOF 5
ENDMDL
MODEL 8
REMARK VINA RESULT:      -6.7      1.704      2.340
REMARK  Name = 
REMARK  6 active torsions:
REMARK  status: ('A' for Active; 'I' for Inactive)
REMARK    1  A    between atoms: C_1  and  N_2
REMARK    2  A    between atoms: N_2  and  C_3
REMARK    3  A    between atoms: C_3  and  C_4
REMARK    4  A    between atoms: C_7  and  C_9
REMARK    5  A    between atoms: C_9  and  C_10
REMARK    6  A    between atoms: C_13  and  C_14
REMARK                            x       y       z     vdW  Elec       q    Type
REMARK                         _______ _______ _______ _____ _____    ______ ____
ROOT
ATOM      1  C   UNL     1       5.574   4.362  18.134  0.00  0.00    +0.000 A 
ATOM      2  C   UNL     1       6.328   5.477  18.446  0.00  0.00    +0.000 A 
ATOM      3  S   UNL     1       7.082   6.093  17.037  0.00  0.00    +0.000 S 
ATOM      4  C   UNL     1       6.358   4.835  16.098  0.00  0.00    +0.000 A 
ATOM      5  N   UNL     1       5.577   4.019  16.792  0.00  0.00    +0.000 NA
ENDROOT
BRANCH   4   6
ATOM      6  C   UNL     1       6.653   4.725  14.657  0.00  0.00    +0.000 A 
ATOM      7  N   UNL     1       7.662   5.472  14.161  0.00  0.00    +0.000 NA
ATOM      8  C   UNL     1       7.972   5.265  12.869  0.00  0.00    +0.000 A 
ATOM      9  C   UNL     1       7.312   4.363  12.065  0.00  0.00    +0.000 A 
ATOM     10  C   UNL     1       6.292   3.666  12.665  0.00  0.00    +0.000 A 
ATOM     11  N   UNL     1       5.946   3.817  13.956  0.00  0.00    +0.000 NA
ENDBRANCH   4   6
BRANCH   1  12
ATOM     12  C   UNL     1       4.841   3.485  19.095  0.00  0.00    +0.000 C 
BRANCH  12  15
ATOM     13  C   UNL     1       1.227   3.043  17.915  0.00  0.00    +0.000 C 
ATOM     14  N   UNL     1       2.387   3.630  18.574  0.00  0.00    +0.000 N 
ATOM     15  C   UNL     1       3.576   2.898  18.489  0.00  0.00    +0.000 C 
ATOM     16  O   UNL     1       3.634   1.819  17.892  0.00  0.00    +0.000 OA
BRANCH  14  17
ATOM     17  C   UNL     1       2.216   4.738  19.526  0.00  0.00    +0.000 C 
BRANCH  17  18
ATOM     18  C   UNL     1       1.553   4.371  20.818  0.00  0.00    +0.000 C 
ATOM     19  C   UNL     1       1.177   2.938  21.102  0.00  0.00    +0.000 C 
ATOM     20  C   UNL     1       2.287   3.583  21.878  0.00  0.00    +0.000 C 
ENDBRANCH  17  18
ENDBRANCH  14  17
ENDBRANCH  12  15
ENDBRANCH   1  12
TORSDOF 5
ENDMDL
MODEL 9
REMARK VINA RESULT:      -6.7      0.593      1.274
REMARK  Name = 
REMARK  6 active torsions:
REMARK  status: ('A' for Active; 'I' for Inactive)
REMARK    1  A    between atoms: C_1  and  N_2
REMARK    2  A    between atoms: N_2  and  C_3
REMARK    3  A    between atoms: C_3  and  C_4
REMARK    4  A    between atoms: C_7  and  C_9
REMARK    5  A    between atoms: C_9  and  C_10
REMARK    6  A    between atoms: C_13  and  C_14
REMARK                            x       y       z     vdW  Elec       q    Type
REMARK                         _______ _______ _______ _____ _____    ______ ____
ROOT
ATOM      1  C   UNL     1       4.807   4.740  17.604  0.00  0.00    +0.000 A 
ATOM      2  C   UNL     1       6.014   5.049  18.203  0.00  0.00    +0.000 A 
ATOM      3  S   UNL     1       7.246   5.173  17.020  0.00  0.00    +0.000 S 
ATOM      4  C   UNL     1       6.097   4.805  15.783  0.00  0.00    +0.000 A 
ATOM      5  N   UNL     1       4.860   4.628  16.224  0.00  0.00    +0.000 NA
ENDROOT
BRANCH   4   6
ATOM      6  C   UNL     1       6.535   4.688  14.379  0.00  0.00    +0.000 A 
ATOM      7  N   UNL     1       7.568   5.457  13.974  0.00  0.00    +0.000 NA
ATOM      8  C   UNL     1       8.009   5.244  12.721  0.00  0.00    +0.000 A 
ATOM      9  C   UNL     1       7.454   4.317  11.869  0.00  0.00    +0.000 A 
ATOM     10  C   UNL     1       6.398   3.598  12.375  0.00  0.00    +0.000 A 
ATOM     11  N   UNL     1       5.923   3.753  13.623  0.00  0.00    +0.000 NA
ENDBRANCH   4   6
BRANCH   1  12
ATOM     12  C   UNL     1       3.516   4.456  18.297  0.00  0.00    +0.000 C 
BRANCH  12  15
ATOM     13  C   UNL     1       1.830   7.196  20.373  0.00  0.00    +0.000 C 
ATOM     14  N   UNL     1       2.469   5.926  20.046  0.00  0.00    +0.000 N 
ATOM     15  C   UNL     1       2.786   5.729  18.698  0.00  0.00    +0.000 C 
ATOM     16  O   UNL     1       2.537   6.581  17.840  0.00  0.00    +0.000 OA
BRANCH  14  17
ATOM     17  C   UNL     1       2.467   4.823  21.020  0.00  0.00    +0.000 C 
BRANCH  17  18
ATOM     18  C   UNL     1       1.275   3.919  20.953  0.00  0.00    +0.000 C 
ATOM     19  C   UNL     1       1.307   2.673  20.102  0.00  0.00    +0.000 C 
ATOM     20  C   UNL     1       1.293   2.552  21.597  0.00  0.00    +0.000 C 
ENDBRANCH  17  18
ENDBRANCH  14  17
ENDBRANCH  12  15
ENDBRANCH   1  12
TORSDOF 5
ENDMDL
