MODEL 1
REMARK VINA RESULT:      -8.6      0.000      0.000
REMARK  Name = 
REMARK  6 active torsions:
REMARK  status: ('A' for Active; 'I' for Inactive)
REMARK    1  A    between atoms: C_2  and  C_3
REMARK    2  A    between atoms: C_4  and  C_5
REMARK    3  A    between atoms: C_16  and  C_17
REMARK    4  A    between atoms: C_17  and  N_18
REMARK    5  A    between atoms: C_21  and  C_22
REMARK    6  A    between atoms: C_25  and  O_26
REMARK                            x       y       z     vdW  Elec       q    Type
REMARK                         _______ _______ _______ _____ _____    ______ ____
ROOT
ATOM      1  O   UNL     1       2.214   9.890  17.277  0.00  0.00    +0.000 OA
ATOM      2  C   UNL     1       1.906   9.397  18.341  0.00  0.00    +0.000 C 
ATOM      3  N   UNL     1       1.236  10.061  19.356  0.00  0.00    +0.000 N 
ATOM      4  C   UNL     1       0.936   9.479  20.653  0.00  0.00    +0.000 C 
ATOM      5  C   UNL     1      -0.570   9.527  20.850  0.00  0.00    +0.000 C 
ATOM      6  C   UNL     1      -1.074  10.996  20.893  0.00  0.00    +0.000 C 
ATOM      7  C   UNL     1      -0.698  11.620  19.532  0.00  0.00    +0.000 C 
ATOM      8  C   UNL     1       0.791  11.450  19.176  0.00  0.00    +0.000 C 
ENDROOT
BRANCH   2   9
ATOM      9  C   UNL     1       2.213   7.962  18.603  0.00  0.00    +0.000 C 
ATOM     10  C   UNL     1       2.820   7.210  17.676  0.00  0.00    +0.000 C 
BRANCH  10  11
ATOM     11  C   UNL     1       3.034   5.762  17.823  0.00  0.00    +0.000 A 
ATOM     12  C   UNL     1       4.319   5.200  17.802  0.00  0.00    +0.000 A 
ATOM     13  C   UNL     1       4.508   3.835  18.035  0.00  0.00    +0.000 A 
ATOM     14  C   UNL     1       3.410   3.012  18.297  0.00  0.00    +0.000 A 
ATOM     15 CL   UNL     1       3.717   1.337  18.590  0.00  0.00    +0.000 Cl
ATOM     16  C   UNL     1       2.125   3.559  18.324  0.00  0.00    +0.000 A 
ATOM     17 CL   UNL     1       0.721   2.603  18.647  0.00  0.00    +0.000 Cl
ATOM     18  C   UNL     1       1.942   4.929  18.093  0.00  0.00    +0.000 A 
ENDBRANCH  10  11
ENDBRANCH   2   9
BRANCH   6  19
ATOM     19  C   UNL     1      -0.537  11.863  22.083  0.00  0.00    +0.000 C 
BRANCH  19  20
ATOM     20  N   UNL     1      -1.542  12.724  22.768  0.00  0.00    +0.000 NA
ATOM     21  C   UNL     1      -2.030  13.814  21.916  0.00  0.00    +0.000 C 
ATOM     22  C   UNL     1      -3.302  14.524  22.412  0.00  0.00    +0.000 C 
ATOM     23  C   UNL     1      -4.428  13.562  22.827  0.00  0.00    +0.000 C 
ATOM     24  C   UNL     1      -3.839  12.631  23.896  0.00  0.00    +0.000 C 
ATOM     25  C   UNL     1      -2.589  11.897  23.402  0.00  0.00    +0.000 C 
BRANCH  23  26
ATOM     26  C   UNL     1      -5.148  12.846  21.673  0.00  0.00    +0.000 A 
ATOM     27  C   UNL     1      -4.563  12.675  20.408  0.00  0.00    +0.000 A 
ATOM     28  C   UNL     1      -5.212  12.012  19.360  0.00  0.00    +0.000 A 
ATOM     29  C   UNL     1      -6.498  11.554  19.541  0.00  0.00    +0.000 A 
ATOM     30  C   UNL     1      -7.135  11.740  20.764  0.00  0.00    +0.000 A 
ATOM     31  C   UNL     1      -6.464  12.381  21.827  0.00  0.00    +0.000 A 
BRANCH  29  32
ATOM     32  O   UNL     1      -7.171  10.924  18.540  0.00  0.00    +0.000 OA
ATOM     33  H   UNL     1      -6.566  10.288  18.102  0.00  0.00    +0.000 HD
ENDBRANCH  29  32
ENDBRANCH  23  26
ENDBRANCH  19  20
ENDBRANCH   6  19
TORSDOF 6
ENDMDL
MODEL 2
REMARK VINA RESULT:      -8.4      4.432     10.877
REMARK  Name = 
REMARK  6 active torsions:
REMARK  status: ('A' for Active; 'I' for Inactive)
REMARK    1  A    between atoms: C_2  and  C_3
REMARK    2  A    between atoms: C_4  and  C_5
REMARK    3  A    between atoms: C_16  and  C_17
REMARK    4  A    between atoms: C_17  and  N_18
REMARK    5  A    between atoms: C_21  and  C_22
REMARK    6  A    between atoms: C_25  and  O_26
REMARK                            x       y       z     vdW  Elec       q    Type
REMARK                         _______ _______ _______ _____ _____    ______ ____
ROOT
ATOM      1  O   UNL     1       1.331  11.338  18.540  0.00  0.00    +0.000 OA
ATOM      2  C   UNL     1       1.015  10.708  19.526  0.00  0.00    +0.000 C 
ATOM      3  N   UNL     1       1.060   9.327  19.630  0.00  0.00    +0.000 N 
ATOM      4  C   UNL     1       0.610   8.582  20.793  0.00  0.00    +0.000 C 
ATOM      5  C   UNL     1       1.782   7.760  21.304  0.00  0.00    +0.000 C 
ATOM      6  C   UNL     1       2.222   6.712  20.244  0.00  0.00    +0.000 C 
ATOM      7  C   UNL     1       2.643   7.514  18.994  0.00  0.00    +0.000 C 
ATOM      8  C   UNL     1       1.567   8.509  18.520  0.00  0.00    +0.000 C 
ENDROOT
BRANCH   2   9
ATOM      9  C   UNL     1       0.580  11.433  20.753  0.00  0.00    +0.000 C 
ATOM     10  C   UNL     1      -0.714  11.707  20.967  0.00  0.00    +0.000 C 
BRANCH  10  11
ATOM     11  C   UNL     1      -1.191  12.529  22.090  0.00  0.00    +0.000 A 
ATOM     12  C   UNL     1      -0.575  13.742  22.431  0.00  0.00    +0.000 A 
ATOM     13  C   UNL     1      -1.098  14.552  23.443  0.00  0.00    +0.000 A 
ATOM     14  C   UNL     1      -2.251  14.159  24.127  0.00  0.00    +0.000 A 
ATOM     15 CL   UNL     1      -2.851  15.214  25.356  0.00  0.00    +0.000 Cl
ATOM     16  C   UNL     1      -2.876  12.954  23.795  0.00  0.00    +0.000 A 
ATOM     17 CL   UNL     1      -4.308  12.407  24.594  0.00  0.00    +0.000 Cl
ATOM     18  C   UNL     1      -2.349  12.148  22.778  0.00  0.00    +0.000 A 
ENDBRANCH  10  11
ENDBRANCH   2   9
BRANCH   6  19
ATOM     19  C   UNL     1       1.158   5.619  19.886  0.00  0.00    +0.000 C 
BRANCH  19  20
ATOM     20  N   UNL     1       1.694   4.338  19.344  0.00  0.00    +0.000 NA
ATOM     21  C   UNL     1       1.760   4.327  17.879  0.00  0.00    +0.000 C 
ATOM     22  C   UNL     1       2.611   3.203  17.262  0.00  0.00    +0.000 C 
ATOM     23  C   UNL     1       4.000   3.051  17.908  0.00  0.00    +0.000 C 
ATOM     24  C   UNL     1       3.764   2.834  19.409  0.00  0.00    +0.000 C 
ATOM     25  C   UNL     1       2.942   3.962  20.038  0.00  0.00    +0.000 C 
BRANCH  23  26
ATOM     26  C   UNL     1       5.014   4.155  17.567  0.00  0.00    +0.000 A 
ATOM     27  C   UNL     1       6.062   4.511  18.430  0.00  0.00    +0.000 A 
ATOM     28  C   UNL     1       6.994   5.507  18.116  0.00  0.00    +0.000 A 
ATOM     29  C   UNL     1       6.858   6.217  16.944  0.00  0.00    +0.000 A 
ATOM     30  C   UNL     1       5.808   5.929  16.077  0.00  0.00    +0.000 A 
ATOM     31  C   UNL     1       4.891   4.903  16.384  0.00  0.00    +0.000 A 
BRANCH  29  32
ATOM     32  O   UNL     1       7.730   7.207  16.612  0.00  0.00    +0.000 OA
ATOM     33  H   UNL     1       7.561   7.985  17.185  0.00  0.00    +0.000 HD
ENDBRANCH  29  32
ENDBRANCH  23  26
ENDBRANCH  19  20
ENDBRANCH   6  19
TORSDOF 6
ENDMDL
MODEL 3
REMARK VINA RESULT:      -8.3      0.914      1.246
REMARK  Name = 
REMARK  6 active torsions:
REMARK  status: ('A' for Active; 'I' for Inactive)
REMARK    1  A    between atoms: C_2  and  C_3
REMARK    2  A    between atoms: C_4  and  C_5
REMARK    3  A    between atoms: C_16  and  C_17
REMARK    4  A    between atoms: C_17  and  N_18
REMARK    5  A    between atoms: C_21  and  C_22
REMARK    6  A    between atoms: C_25  and  O_26
REMARK                            x       y       z     vdW  Elec       q    Type
REMARK                         _______ _______ _______ _____ _____    ______ ____
ROOT
ATOM      1  O   UNL     1       1.934   9.585  17.311  0.00  0.00    +0.000 OA
ATOM      2  C   UNL     1       1.718   9.275  18.463  0.00  0.00    +0.000 C 
ATOM      3  N   UNL     1       1.073  10.077  19.390  0.00  0.00    +0.000 N 
ATOM      4  C   UNL     1       0.883   9.720  20.785  0.00  0.00    +0.000 C 
ATOM      5  C   UNL     1      -0.609   9.734  21.073  0.00  0.00    +0.000 C 
ATOM      6  C   UNL     1      -1.191  11.164  20.894  0.00  0.00    +0.000 C 
ATOM      7  C   UNL     1      -0.932  11.554  19.423  0.00  0.00    +0.000 C 
ATOM      8  C   UNL     1       0.541  11.390  19.002  0.00  0.00    +0.000 C 
ENDROOT
BRANCH   2   9
ATOM      9  C   UNL     1       2.120   7.924  18.948  0.00  0.00    +0.000 C 
ATOM     10  C   UNL     1       2.939   7.150  18.224  0.00  0.00    +0.000 C 
BRANCH  10  11
ATOM     11  C   UNL     1       3.269   5.763  18.586  0.00  0.00    +0.000 A 
ATOM     12  C   UNL     1       4.192   5.007  17.847  0.00  0.00    +0.000 A 
ATOM     13  C   UNL     1       4.560   3.723  18.258  0.00  0.00    +0.000 A 
ATOM     14  C   UNL     1       4.011   3.178  19.422  0.00  0.00    +0.000 A 
ATOM     15 CL   UNL     1       4.521   1.593  19.880  0.00  0.00    +0.000 Cl
ATOM     16  C   UNL     1       3.094   3.921  20.168  0.00  0.00    +0.000 A 
ATOM     17 CL   UNL     1       2.379   3.314  21.621  0.00  0.00    +0.000 Cl
ATOM     18  C   UNL     1       2.730   5.209  19.753  0.00  0.00    +0.000 A 
ENDBRANCH  10  11
ENDBRANCH   2   9
BRANCH   6  19
ATOM     19  C   UNL     1      -0.635  12.251  21.876  0.00  0.00    +0.000 C 
BRANCH  19  20
ATOM     20  N   UNL     1      -1.653  12.997  22.669  0.00  0.00    +0.000 NA
ATOM     21  C   UNL     1      -2.261  14.099  21.917  0.00  0.00    +0.000 C 
ATOM     22  C   UNL     1      -3.546  14.688  22.525  0.00  0.00    +0.000 C 
ATOM     23  C   UNL     1      -4.580  13.626  22.939  0.00  0.00    +0.000 C 
ATOM     24  C   UNL     1      -3.869  12.675  23.912  0.00  0.00    +0.000 C 
ATOM     25  C   UNL     1      -2.604  12.061  23.304  0.00  0.00    +0.000 C 
BRANCH  23  26
ATOM     26  C   UNL     1      -5.317  12.932  21.782  0.00  0.00    +0.000 A 
ATOM     27  C   UNL     1      -6.608  12.397  21.920  0.00  0.00    +0.000 A 
ATOM     28  C   UNL     1      -7.285  11.776  20.864  0.00  0.00    +0.000 A 
ATOM     29  C   UNL     1      -6.652  11.622  19.650  0.00  0.00    +0.000 A 
ATOM     30  C   UNL     1      -5.355  12.097  19.479  0.00  0.00    +0.000 A 
ATOM     31  C   UNL     1      -4.690  12.750  20.538  0.00  0.00    +0.000 A 
BRANCH  29  32
ATOM     32  O   UNL     1      -7.268  11.005  18.605  0.00  0.00    +0.000 OA
ATOM     33  H   UNL     1      -8.234  11.162  18.669  0.00  0.00    +0.000 HD
ENDBRANCH  29  32
ENDBRANCH  23  26
ENDBRANCH  19  20
ENDBRANCH   6  19
TORSDOF 6
ENDMDL
MODEL 4
REMARK VINA RESULT:      -8.3      0.860      1.617
REMARK  Name = 
REMARK  6 active torsions:
REMARK  status: ('A' for Active; 'I' for Inactive)
REMARK    1  A    between atoms: C_2  and  C_3
REMARK    2  A    between atoms: C_4  and  C_5
REMARK    3  A    between atoms: C_16  and  C_17
REMARK    4  A    between atoms: C_17  and  N_18
REMARK    5  A    between atoms: C_21  and  C_22
REMARK    6  A    between atoms: C_25  and  O_26
REMARK                            x       y       z     vdW  Elec       q    Type
REMARK                         _______ _______ _______ _____ _____    ______ ____
ROOT
ATOM      1  O   UNL     1       2.344  10.422  17.250  0.00  0.00    +0.000 OA
ATOM      2  C   UNL     1       1.920   9.903  18.261  0.00  0.00    +0.000 C 
ATOM      3  N   UNL     1       1.196  10.560  19.242  0.00  0.00    +0.000 N 
ATOM      4  C   UNL     1       0.756   9.943  20.482  0.00  0.00    +0.000 C 
ATOM      5  C   UNL     1      -0.758  10.060  20.550  0.00  0.00    +0.000 C 
ATOM      6  C   UNL     1      -1.193  11.550  20.614  0.00  0.00    +0.000 C 
ATOM      7  C   UNL     1      -0.670  12.208  19.319  0.00  0.00    +0.000 C 
ATOM      8  C   UNL     1       0.835  11.976  19.085  0.00  0.00    +0.000 C 
ENDROOT
BRANCH   2   9
ATOM      9  C   UNL     1       2.135   8.446  18.485  0.00  0.00    +0.000 C 
ATOM     10  C   UNL     1       3.024   7.762  17.752  0.00  0.00    +0.000 C 
BRANCH  10  11
ATOM     11  C   UNL     1       3.189   6.302  17.837  0.00  0.00    +0.000 A 
ATOM     12  C   UNL     1       2.276   5.496  18.534  0.00  0.00    +0.000 A 
ATOM     13  C   UNL     1       2.399   4.104  18.527  0.00  0.00    +0.000 A 
ATOM     14  C   UNL     1       3.439   3.498  17.817  0.00  0.00    +0.000 A 
ATOM     15 CL   UNL     1       3.523   1.773  17.839  0.00  0.00    +0.000 Cl
ATOM     16  C   UNL     1       4.352   4.289  17.117  0.00  0.00    +0.000 A 
ATOM     17 CL   UNL     1       5.659   3.608  16.212  0.00  0.00    +0.000 Cl
ATOM     18  C   UNL     1       4.223   5.684  17.125  0.00  0.00    +0.000 A 
ENDBRANCH  10  11
ENDBRANCH   2   9
BRANCH   6  19
ATOM     19  C   UNL     1      -0.723  12.342  21.883  0.00  0.00    +0.000 C 
BRANCH  19  20
ATOM     20  N   UNL     1      -1.792  13.041  22.649  0.00  0.00    +0.000 NA
ATOM     21  C   UNL     1      -2.421  14.124  21.886  0.00  0.00    +0.000 C 
ATOM     22  C   UNL     1      -3.746  14.658  22.459  0.00  0.00    +0.000 C 
ATOM     23  C   UNL     1      -4.749  13.553  22.835  0.00  0.00    +0.000 C 
ATOM     24  C   UNL     1      -4.029  12.624  23.824  0.00  0.00    +0.000 C 
ATOM     25  C   UNL     1      -2.724  12.065  23.251  0.00  0.00    +0.000 C 
BRANCH  23  26
ATOM     26  C   UNL     1      -5.423  12.839  21.653  0.00  0.00    +0.000 A 
ATOM     27  C   UNL     1      -6.692  12.248  21.752  0.00  0.00    +0.000 A 
ATOM     28  C   UNL     1      -7.314  11.608  20.672  0.00  0.00    +0.000 A 
ATOM     29  C   UNL     1      -6.642  11.493  19.475  0.00  0.00    +0.000 A 
ATOM     30  C   UNL     1      -5.363  12.026  19.343  0.00  0.00    +0.000 A 
ATOM     31  C   UNL     1      -4.756  12.697  20.425  0.00  0.00    +0.000 A 
BRANCH  29  32
ATOM     32  O   UNL     1      -7.202  10.860  18.409  0.00  0.00    +0.000 OA
ATOM     33  H   UNL     1      -7.331   9.914  18.632  0.00  0.00    +0.000 HD
ENDBRANCH  29  32
ENDBRANCH  23  26
ENDBRANCH  19  20
ENDBRANCH   6  19
TORSDOF 6
ENDMDL
MODEL 5
REMARK VINA RESULT:      -8.1      3.434      5.460
REMARK  Name = 
REMARK  6 active torsions:
REMARK  status: ('A' for Active; 'I' for Inactive)
REMARK    1  A    between atoms: C_2  and  C_3
REMARK    2  A    between atoms: C_4  and  C_5
REMARK    3  A    between atoms: C_16  and  C_17
REMARK    4  A    between atoms: C_17  and  N_18
REMARK    5  A    between atoms: C_21  and  C_22
REMARK    6  A    between atoms: C_25  and  O_26
REMARK                            x       y       z     vdW  Elec       q    Type
REMARK                         _______ _______ _______ _____ _____    ______ ____
ROOT
ATOM      1  O   UNL     1       1.899   2.139  18.260  0.00  0.00    +0.000 OA
ATOM      2  C   UNL     1       2.227   3.275  17.995  0.00  0.00    +0.000 C 
ATOM      3  N   UNL     1       1.852   4.396  18.718  0.00  0.00    +0.000 N 
ATOM      4  C   UNL     1       2.195   5.758  18.348  0.00  0.00    +0.000 C 
ATOM      5  C   UNL     1       2.965   6.377  19.502  0.00  0.00    +0.000 C 
ATOM      6  C   UNL     1       2.074   6.470  20.771  0.00  0.00    +0.000 C 
ATOM      7  C   UNL     1       1.670   5.022  21.122  0.00  0.00    +0.000 C 
ATOM      8  C   UNL     1       1.042   4.264  19.937  0.00  0.00    +0.000 C 
ENDROOT
BRANCH   2   9
ATOM      9  C   UNL     1       3.133   3.528  16.839  0.00  0.00    +0.000 C 
ATOM     10  C   UNL     1       4.394   3.939  17.032  0.00  0.00    +0.000 C 
BRANCH  10  11
ATOM     11  C   UNL     1       5.294   4.327  15.935  0.00  0.00    +0.000 A 
ATOM     12  C   UNL     1       6.348   5.231  16.131  0.00  0.00    +0.000 A 
ATOM     13  C   UNL     1       7.248   5.518  15.100  0.00  0.00    +0.000 A 
ATOM     14  C   UNL     1       7.105   4.897  13.856  0.00  0.00    +0.000 A 
ATOM     15 CL   UNL     1       8.260   5.286  12.632  0.00  0.00    +0.000 Cl
ATOM     16  C   UNL     1       6.061   3.993  13.649  0.00  0.00    +0.000 A 
ATOM     17 CL   UNL     1       5.828   3.184  12.139  0.00  0.00    +0.000 Cl
ATOM     18  C   UNL     1       5.165   3.707  14.687  0.00  0.00    +0.000 A 
ENDBRANCH  10  11
ENDBRANCH   2   9
BRANCH   6  19
ATOM     19  C   UNL     1       0.816   7.398  20.653  0.00  0.00    +0.000 C 
BRANCH  19  20
ATOM     20  N   UNL     1       1.089   8.860  20.562  0.00  0.00    +0.000 NA
ATOM     21  C   UNL     1       1.306   9.312  19.183  0.00  0.00    +0.000 C 
ATOM     22  C   UNL     1       1.247  10.834  18.967  0.00  0.00    +0.000 C 
ATOM     23  C   UNL     1       0.022  11.506  19.613  0.00  0.00    +0.000 C 
ATOM     24  C   UNL     1       0.056  11.139  21.104  0.00  0.00    +0.000 C 
ATOM     25  C   UNL     1       0.086   9.625  21.330  0.00  0.00    +0.000 C 
BRANCH  23  26
ATOM     26  C   UNL     1      -1.322  11.245  18.915  0.00  0.00    +0.000 A 
ATOM     27  C   UNL     1      -1.460  10.333  17.857  0.00  0.00    +0.000 A 
ATOM     28  C   UNL     1      -2.686  10.085  17.228  0.00  0.00    +0.000 A 
ATOM     29  C   UNL     1      -3.800  10.799  17.611  0.00  0.00    +0.000 A 
ATOM     30  C   UNL     1      -3.702  11.746  18.626  0.00  0.00    +0.000 A 
ATOM     31  C   UNL     1      -2.471  11.968  19.276  0.00  0.00    +0.000 A 
BRANCH  29  32
ATOM     32  O   UNL     1      -5.006  10.603  17.010  0.00  0.00    +0.000 OA
ATOM     33  H   UNL     1      -5.442  11.471  16.884  0.00  0.00    +0.000 HD
ENDBRANCH  29  32
ENDBRANCH  23  26
ENDBRANCH  19  20
ENDBRANCH   6  19
TORSDOF 6
ENDMDL
MODEL 6
REMARK VINA RESULT:      -7.9      4.465     10.537
REMARK  Name = 
REMARK  6 active torsions:
REMARK  status: ('A' for Active; 'I' for Inactive)
REMARK    1  A    between atoms: C_2  and  C_3
REMARK    2  A    between atoms: C_4  and  C_5
REMARK    3  A    between atoms: C_16  and  C_17
REMARK    4  A    between atoms: C_17  and  N_18
REMARK    5  A    between atoms: C_21  and  C_22
REMARK    6  A    between atoms: C_25  and  O_26
REMARK                            x       y       z     vdW  Elec       q    Type
REMARK                         _______ _______ _______ _____ _____    ______ ____
ROOT
ATOM      1  O   UNL     1       2.224  10.628  17.530  0.00  0.00    +0.000 OA
ATOM      2  C   UNL     1       1.555  10.276  18.478  0.00  0.00    +0.000 C 
ATOM      3  N   UNL     1       1.431   8.967  18.916  0.00  0.00    +0.000 N 
ATOM      4  C   UNL     1       0.570   8.550  20.009  0.00  0.00    +0.000 C 
ATOM      5  C   UNL     1       1.438   7.870  21.055  0.00  0.00    +0.000 C 
ATOM      6  C   UNL     1       2.085   6.580  20.480  0.00  0.00    +0.000 C 
ATOM      7  C   UNL     1       2.952   7.029  19.284  0.00  0.00    +0.000 C 
ATOM      8  C   UNL     1       2.180   7.885  18.262  0.00  0.00    +0.000 C 
ENDROOT
BRANCH   2   9
ATOM      9  C   UNL     1       0.829  11.296  19.286  0.00  0.00    +0.000 C 
ATOM     10  C   UNL     1       1.111  11.472  20.584  0.00  0.00    +0.000 C 
BRANCH  10  11
ATOM     11  C   UNL     1       0.345  12.370  21.462  0.00  0.00    +0.000 A 
ATOM     12  C   UNL     1       0.675  13.726  21.599  0.00  0.00    +0.000 A 
ATOM     13  C   UNL     1      -0.119  14.583  22.367  0.00  0.00    +0.000 A 
ATOM     14  C   UNL     1      -1.260  14.092  23.007  0.00  0.00    +0.000 A 
ATOM     15 CL   UNL     1      -2.203  15.209  23.928  0.00  0.00    +0.000 Cl
ATOM     16  C   UNL     1      -1.601  12.744  22.876  0.00  0.00    +0.000 A 
ATOM     17 CL   UNL     1      -3.001  12.069  23.635  0.00  0.00    +0.000 Cl
ATOM     18  C   UNL     1      -0.804  11.891  22.103  0.00  0.00    +0.000 A 
ENDBRANCH  10  11
ENDBRANCH   2   9
BRANCH   6  19
ATOM     19  C   UNL     1       1.086   5.447  20.063  0.00  0.00    +0.000 C 
BRANCH  19  20
ATOM     20  N   UNL     1       1.697   4.224  19.468  0.00  0.00    +0.000 NA
ATOM     21  C   UNL     1       1.761   4.279  18.003  0.00  0.00    +0.000 C 
ATOM     22  C   UNL     1       2.678   3.235  17.341  0.00  0.00    +0.000 C 
ATOM     23  C   UNL     1       4.074   3.139  17.980  0.00  0.00    +0.000 C 
ATOM     24  C   UNL     1       3.854   2.845  19.471  0.00  0.00    +0.000 C 
ATOM     25  C   UNL     1       2.967   3.895  20.146  0.00  0.00    +0.000 C 
BRANCH  23  26
ATOM     26  C   UNL     1       5.019   4.315  17.687  0.00  0.00    +0.000 A 
ATOM     27  C   UNL     1       6.018   4.724  18.586  0.00  0.00    +0.000 A 
ATOM     28  C   UNL     1       6.888   5.787  18.315  0.00  0.00    +0.000 A 
ATOM     29  C   UNL     1       6.735   6.508  17.152  0.00  0.00    +0.000 A 
ATOM     30  C   UNL     1       5.731   6.168  16.251  0.00  0.00    +0.000 A 
ATOM     31  C   UNL     1       4.877   5.076  16.515  0.00  0.00    +0.000 A 
BRANCH  29  32
ATOM     32  O   UNL     1       7.547   7.561  16.862  0.00  0.00    +0.000 OA
ATOM     33  H   UNL     1       8.461   7.231  16.733  0.00  0.00    +0.000 HD
ENDBRANCH  29  32
ENDBRANCH  23  26
ENDBRANCH  19  20
ENDBRANCH   6  19
TORSDOF 6
ENDMDL
MODEL 7
REMARK VINA RESULT:      -7.8      2.711      3.927
REMARK  Name = 
REMARK  6 active torsions:
REMARK  status: ('A' for Active; 'I' for Inactive)
REMARK    1  A    between atoms: C_2  and  C_3
REMARK    2  A    between atoms: C_4  and  C_5
REMARK    3  A    between atoms: C_16  and  C_17
REMARK    4  A    between atoms: C_17  and  N_18
REMARK    5  A    between atoms: C_21  and  C_22
REMARK    6  A    between atoms: C_25  and  O_26
REMARK                            x       y       z     vdW  Elec       q    Type
REMARK                         _______ _______ _______ _____ _____    ______ ____
ROOT
ATOM      1  O   UNL     1       2.688  10.616  17.400  0.00  0.00    +0.000 OA
ATOM      2  C   UNL     1       1.914  10.057  18.148  0.00  0.00    +0.000 C 
ATOM      3  N   UNL     1       0.958  10.697  18.920  0.00  0.00    +0.000 N 
ATOM      4  C   UNL     1       0.086  10.021  19.864  0.00  0.00    +0.000 C 
ATOM      5  C   UNL     1      -1.351  10.303  19.458  0.00  0.00    +0.000 C 
ATOM      6  C   UNL     1      -1.666  11.821  19.567  0.00  0.00    +0.000 C 
ATOM      7  C   UNL     1      -0.694  12.533  18.602  0.00  0.00    +0.000 C 
ATOM      8  C   UNL     1       0.781  12.153  18.835  0.00  0.00    +0.000 C 
ENDROOT
BRANCH   2   9
ATOM      9  C   UNL     1       1.929   8.570  18.242  0.00  0.00    +0.000 C 
ATOM     10  C   UNL     1       3.032   7.873  17.937  0.00  0.00    +0.000 C 
BRANCH  10  11
ATOM     11  C   UNL     1       3.071   6.403  17.887  0.00  0.00    +0.000 A 
ATOM     12  C   UNL     1       4.104   5.715  17.234  0.00  0.00    +0.000 A 
ATOM     13  C   UNL     1       4.172   4.319  17.275  0.00  0.00    +0.000 A 
ATOM     14  C   UNL     1       3.207   3.592  17.976  0.00  0.00    +0.000 A 
ATOM     15 CL   UNL     1       3.361   1.872  17.998  0.00  0.00    +0.000 Cl
ATOM     16  C   UNL     1       2.175   4.266  18.633  0.00  0.00    +0.000 A 
ATOM     17 CL   UNL     1       0.950   3.433  19.524  0.00  0.00    +0.000 Cl
ATOM     18  C   UNL     1       2.113   5.665  18.591  0.00  0.00    +0.000 A 
ENDBRANCH  10  11
ENDBRANCH   2   9
BRANCH   6  19
ATOM     19  C   UNL     1      -1.583  12.430  21.008  0.00  0.00    +0.000 C 
BRANCH  19  20
ATOM     20  N   UNL     1      -2.858  12.459  21.779  0.00  0.00    +0.000 NA
ATOM     21  C   UNL     1      -2.672  12.130  23.196  0.00  0.00    +0.000 C 
ATOM     22  C   UNL     1      -3.855  12.473  24.118  0.00  0.00    +0.000 C 
ATOM     23  C   UNL     1      -4.404  13.896  23.920  0.00  0.00    +0.000 C 
ATOM     24  C   UNL     1      -4.779  14.020  22.436  0.00  0.00    +0.000 C 
ATOM     25  C   UNL     1      -3.599  13.709  21.511  0.00  0.00    +0.000 C 
BRANCH  23  26
ATOM     26  C   UNL     1      -3.517  15.030  24.457  0.00  0.00    +0.000 A 
ATOM     27  C   UNL     1      -2.566  14.830  25.471  0.00  0.00    +0.000 A 
ATOM     28  C   UNL     1      -1.748  15.859  25.954  0.00  0.00    +0.000 A 
ATOM     29  C   UNL     1      -1.909  17.137  25.467  0.00  0.00    +0.000 A 
ATOM     30  C   UNL     1      -2.869  17.392  24.492  0.00  0.00    +0.000 A 
ATOM     31  C   UNL     1      -3.669  16.345  23.988  0.00  0.00    +0.000 A 
BRANCH  29  32
ATOM     32  O   UNL     1      -1.149  18.168  25.924  0.00  0.00    +0.000 OA
ATOM     33  H   UNL     1      -0.998  18.050  26.886  0.00  0.00    +0.000 HD
ENDBRANCH  29  32
ENDBRANCH  23  26
ENDBRANCH  19  20
ENDBRANCH   6  19
TORSDOF 6
ENDMDL
MODEL 8
REMARK VINA RESULT:      -7.8      5.054     10.763
REMARK  Name = 
REMARK  6 active torsions:
REMARK  status: ('A' for Active; 'I' for Inactive)
REMARK    1  A    between atoms: C_2  and  C_3
REMARK    2  A    between atoms: C_4  and  C_5
REMARK    3  A    between atoms: C_16  and  C_17
REMARK    4  A    between atoms: C_17  and  N_18
REMARK    5  A    between atoms: C_21  and  C_22
REMARK    6  A    between atoms: C_25  and  O_26
REMARK                            x       y       z     vdW  Elec       q    Type
REMARK                         _______ _______ _______ _____ _____    ______ ____
ROOT
ATOM      1  O   UNL     1       2.245  10.533  17.376  0.00  0.00    +0.000 OA
ATOM      2  C   UNL     1       1.675  10.226  18.401  0.00  0.00    +0.000 C 
ATOM      3  N   UNL     1       1.534   8.929  18.869  0.00  0.00    +0.000 N 
ATOM      4  C   UNL     1       0.787   8.570  20.062  0.00  0.00    +0.000 C 
ATOM      5  C   UNL     1       1.735   7.851  21.008  0.00  0.00    +0.000 C 
ATOM      6  C   UNL     1       2.239   6.523  20.379  0.00  0.00    +0.000 C 
ATOM      7  C   UNL     1       2.981   6.914  19.083  0.00  0.00    +0.000 C 
ATOM      8  C   UNL     1       2.141   7.803  18.147  0.00  0.00    +0.000 C 
ENDROOT
BRANCH   2   9
ATOM      9  C   UNL     1       1.106  11.291  19.274  0.00  0.00    +0.000 C 
ATOM     10  C   UNL     1       1.720  12.475  19.401  0.00  0.00    +0.000 C 
BRANCH  10  11
ATOM     11  C   UNL     1       1.280  13.516  20.343  0.00  0.00    +0.000 A 
ATOM     12  C   UNL     1       1.648  14.860  20.181  0.00  0.00    +0.000 A 
ATOM     13  C   UNL     1       1.146  15.848  21.033  0.00  0.00    +0.000 A 
ATOM     14  C   UNL     1       0.262  15.504  22.059  0.00  0.00    +0.000 A 
ATOM     15 CL   UNL     1      -0.331  16.777  23.064  0.00  0.00    +0.000 Cl
ATOM     16  C   UNL     1      -0.115  14.170  22.228  0.00  0.00    +0.000 A 
ATOM     17 CL   UNL     1      -1.209  13.671  23.470  0.00  0.00    +0.000 Cl
ATOM     18  C   UNL     1       0.389  13.184  21.370  0.00  0.00    +0.000 A 
ENDBRANCH  10  11
ENDBRANCH   2   9
BRANCH   6  19
ATOM     19  C   UNL     1       1.138   5.443  20.099  0.00  0.00    +0.000 C 
BRANCH  19  20
ATOM     20  N   UNL     1       1.620   4.151  19.534  0.00  0.00    +0.000 NA
ATOM     21  C   UNL     1       1.586   4.125  18.068  0.00  0.00    +0.000 C 
ATOM     22  C   UNL     1       2.379   2.985  17.406  0.00  0.00    +0.000 C 
ATOM     23  C   UNL     1       3.807   2.821  17.956  0.00  0.00    +0.000 C 
ATOM     24  C   UNL     1       3.672   2.620  19.473  0.00  0.00    +0.000 C 
ATOM     25  C   UNL     1       2.909   3.765  20.145  0.00  0.00    +0.000 C 
BRANCH  23  26
ATOM     26  C   UNL     1       4.808   3.908  17.536  0.00  0.00    +0.000 A 
ATOM     27  C   UNL     1       4.846   4.440  16.237  0.00  0.00    +0.000 A 
ATOM     28  C   UNL     1       5.750   5.440  15.856  0.00  0.00    +0.000 A 
ATOM     29  C   UNL     1       6.685   5.889  16.762  0.00  0.00    +0.000 A 
ATOM     30  C   UNL     1       6.714   5.360  18.049  0.00  0.00    +0.000 A 
ATOM     31  C   UNL     1       5.781   4.375  18.436  0.00  0.00    +0.000 A 
BRANCH  29  32
ATOM     32  O   UNL     1       7.594   6.843  16.425  0.00  0.00    +0.000 OA
ATOM     33  H   UNL     1       8.328   6.422  15.931  0.00  0.00    +0.000 HD
ENDBRANCH  29  32
ENDBRANCH  23  26
ENDBRANCH  19  20
ENDBRANCH   6  19
TORSDOF 6
ENDMDL
MODEL 9
REMARK VINA RESULT:      -7.8      4.862     10.849
REMARK  Name = 
REMARK  6 active torsions:
REMARK  status: ('A' for Active; 'I' for Inactive)
REMARK    1  A    between atoms: C_2  and  C_3
REMARK    2  A    between atoms: C_4  and  C_5
REMARK    3  A    between atoms: C_16  and  C_17
REMARK    4  A    between atoms: C_17  and  N_18
REMARK    5  A    between atoms: C_21  and  C_22
REMARK    6  A    between atoms: C_25  and  O_26
REMARK                            x       y       z     vdW  Elec       q    Type
REMARK                         _______ _______ _______ _____ _____    ______ ____
ROOT
ATOM      1  O   UNL     1       2.225  10.596  17.456  0.00  0.00    +0.000 OA
ATOM      2  C   UNL     1       1.671  10.263  18.482  0.00  0.00    +0.000 C 
ATOM      3  N   UNL     1       1.537   8.955  18.920  0.00  0.00    +0.000 N 
ATOM      4  C   UNL     1       0.810   8.565  20.115  0.00  0.00    +0.000 C 
ATOM      5  C   UNL     1       1.772   7.824  21.028  0.00  0.00    +0.000 C 
ATOM      6  C   UNL     1       2.266   6.512  20.358  0.00  0.00    +0.000 C 
ATOM      7  C   UNL     1       2.987   6.935  19.061  0.00  0.00    +0.000 C 
ATOM      8  C   UNL     1       2.132   7.847  18.160  0.00  0.00    +0.000 C 
ENDROOT
BRANCH   2   9
ATOM      9  C   UNL     1       1.116  11.306  19.390  0.00  0.00    +0.000 C 
ATOM     10  C   UNL     1       0.376  12.313  18.907  0.00  0.00    +0.000 C 
BRANCH  10  11
ATOM     11  C   UNL     1      -0.091  13.440  19.730  0.00  0.00    +0.000 A 
ATOM     12  C   UNL     1      -0.375  14.694  19.171  0.00  0.00    +0.000 A 
ATOM     13  C   UNL     1      -0.903  15.725  19.953  0.00  0.00    +0.000 A 
ATOM     14  C   UNL     1      -1.159  15.511  21.311  0.00  0.00    +0.000 A 
ATOM     15 CL   UNL     1      -1.826  16.823  22.215  0.00  0.00    +0.000 Cl
ATOM     16  C   UNL     1      -0.883  14.266  21.879  0.00  0.00    +0.000 A 
ATOM     17 CL   UNL     1      -1.180  13.927  23.548  0.00  0.00    +0.000 Cl
ATOM     18  C   UNL     1      -0.356  13.235  21.089  0.00  0.00    +0.000 A 
ENDBRANCH  10  11
ENDBRANCH   2   9
BRANCH   6  19
ATOM     19  C   UNL     1       1.160   5.439  20.069  0.00  0.00    +0.000 C 
BRANCH  19  20
ATOM     20  N   UNL     1       1.637   4.148  19.496  0.00  0.00    +0.000 NA
ATOM     21  C   UNL     1       1.633   4.143  18.029  0.00  0.00    +0.000 C 
ATOM     22  C   UNL     1       2.426   3.002  17.367  0.00  0.00    +0.000 C 
ATOM     23  C   UNL     1       3.839   2.812  17.945  0.00  0.00    +0.000 C 
ATOM     24  C   UNL     1       3.670   2.592  19.455  0.00  0.00    +0.000 C 
ATOM     25  C   UNL     1       2.908   3.737  20.128  0.00  0.00    +0.000 C 
BRANCH  23  26
ATOM     26  C   UNL     1       4.863   3.892  17.561  0.00  0.00    +0.000 A 
ATOM     27  C   UNL     1       5.760   4.447  18.488  0.00  0.00    +0.000 A 
ATOM     28  C   UNL     1       6.702   5.422  18.137  0.00  0.00    +0.000 A 
ATOM     29  C   UNL     1       6.724   5.909  16.850  0.00  0.00    +0.000 A 
ATOM     30  C   UNL     1       5.825   5.421  15.907  0.00  0.00    +0.000 A 
ATOM     31  C   UNL     1       4.899   4.416  16.259  0.00  0.00    +0.000 A 
BRANCH  29  32
ATOM     32  O   UNL     1       7.610   6.872  16.474  0.00  0.00    +0.000 OA
ATOM     33  H   UNL     1       8.086   7.194  17.269  0.00  0.00    +0.000 HD
ENDBRANCH  29  32
ENDBRANCH  23  26
ENDBRANCH  19  20
ENDBRANCH   6  19
TORSDOF 6
ENDMDL
