MODEL 1
REMARK VINA RESULT:      -6.8      0.000      0.000
REMARK  Name = 
REMARK  11 active torsions:
REMARK  status: ('A' for Active; 'I' for Inactive)
REMARK    1  A    between atoms: C_1  and  C_2
REMARK    2  A    between atoms: C_2  and  C_3
REMARK    3  A    between atoms: C_2  and  C_4
REMARK    4  A    between atoms: C_4  and  S_5
REMARK    5  A    between atoms: S_5  and  C_6
REMARK    6  A    between atoms: C_10  and  C_11
REMARK    7  A    between atoms: C_15  and  S_16
REMARK    8  A    between atoms: S_16  and  C_17
REMARK    9  A    between atoms: C_17  and  C_18
REMARK   10  A    between atoms: C_18  and  C_19
REMARK   11  A    between atoms: C_18  and  C_20
REMARK                            x       y       z     vdW  Elec       q    Type
REMARK                         _______ _______ _______ _____ _____    ______ ____
ROOT
ATOM      1  C   UNL     1       2.938   3.757  19.622  0.00  0.00    +0.000 A 
ATOM      2  N   UNL     1       2.396   2.606  19.165  0.00  0.00    +0.000 NA
ATOM      3  N   UNL     1       2.897   2.036  18.044  0.00  0.00    +0.000 NA
ATOM      4  C   UNL     1       3.920   2.652  17.421  0.00  0.00    +0.000 A 
ATOM      5  C   UNL     1       4.457   3.831  17.906  0.00  0.00    +0.000 A 
ATOM      6  N   UNL     1       3.961   4.401  19.032  0.00  0.00    +0.000 NA
ENDROOT
BRANCH   5   7
ATOM      7  C   UNL     1       5.572   4.517  17.238  0.00  0.00    +0.000 A 
ATOM      8  C   UNL     1       6.391   5.422  17.893  0.00  0.00    +0.000 A 
ATOM      9  N   UNL     1       7.405   6.036  17.252  0.00  0.00    +0.000 NA
ATOM     10  N   UNL     1       7.602   5.756  15.940  0.00  0.00    +0.000 NA
ATOM     11  C   UNL     1       6.790   4.871  15.323  0.00  0.00    +0.000 A 
ATOM     12  N   UNL     1       5.773   4.230  15.928  0.00  0.00    +0.000 NA
BRANCH  11  13
ATOM     13  S   UNL     1       6.984   4.583  13.586  0.00  0.00    +0.000 S 
BRANCH  13  14
ATOM     14  C   UNL     1       5.506   3.560  13.262  0.00  0.00    +0.000 C 
BRANCH  14  15
ATOM     15  C   UNL     1       5.397   3.180  11.770  0.00  0.00    +0.000 C 
ATOM     16  C   UNL     1       5.894   1.759  11.482  0.00  0.00    +0.000 C 
ATOM     17  C   UNL     1       3.947   3.307  11.293  0.00  0.00    +0.000 C 
ENDBRANCH  14  15
ENDBRANCH  13  14
ENDBRANCH  11  13
ENDBRANCH   5   7
BRANCH   1  18
ATOM     18  S   UNL     1       2.250   4.481  21.081  0.00  0.00    +0.000 S 
BRANCH  18  19
ATOM     19  C   UNL     1       1.277   5.814  20.298  0.00  0.00    +0.000 C 
BRANCH  19  21
ATOM     20  C   UNL     1       2.203   7.752  18.985  0.00  0.00    +0.000 C 
ATOM     21  C   UNL     1       1.974   7.185  20.390  0.00  0.00    +0.000 C 
ATOM     22  C   UNL     1       1.193   8.208  21.220  0.00  0.00    +0.000 C 
ENDBRANCH  19  21
ENDBRANCH  18  19
ENDBRANCH   1  18
TORSDOF 7
ENDMDL
MODEL 2
REMARK VINA RESULT:      -6.7      1.695      3.157
REMARK  Name = 
REMARK  11 active torsions:
REMARK  status: ('A' for Active; 'I' for Inactive)
REMARK    1  A    between atoms: C_1  and  C_2
REMARK    2  A    between atoms: C_2  and  C_3
REMARK    3  A    between atoms: C_2  and  C_4
REMARK    4  A    between atoms: C_4  and  S_5
REMARK    5  A    between atoms: S_5  and  C_6
REMARK    6  A    between atoms: C_10  and  C_11
REMARK    7  A    between atoms: C_15  and  S_16
REMARK    8  A    between atoms: S_16  and  C_17
REMARK    9  A    between atoms: C_17  and  C_18
REMARK   10  A    between atoms: C_18  and  C_19
REMARK   11  A    between atoms: C_18  and  C_20
REMARK                            x       y       z     vdW  Elec       q    Type
REMARK                         _______ _______ _______ _____ _____    ______ ____
ROOT
ATOM      1  C   UNL     1       2.591   5.722  19.553  0.00  0.00    +0.000 A 
ATOM      2  N   UNL     1       1.885   6.873  19.481  0.00  0.00    +0.000 NA
ATOM      3  N   UNL     1       2.281   7.840  18.618  0.00  0.00    +0.000 NA
ATOM      4  C   UNL     1       3.376   7.612  17.868  0.00  0.00    +0.000 A 
ATOM      5  C   UNL     1       4.083   6.427  17.962  0.00  0.00    +0.000 A 
ATOM      6  N   UNL     1       3.687   5.455  18.820  0.00  0.00    +0.000 NA
ENDROOT
BRANCH   5   7
ATOM      7  C   UNL     1       5.281   6.163  17.152  0.00  0.00    +0.000 A 
ATOM      8  C   UNL     1       6.412   6.960  17.212  0.00  0.00    +0.000 A 
ATOM      9  N   UNL     1       7.495   6.692  16.455  0.00  0.00    +0.000 NA
ATOM     10  N   UNL     1       7.449   5.626  15.619  0.00  0.00    +0.000 NA
ATOM     11  C   UNL     1       6.335   4.865  15.577  0.00  0.00    +0.000 A 
ATOM     12  N   UNL     1       5.237   5.092  16.322  0.00  0.00    +0.000 NA
BRANCH  11  13
ATOM     13  S   UNL     1       6.239   3.535  14.412  0.00  0.00    +0.000 S 
BRANCH  13  14
ATOM     14  C   UNL     1       5.134   4.281  13.161  0.00  0.00    +0.000 C 
BRANCH  14  15
ATOM     15  C   UNL     1       5.277   3.583  11.793  0.00  0.00    +0.000 C 
ATOM     16  C   UNL     1       6.156   2.329  11.855  0.00  0.00    +0.000 C 
ATOM     17  C   UNL     1       3.898   3.199  11.245  0.00  0.00    +0.000 C 
ENDBRANCH  14  15
ENDBRANCH  13  14
ENDBRANCH  11  13
ENDBRANCH   5   7
BRANCH   1  18
ATOM     18  S   UNL     1       2.055   4.488  20.701  0.00  0.00    +0.000 S 
BRANCH  18  19
ATOM     19  C   UNL     1       3.018   3.074  20.059  0.00  0.00    +0.000 C 
BRANCH  19  21
ATOM     20  C   UNL     1       0.711   2.575  19.182  0.00  0.00    +0.000 C 
ATOM     21  C   UNL     1       2.190   2.177  19.119  0.00  0.00    +0.000 C 
ATOM     22  C   UNL     1       2.659   2.230  17.662  0.00  0.00    +0.000 C 
ENDBRANCH  19  21
ENDBRANCH  18  19
ENDBRANCH   1  18
TORSDOF 7
ENDMDL
MODEL 3
REMARK VINA RESULT:      -6.7      1.756      7.203
REMARK  Name = 
REMARK  11 active torsions:
REMARK  status: ('A' for Active; 'I' for Inactive)
REMARK    1  A    between atoms: C_1  and  C_2
REMARK    2  A    between atoms: C_2  and  C_3
REMARK    3  A    between atoms: C_2  and  C_4
REMARK    4  A    between atoms: C_4  and  S_5
REMARK    5  A    between atoms: S_5  and  C_6
REMARK    6  A    between atoms: C_10  and  C_11
REMARK    7  A    between atoms: C_15  and  S_16
REMARK    8  A    between atoms: S_16  and  C_17
REMARK    9  A    between atoms: C_17  and  C_18
REMARK   10  A    between atoms: C_18  and  C_19
REMARK   11  A    between atoms: C_18  and  C_20
REMARK                            x       y       z     vdW  Elec       q    Type
REMARK                         _______ _______ _______ _____ _____    ______ ____
ROOT
ATOM      1  C   UNL     1       6.140   4.849  15.602  0.00  0.00    +0.000 A 
ATOM      2  N   UNL     1       7.277   5.581  15.595  0.00  0.00    +0.000 NA
ATOM      3  N   UNL     1       7.379   6.656  16.413  0.00  0.00    +0.000 NA
ATOM      4  C   UNL     1       6.328   6.956  17.200  0.00  0.00    +0.000 A 
ATOM      5  C   UNL     1       5.174   6.193  17.188  0.00  0.00    +0.000 A 
ATOM      6  N   UNL     1       5.071   5.113  16.375  0.00  0.00    +0.000 NA
ENDROOT
BRANCH   5   7
ATOM      7  C   UNL     1       4.018   6.508  18.040  0.00  0.00    +0.000 A 
ATOM      8  C   UNL     1       3.362   7.727  17.986  0.00  0.00    +0.000 A 
ATOM      9  N   UNL     1       2.305   7.986  18.781  0.00  0.00    +0.000 NA
ATOM     10  N   UNL     1       1.902   7.026  19.650  0.00  0.00    +0.000 NA
ATOM     11  C   UNL     1       2.557   5.846  19.684  0.00  0.00    +0.000 A 
ATOM     12  N   UNL     1       3.610   5.544  18.901  0.00  0.00    +0.000 NA
BRANCH  11  13
ATOM     13  S   UNL     1       2.093   4.633  20.888  0.00  0.00    +0.000 S 
BRANCH  13  14
ATOM     14  C   UNL     1       3.061   3.202  20.292  0.00  0.00    +0.000 C 
BRANCH  14  15
ATOM     15  C   UNL     1       2.200   2.259  19.426  0.00  0.00    +0.000 C 
ATOM     16  C   UNL     1       0.757   2.750  19.267  0.00  0.00    +0.000 C 
ATOM     17  C   UNL     1       2.826   2.093  18.037  0.00  0.00    +0.000 C 
ENDBRANCH  14  15
ENDBRANCH  13  14
ENDBRANCH  11  13
ENDBRANCH   5   7
BRANCH   1  18
ATOM     18  S   UNL     1       6.036   3.461  14.511  0.00  0.00    +0.000 S 
BRANCH  18  19
ATOM     19  C   UNL     1       6.871   4.187  13.057  0.00  0.00    +0.000 C 
BRANCH  19  21
ATOM     20  C   UNL     1       7.147   2.328  11.382  0.00  0.00    +0.000 C 
ATOM     21  C   UNL     1       6.359   3.597  11.729  0.00  0.00    +0.000 C 
ATOM     22  C   UNL     1       4.864   3.266  11.748  0.00  0.00    +0.000 C 
ENDBRANCH  19  21
ENDBRANCH  18  19
ENDBRANCH   1  18
TORSDOF 7
ENDMDL
MODEL 4
REMARK VINA RESULT:      -6.7      1.788      2.917
REMARK  Name = 
REMARK  11 active torsions:
REMARK  status: ('A' for Active; 'I' for Inactive)
REMARK    1  A    between atoms: C_1  and  C_2
REMARK    2  A    between atoms: C_2  and  C_3
REMARK    3  A    between atoms: C_2  and  C_4
REMARK    4  A    between atoms: C_4  and  S_5
REMARK    5  A    between atoms: S_5  and  C_6
REMARK    6  A    between atoms: C_10  and  C_11
REMARK    7  A    between atoms: C_15  and  S_16
REMARK    8  A    between atoms: S_16  and  C_17
REMARK    9  A    between atoms: C_17  and  C_18
REMARK   10  A    between atoms: C_18  and  C_19
REMARK   11  A    between atoms: C_18  and  C_20
REMARK                            x       y       z     vdW  Elec       q    Type
REMARK                         _______ _______ _______ _____ _____    ______ ____
ROOT
ATOM      1  C   UNL     1       2.804   5.093  20.093  0.00  0.00    +0.000 A 
ATOM      2  N   UNL     1       2.177   6.269  19.866  0.00  0.00    +0.000 NA
ATOM      3  N   UNL     1       2.708   7.142  18.976  0.00  0.00    +0.000 NA
ATOM      4  C   UNL     1       3.852   6.799  18.355  0.00  0.00    +0.000 A 
ATOM      5  C   UNL     1       4.476   5.590  18.606  0.00  0.00    +0.000 A 
ATOM      6  N   UNL     1       3.945   4.711  19.491  0.00  0.00    +0.000 NA
ENDROOT
BRANCH   5   7
ATOM      7  C   UNL     1       5.726   5.200  17.938  0.00  0.00    +0.000 A 
ATOM      8  C   UNL     1       6.864   4.835  18.638  0.00  0.00    +0.000 A 
ATOM      9  N   UNL     1       7.995   4.484  17.996  0.00  0.00    +0.000 NA
ATOM     10  N   UNL     1       8.001   4.507  16.640  0.00  0.00    +0.000 NA
ATOM     11  C   UNL     1       6.881   4.869  15.980  0.00  0.00    +0.000 A 
ATOM     12  N   UNL     1       5.728   5.216  16.582  0.00  0.00    +0.000 NA
BRANCH  11  13
ATOM     13  S   UNL     1       6.921   4.997  14.214  0.00  0.00    +0.000 S 
BRANCH  13  14
ATOM     14  C   UNL     1       5.452   3.997  13.785  0.00  0.00    +0.000 C 
BRANCH  14  15
ATOM     15  C   UNL     1       5.653   3.237  12.458  0.00  0.00    +0.000 C 
ATOM     16  C   UNL     1       4.443   3.342  11.524  0.00  0.00    +0.000 C 
ATOM     17  C   UNL     1       6.894   3.761  11.728  0.00  0.00    +0.000 C 
ENDBRANCH  14  15
ENDBRANCH  13  14
ENDBRANCH  11  13
ENDBRANCH   5   7
BRANCH   1  18
ATOM     18  S   UNL     1       2.092   3.984  21.272  0.00  0.00    +0.000 S 
BRANCH  18  19
ATOM     19  C   UNL     1       0.616   3.477  20.321  0.00  0.00    +0.000 C 
BRANCH  19  21
ATOM     20  C   UNL     1       1.202   3.445  17.873  0.00  0.00    +0.000 C 
ATOM     21  C   UNL     1       0.970   2.582  19.118  0.00  0.00    +0.000 C 
ATOM     22  C   UNL     1       2.204   1.707  19.356  0.00  0.00    +0.000 C 
ENDBRANCH  19  21
ENDBRANCH  18  19
ENDBRANCH   1  18
TORSDOF 7
ENDMDL
MODEL 5
REMARK VINA RESULT:      -6.7      5.408     10.573
REMARK  Name = 
REMARK  11 active torsions:
REMARK  status: ('A' for Active; 'I' for Inactive)
REMARK    1  A    between atoms: C_1  and  C_2
REMARK    2  A    between atoms: C_2  and  C_3
REMARK    3  A    between atoms: C_2  and  C_4
REMARK    4  A    between atoms: C_4  and  S_5
REMARK    5  A    between atoms: S_5  and  C_6
REMARK    6  A    between atoms: C_10  and  C_11
REMARK    7  A    between atoms: C_15  and  S_16
REMARK    8  A    between atoms: S_16  and  C_17
REMARK    9  A    between atoms: C_17  and  C_18
REMARK   10  A    between atoms: C_18  and  C_19
REMARK   11  A    between atoms: C_18  and  C_20
REMARK                            x       y       z     vdW  Elec       q    Type
REMARK                         _______ _______ _______ _____ _____    ______ ____
ROOT
ATOM      1  C   UNL     1       2.362   7.390  19.082  0.00  0.00    +0.000 A 
ATOM      2  N   UNL     1       2.401   7.950  17.852  0.00  0.00    +0.000 NA
ATOM      3  N   UNL     1       1.850   9.173  17.663  0.00  0.00    +0.000 NA
ATOM      4  C   UNL     1       1.274   9.780  18.718  0.00  0.00    +0.000 A 
ATOM      5  C   UNL     1       1.244   9.186  19.967  0.00  0.00    +0.000 A 
ATOM      6  N   UNL     1       1.801   7.964  20.161  0.00  0.00    +0.000 NA
ENDROOT
BRANCH   5   7
ATOM      7  C   UNL     1       0.619   9.834  21.128  0.00  0.00    +0.000 A 
ATOM      8  C   UNL     1       0.589   9.248  22.383  0.00  0.00    +0.000 A 
ATOM      9  N   UNL     1       0.007   9.869  23.428  0.00  0.00    +0.000 NA
ATOM     10  N   UNL     1      -0.565  11.081  23.222  0.00  0.00    +0.000 NA
ATOM     11  C   UNL     1      -0.524  11.630  21.990  0.00  0.00    +0.000 A 
ATOM     12  N   UNL     1       0.055  11.050  20.923  0.00  0.00    +0.000 NA
BRANCH  11  13
ATOM     13  S   UNL     1      -1.358  13.166  21.699  0.00  0.00    +0.000 S 
BRANCH  13  14
ATOM     14  C   UNL     1      -1.697  13.679  23.420  0.00  0.00    +0.000 C 
BRANCH  14  15
ATOM     15  C   UNL     1      -3.212  13.804  23.684  0.00  0.00    +0.000 C 
ATOM     16  C   UNL     1      -3.827  12.515  24.240  0.00  0.00    +0.000 C 
ATOM     17  C   UNL     1      -3.488  14.951  24.662  0.00  0.00    +0.000 C 
ENDBRANCH  14  15
ENDBRANCH  13  14
ENDBRANCH  11  13
ENDBRANCH   5   7
BRANCH   1  18
ATOM     18  S   UNL     1       3.079   5.787  19.290  0.00  0.00    +0.000 S 
BRANCH  18  19
ATOM     19  C   UNL     1       2.084   5.220  20.714  0.00  0.00    +0.000 C 
BRANCH  19  21
ATOM     20  C   UNL     1       1.326   3.678  18.875  0.00  0.00    +0.000 C 
ATOM     21  C   UNL     1       1.132   4.067  20.344  0.00  0.00    +0.000 C 
ATOM     22  C   UNL     1       1.317   2.823  21.219  0.00  0.00    +0.000 C 
ENDBRANCH  19  21
ENDBRANCH  18  19
ENDBRANCH   1  18
TORSDOF 7
ENDMDL
MODEL 6
REMARK VINA RESULT:      -6.6      2.021      3.096
REMARK  Name = 
REMARK  11 active torsions:
REMARK  status: ('A' for Active; 'I' for Inactive)
REMARK    1  A    between atoms: C_1  and  C_2
REMARK    2  A    between atoms: C_2  and  C_3
REMARK    3  A    between atoms: C_2  and  C_4
REMARK    4  A    between atoms: C_4  and  S_5
REMARK    5  A    between atoms: S_5  and  C_6
REMARK    6  A    between atoms: C_10  and  C_11
REMARK    7  A    between atoms: C_15  and  S_16
REMARK    8  A    between atoms: S_16  and  C_17
REMARK    9  A    between atoms: C_17  and  C_18
REMARK   10  A    between atoms: C_18  and  C_19
REMARK   11  A    between atoms: C_18  and  C_20
REMARK                            x       y       z     vdW  Elec       q    Type
REMARK                         _______ _______ _______ _____ _____    ______ ____
ROOT
ATOM      1  C   UNL     1       2.514   6.896  19.304  0.00  0.00    +0.000 A 
ATOM      2  N   UNL     1       2.040   7.909  18.545  0.00  0.00    +0.000 NA
ATOM      3  N   UNL     1       2.707   8.263  17.420  0.00  0.00    +0.000 NA
ATOM      4  C   UNL     1       3.830   7.586  17.108  0.00  0.00    +0.000 A 
ATOM      5  C   UNL     1       4.295   6.554  17.902  0.00  0.00    +0.000 A 
ATOM      6  N   UNL     1       3.627   6.193  19.026  0.00  0.00    +0.000 NA
ENDROOT
BRANCH   5   7
ATOM      7  C   UNL     1       5.519   5.807  17.578  0.00  0.00    +0.000 A 
ATOM      8  C   UNL     1       6.387   5.339  18.550  0.00  0.00    +0.000 A 
ATOM      9  N   UNL     1       7.502   4.657  18.219  0.00  0.00    +0.000 NA
ATOM     10  N   UNL     1       7.764   4.449  16.905  0.00  0.00    +0.000 NA
ATOM     11  C   UNL     1       6.904   4.916  15.976  0.00  0.00    +0.000 A 
ATOM     12  N   UNL     1       5.775   5.591  16.264  0.00  0.00    +0.000 NA
BRANCH  11  13
ATOM     13  S   UNL     1       7.299   4.730  14.260  0.00  0.00    +0.000 S 
BRANCH  13  14
ATOM     14  C   UNL     1       5.819   3.825  13.684  0.00  0.00    +0.000 C 
BRANCH  14  15
ATOM     15  C   UNL     1       5.831   3.637  12.153  0.00  0.00    +0.000 C 
ATOM     16  C   UNL     1       7.128   4.133  11.504  0.00  0.00    +0.000 C 
ATOM     17  C   UNL     1       5.629   2.161  11.797  0.00  0.00    +0.000 C 
ENDBRANCH  14  15
ENDBRANCH  13  14
ENDBRANCH  11  13
ENDBRANCH   5   7
BRANCH   1  18
ATOM     18  S   UNL     1       1.625   6.470  20.772  0.00  0.00    +0.000 S 
BRANCH  18  19
ATOM     19  C   UNL     1       2.278   4.781  21.013  0.00  0.00    +0.000 C 
BRANCH  19  21
ATOM     20  C   UNL     1       1.144   3.277  19.342  0.00  0.00    +0.000 C 
ATOM     21  C   UNL     1       1.199   3.699  20.814  0.00  0.00    +0.000 C 
ATOM     22  C   UNL     1       1.420   2.456  21.682  0.00  0.00    +0.000 C 
ENDBRANCH  19  21
ENDBRANCH  18  19
ENDBRANCH   1  18
TORSDOF 7
ENDMDL
MODEL 7
REMARK VINA RESULT:      -6.6      1.223      1.464
REMARK  Name = 
REMARK  11 active torsions:
REMARK  status: ('A' for Active; 'I' for Inactive)
REMARK    1  A    between atoms: C_1  and  C_2
REMARK    2  A    between atoms: C_2  and  C_3
REMARK    3  A    between atoms: C_2  and  C_4
REMARK    4  A    between atoms: C_4  and  S_5
REMARK    5  A    between atoms: S_5  and  C_6
REMARK    6  A    between atoms: C_10  and  C_11
REMARK    7  A    between atoms: C_15  and  S_16
REMARK    8  A    between atoms: S_16  and  C_17
REMARK    9  A    between atoms: C_17  and  C_18
REMARK   10  A    between atoms: C_18  and  C_19
REMARK   11  A    between atoms: C_18  and  C_20
REMARK                            x       y       z     vdW  Elec       q    Type
REMARK                         _______ _______ _______ _____ _____    ______ ____
ROOT
ATOM      1  C   UNL     1       2.058   4.834  19.428  0.00  0.00    +0.000 A 
ATOM      2  N   UNL     1       1.211   3.957  18.844  0.00  0.00    +0.000 NA
ATOM      3  N   UNL     1       1.662   3.168  17.840  0.00  0.00    +0.000 NA
ATOM      4  C   UNL     1       2.948   3.298  17.458  0.00  0.00    +0.000 A 
ATOM      5  C   UNL     1       3.795   4.205  18.070  0.00  0.00    +0.000 A 
ATOM      6  N   UNL     1       3.348   4.992  19.080  0.00  0.00    +0.000 NA
ENDROOT
BRANCH   5   7
ATOM      7  C   UNL     1       5.199   4.360  17.665  0.00  0.00    +0.000 A 
ATOM      8  C   UNL     1       6.234   4.453  18.581  0.00  0.00    +0.000 A 
ATOM      9  N   UNL     1       7.512   4.597  18.177  0.00  0.00    +0.000 NA
ATOM     10  N   UNL     1       7.764   4.660  16.847  0.00  0.00    +0.000 NA
ATOM     11  C   UNL     1       6.739   4.569  15.973  0.00  0.00    +0.000 A 
ATOM     12  N   UNL     1       5.451   4.415  16.334  0.00  0.00    +0.000 NA
BRANCH  11  13
ATOM     13  S   UNL     1       7.058   4.753  14.241  0.00  0.00    +0.000 S 
BRANCH  13  14
ATOM     14  C   UNL     1       5.778   3.644  13.557  0.00  0.00    +0.000 C 
BRANCH  14  15
ATOM     15  C   UNL     1       5.901   3.515  12.025  0.00  0.00    +0.000 C 
ATOM     16  C   UNL     1       7.284   3.922  11.504  0.00  0.00    +0.000 C 
ATOM     17  C   UNL     1       5.606   2.078  11.586  0.00  0.00    +0.000 C 
ENDBRANCH  14  15
ENDBRANCH  13  14
ENDBRANCH  11  13
ENDBRANCH   5   7
BRANCH   1  18
ATOM     18  S   UNL     1       1.432   5.859  20.726  0.00  0.00    +0.000 S 
BRANCH  18  19
ATOM     19  C   UNL     1       1.964   7.483  20.080  0.00  0.00    +0.000 C 
BRANCH  19  21
ATOM     20  C   UNL     1       0.939   9.766  19.806  0.00  0.00    +0.000 C 
ATOM     21  C   UNL     1       1.283   8.658  20.808  0.00  0.00    +0.000 C 
ATOM     22  C   UNL     1       0.010   8.251  21.557  0.00  0.00    +0.000 C 
ENDBRANCH  19  21
ENDBRANCH  18  19
ENDBRANCH   1  18
TORSDOF 7
ENDMDL
MODEL 8
REMARK VINA RESULT:      -6.6      1.661      7.585
REMARK  Name = 
REMARK  11 active torsions:
REMARK  status: ('A' for Active; 'I' for Inactive)
REMARK    1  A    between atoms: C_1  and  C_2
REMARK    2  A    between atoms: C_2  and  C_3
REMARK    3  A    between atoms: C_2  and  C_4
REMARK    4  A    between atoms: C_4  and  S_5
REMARK    5  A    between atoms: S_5  and  C_6
REMARK    6  A    between atoms: C_10  and  C_11
REMARK    7  A    between atoms: C_15  and  S_16
REMARK    8  A    between atoms: S_16  and  C_17
REMARK    9  A    between atoms: C_17  and  C_18
REMARK   10  A    between atoms: C_18  and  C_19
REMARK   11  A    between atoms: C_18  and  C_20
REMARK                            x       y       z     vdW  Elec       q    Type
REMARK                         _______ _______ _______ _____ _____    ______ ____
ROOT
ATOM      1  C   UNL     1       6.716   4.783  16.233  0.00  0.00    +0.000 A 
ATOM      2  N   UNL     1       7.845   4.630  16.960  0.00  0.00    +0.000 NA
ATOM      3  N   UNL     1       7.755   4.493  18.304  0.00  0.00    +0.000 NA
ATOM      4  C   UNL     1       6.530   4.524  18.865  0.00  0.00    +0.000 A 
ATOM      5  C   UNL     1       5.389   4.684  18.099  0.00  0.00    +0.000 A 
ATOM      6  N   UNL     1       5.476   4.815  16.752  0.00  0.00    +0.000 NA
ENDROOT
BRANCH   5   7
ATOM      7  C   UNL     1       4.046   4.722  18.695  0.00  0.00    +0.000 A 
ATOM      8  C   UNL     1       3.201   3.624  18.699  0.00  0.00    +0.000 A 
ATOM      9  N   UNL     1       1.974   3.691  19.253  0.00  0.00    +0.000 NA
ATOM     10  N   UNL     1       1.576   4.866  19.799  0.00  0.00    +0.000 NA
ATOM     11  C   UNL     1       2.416   5.923  19.781  0.00  0.00    +0.000 A 
ATOM     12  N   UNL     1       3.652   5.895  19.248  0.00  0.00    +0.000 NA
BRANCH  11  13
ATOM     13  S   UNL     1       1.857   7.484  20.403  0.00  0.00    +0.000 S 
BRANCH  13  14
ATOM     14  C   UNL     1       1.865   8.466  18.861  0.00  0.00    +0.000 C 
BRANCH  14  15
ATOM     15  C   UNL     1       0.975   9.720  18.986  0.00  0.00    +0.000 C 
ATOM     16  C   UNL     1      -0.087   9.807  17.884  0.00  0.00    +0.000 C 
ATOM     17  C   UNL     1       0.280   9.746  20.351  0.00  0.00    +0.000 C 
ENDBRANCH  14  15
ENDBRANCH  13  14
ENDBRANCH  11  13
ENDBRANCH   5   7
BRANCH   1  18
ATOM     18  S   UNL     1       6.873   4.972  14.481  0.00  0.00    +0.000 S 
BRANCH  18  19
ATOM     19  C   UNL     1       5.619   3.751  13.956  0.00  0.00    +0.000 C 
BRANCH  19  21
ATOM     20  C   UNL     1       4.561   3.478  11.688  0.00  0.00    +0.000 C 
ATOM     21  C   UNL     1       5.838   3.268  12.510  0.00  0.00    +0.000 C 
ATOM     22  C   UNL     1       7.005   3.968  11.806  0.00  0.00    +0.000 C 
ENDBRANCH  19  21
ENDBRANCH  18  19
ENDBRANCH   1  18
TORSDOF 7
ENDMDL
MODEL 9
REMARK VINA RESULT:      -6.5      0.660      7.761
REMARK  Name = 
REMARK  11 active torsions:
REMARK  status: ('A' for Active; 'I' for Inactive)
REMARK    1  A    between atoms: C_1  and  C_2
REMARK    2  A    between atoms: C_2  and  C_3
REMARK    3  A    between atoms: C_2  and  C_4
REMARK    4  A    between atoms: C_4  and  S_5
REMARK    5  A    between atoms: S_5  and  C_6
REMARK    6  A    between atoms: C_10  and  C_11
REMARK    7  A    between atoms: C_15  and  S_16
REMARK    8  A    between atoms: S_16  and  C_17
REMARK    9  A    between atoms: C_17  and  C_18
REMARK   10  A    between atoms: C_18  and  C_19
REMARK   11  A    between atoms: C_18  and  C_20
REMARK                            x       y       z     vdW  Elec       q    Type
REMARK                         _______ _______ _______ _____ _____    ______ ____
ROOT
ATOM      1  C   UNL     1       6.658   4.960  15.418  0.00  0.00    +0.000 A 
ATOM      2  N   UNL     1       7.413   5.959  15.929  0.00  0.00    +0.000 NA
ATOM      3  N   UNL     1       7.157   6.408  17.181  0.00  0.00    +0.000 NA
ATOM      4  C   UNL     1       6.146   5.840  17.866  0.00  0.00    +0.000 A 
ATOM      5  C   UNL     1       5.387   4.820  17.320  0.00  0.00    +0.000 A 
ATOM      6  N   UNL     1       5.644   4.364  16.069  0.00  0.00    +0.000 NA
ENDROOT
BRANCH   5   7
ATOM      7  C   UNL     1       4.279   4.190  18.053  0.00  0.00    +0.000 A 
ATOM      8  C   UNL     1       3.903   2.873  17.848  0.00  0.00    +0.000 A 
ATOM      9  N   UNL     1       2.882   2.325  18.536  0.00  0.00    +0.000 NA
ATOM     10  N   UNL     1       2.219   3.098  19.431  0.00  0.00    +0.000 NA
ATOM     11  C   UNL     1       2.603   4.379  19.612  0.00  0.00    +0.000 A 
ATOM     12  N   UNL     1       3.622   4.962  18.953  0.00  0.00    +0.000 NA
BRANCH  11  13
ATOM     13  S   UNL     1       1.672   5.416  20.705  0.00  0.00    +0.000 S 
BRANCH  13  14
ATOM     14  C   UNL     1       2.209   7.062  20.123  0.00  0.00    +0.000 C 
BRANCH  14  15
ATOM     15  C   UNL     1       1.186   8.155  20.496  0.00  0.00    +0.000 C 
ATOM     16  C   UNL     1       1.425   8.742  21.892  0.00  0.00    +0.000 C 
ATOM     17  C   UNL     1       1.219   9.289  19.466  0.00  0.00    +0.000 C 
ENDBRANCH  14  15
ENDBRANCH  13  14
ENDBRANCH  11  13
ENDBRANCH   5   7
BRANCH   1  18
ATOM     18  S   UNL     1       7.011   4.407  13.775  0.00  0.00    +0.000 S 
BRANCH  18  19
ATOM     19  C   UNL     1       5.331   3.875  13.294  0.00  0.00    +0.000 C 
BRANCH  19  21
ATOM     20  C   UNL     1       5.950   2.099  11.621  0.00  0.00    +0.000 C 
ATOM     21  C   UNL     1       5.250   3.448  11.816  0.00  0.00    +0.000 C 
ATOM     22  C   UNL     1       3.813   3.345  11.293  0.00  0.00    +0.000 C 
ENDBRANCH  19  21
ENDBRANCH  18  19
ENDBRANCH   1  18
TORSDOF 7
ENDMDL
