MODEL 1
REMARK VINA RESULT:      -6.8      0.000      0.000
REMARK  Name = 
REMARK  5 active torsions:
REMARK  status: ('A' for Active; 'I' for Inactive)
REMARK    1  A    between atoms: C_1  and  O_2
REMARK    2  A    between atoms: O_2  and  C_3
REMARK    3  A    between atoms: C_8  and  S_9
REMARK    4  A    between atoms: S_9  and  C_10
REMARK    5  A    between atoms: C_15  and  N_16
REMARK                            x       y       z     vdW  Elec       q    Type
REMARK                         _______ _______ _______ _____ _____    ______ ____
ROOT
ATOM      1  C   UNL     1       2.693   6.123  18.826  0.00  0.00    +0.000 A 
ATOM      2  C   UNL     1       2.474   7.495  19.047  0.00  0.00    +0.000 A 
ATOM      3  C   UNL     1       1.787   7.937  20.175  0.00  0.00    +0.000 A 
ATOM      4  C   UNL     1       1.297   7.014  21.091  0.00  0.00    +0.000 A 
ATOM      5  C   UNL     1       1.492   5.646  20.885  0.00  0.00    +0.000 A 
ATOM      6  C   UNL     1       2.192   5.155  19.755  0.00  0.00    +0.000 A 
ENDROOT
BRANCH   6   7
ATOM      7  N   UNL     1       2.345   3.717  19.591  0.00  0.00    +0.000 N 
ATOM      8  C   UNL     1       1.493   2.948  18.689  0.00  0.00    +0.000 C 
ATOM      9  C   UNL     1       2.384   2.111  17.753  0.00  0.00    +0.000 C 
ATOM     10  N   UNL     1       3.301   1.270  18.535  0.00  0.00    +0.000 NA
ATOM     11  C   UNL     1       4.159   2.096  19.393  0.00  0.00    +0.000 C 
ATOM     12  C   UNL     1       3.284   2.895  20.346  0.00  0.00    +0.000 C 
ATOM     13  H   UNL     1       3.910   0.723  17.884  0.00  0.00    +0.000 HD
ENDBRANCH   6   7
BRANCH   1  14
ATOM     14  S   UNL     1       3.409   5.673  17.243  0.00  0.00    +0.000 S 
BRANCH  14  20
ATOM     15  C   UNL     1       6.113   4.732  16.690  0.00  0.00    +0.000 A 
ATOM     16  C   UNL     1       7.451   4.598  17.138  0.00  0.00    +0.000 A 
ATOM     17  C   UNL     1       7.814   4.973  18.430  0.00  0.00    +0.000 A 
ATOM     18  C   UNL     1       6.859   5.476  19.305  0.00  0.00    +0.000 A 
ATOM     19  C   UNL     1       5.539   5.613  18.889  0.00  0.00    +0.000 A 
ATOM     20  C   UNL     1       5.144   5.253  17.594  0.00  0.00    +0.000 A 
BRANCH  15  22
ATOM     21  C   UNL     1       6.654   4.202  14.347  0.00  0.00    +0.000 C 
ATOM     22  O   UNL     1       5.777   4.375  15.413  0.00  0.00    +0.000 OA
ENDBRANCH  15  22
ENDBRANCH  14  20
ENDBRANCH   1  14
TORSDOF 4
ENDMDL
MODEL 2
REMARK VINA RESULT:      -6.6      1.682      2.833
REMARK  Name = 
REMARK  5 active torsions:
REMARK  status: ('A' for Active; 'I' for Inactive)
REMARK    1  A    between atoms: C_1  and  O_2
REMARK    2  A    between atoms: O_2  and  C_3
REMARK    3  A    between atoms: C_8  and  S_9
REMARK    4  A    between atoms: S_9  and  C_10
REMARK    5  A    between atoms: C_15  and  N_16
REMARK                            x       y       z     vdW  Elec       q    Type
REMARK                         _______ _______ _______ _____ _____    ______ ____
ROOT
ATOM      1  C   UNL     1       3.700   5.845  18.267  0.00  0.00    +0.000 A 
ATOM      2  C   UNL     1       4.146   6.967  17.545  0.00  0.00    +0.000 A 
ATOM      3  C   UNL     1       3.390   8.137  17.502  0.00  0.00    +0.000 A 
ATOM      4  C   UNL     1       2.173   8.198  18.170  0.00  0.00    +0.000 A 
ATOM      5  C   UNL     1       1.706   7.092  18.883  0.00  0.00    +0.000 A 
ATOM      6  C   UNL     1       2.446   5.886  18.957  0.00  0.00    +0.000 A 
ENDROOT
BRANCH   6   7
ATOM      7  N   UNL     1       1.893   4.764  19.703  0.00  0.00    +0.000 N 
ATOM      8  C   UNL     1       1.111   3.716  19.054  0.00  0.00    +0.000 C 
ATOM      9  C   UNL     1       1.700   2.346  19.432  0.00  0.00    +0.000 C 
ATOM     10  N   UNL     1       1.759   2.199  20.894  0.00  0.00    +0.000 NA
ATOM     11  C   UNL     1       2.590   3.253  21.489  0.00  0.00    +0.000 C 
ATOM     12  C   UNL     1       1.988   4.607  21.150  0.00  0.00    +0.000 C 
ATOM     13  H   UNL     1       2.179   1.271  21.133  0.00  0.00    +0.000 HD
ENDBRANCH   6   7
BRANCH   1  14
ATOM     14  S   UNL     1       4.659   4.340  18.077  0.00  0.00    +0.000 S 
BRANCH  14  20
ATOM     15  C   UNL     1       6.988   4.956  16.436  0.00  0.00    +0.000 A 
ATOM     16  C   UNL     1       7.587   4.945  15.151  0.00  0.00    +0.000 A 
ATOM     17  C   UNL     1       6.862   4.555  14.028  0.00  0.00    +0.000 A 
ATOM     18  C   UNL     1       5.530   4.179  14.153  0.00  0.00    +0.000 A 
ATOM     19  C   UNL     1       4.920   4.185  15.402  0.00  0.00    +0.000 A 
ATOM     20  C   UNL     1       5.624   4.565  16.552  0.00  0.00    +0.000 A 
BRANCH  15  22
ATOM     21  C   UNL     1       7.696   6.569  18.156  0.00  0.00    +0.000 C 
ATOM     22  O   UNL     1       7.720   5.327  17.531  0.00  0.00    +0.000 OA
ENDBRANCH  15  22
ENDBRANCH  14  20
ENDBRANCH   1  14
TORSDOF 4
ENDMDL
MODEL 3
REMARK VINA RESULT:      -6.5      2.094      4.268
REMARK  Name = 
REMARK  5 active torsions:
REMARK  status: ('A' for Active; 'I' for Inactive)
REMARK    1  A    between atoms: C_1  and  O_2
REMARK    2  A    between atoms: O_2  and  C_3
REMARK    3  A    between atoms: C_8  and  S_9
REMARK    4  A    between atoms: S_9  and  C_10
REMARK    5  A    between atoms: C_15  and  N_16
REMARK                            x       y       z     vdW  Elec       q    Type
REMARK                         _______ _______ _______ _____ _____    ______ ____
ROOT
ATOM      1  C   UNL     1       3.580   4.380  19.327  0.00  0.00    +0.000 A 
ATOM      2  C   UNL     1       3.470   2.982  19.438  0.00  0.00    +0.000 A 
ATOM      3  C   UNL     1       2.238   2.378  19.679  0.00  0.00    +0.000 A 
ATOM      4  C   UNL     1       1.101   3.163  19.825  0.00  0.00    +0.000 A 
ATOM      5  C   UNL     1       1.189   4.554  19.731  0.00  0.00    +0.000 A 
ATOM      6  C   UNL     1       2.421   5.207  19.480  0.00  0.00    +0.000 A 
ENDROOT
BRANCH   6   7
ATOM      7  N   UNL     1       2.446   6.661  19.412  0.00  0.00    +0.000 N 
ATOM      8  C   UNL     1       2.916   7.369  18.224  0.00  0.00    +0.000 C 
ATOM      9  C   UNL     1       1.849   8.395  17.800  0.00  0.00    +0.000 C 
ATOM     10  N   UNL     1       1.530   9.295  18.919  0.00  0.00    +0.000 NA
ATOM     11  C   UNL     1       1.026   8.534  20.069  0.00  0.00    +0.000 C 
ATOM     12  C   UNL     1       2.093   7.547  20.515  0.00  0.00    +0.000 C 
ATOM     13  H   UNL     1       0.791   9.972  18.619  0.00  0.00    +0.000 HD
ENDBRANCH   6   7
BRANCH   1  14
ATOM     14  S   UNL     1       5.243   5.045  19.219  0.00  0.00    +0.000 S 
BRANCH  14  20
ATOM     15  C   UNL     1       6.834   5.526  16.824  0.00  0.00    +0.000 A 
ATOM     16  C   UNL     1       7.053   5.242  15.453  0.00  0.00    +0.000 A 
ATOM     17  C   UNL     1       6.170   4.434  14.740  0.00  0.00    +0.000 A 
ATOM     18  C   UNL     1       5.049   3.903  15.366  0.00  0.00    +0.000 A 
ATOM     19  C   UNL     1       4.812   4.171  16.710  0.00  0.00    +0.000 A 
ATOM     20  C   UNL     1       5.685   4.973  17.456  0.00  0.00    +0.000 A 
BRANCH  15  22
ATOM     21  C   UNL     1       7.715   7.697  17.582  0.00  0.00    +0.000 C 
ATOM     22  O   UNL     1       7.720   6.308  17.513  0.00  0.00    +0.000 OA
ENDBRANCH  15  22
ENDBRANCH  14  20
ENDBRANCH   1  14
TORSDOF 4
ENDMDL
MODEL 4
REMARK VINA RESULT:      -6.5      2.513      5.135
REMARK  Name = 
REMARK  5 active torsions:
REMARK  status: ('A' for Active; 'I' for Inactive)
REMARK    1  A    between atoms: C_1  and  O_2
REMARK    2  A    between atoms: O_2  and  C_3
REMARK    3  A    between atoms: C_8  and  S_9
REMARK    4  A    between atoms: S_9  and  C_10
REMARK    5  A    between atoms: C_15  and  N_16
REMARK                            x       y       z     vdW  Elec       q    Type
REMARK                         _______ _______ _______ _____ _____    ______ ____
ROOT
ATOM      1  C   UNL     1       3.308   5.448  17.647  0.00  0.00    +0.000 A 
ATOM      2  C   UNL     1       2.074   5.930  18.117  0.00  0.00    +0.000 A 
ATOM      3  C   UNL     1       1.839   7.299  18.236  0.00  0.00    +0.000 A 
ATOM      4  C   UNL     1       2.839   8.203  17.898  0.00  0.00    +0.000 A 
ATOM      5  C   UNL     1       4.077   7.745  17.441  0.00  0.00    +0.000 A 
ATOM      6  C   UNL     1       4.354   6.363  17.299  0.00  0.00    +0.000 A 
ENDROOT
BRANCH   6   7
ATOM      7  N   UNL     1       5.671   5.952  16.833  0.00  0.00    +0.000 N 
ATOM      8  C   UNL     1       6.849   6.021  17.693  0.00  0.00    +0.000 C 
ATOM      9  C   UNL     1       7.554   4.653  17.685  0.00  0.00    +0.000 C 
ATOM     10  N   UNL     1       7.868   4.246  16.307  0.00  0.00    +0.000 NA
ATOM     11  C   UNL     1       6.645   4.154  15.501  0.00  0.00    +0.000 C 
ATOM     12  C   UNL     1       5.967   5.515  15.474  0.00  0.00    +0.000 C 
ATOM     13  H   UNL     1       8.329   3.307  16.319  0.00  0.00    +0.000 HD
ENDBRANCH   6   7
BRANCH   1  14
ATOM     14  S   UNL     1       3.557   3.672  17.732  0.00  0.00    +0.000 S 
BRANCH  14  20
ATOM     15  C   UNL     1       3.433   2.621  20.448  0.00  0.00    +0.000 A 
ATOM     16  C   UNL     1       2.657   2.395  21.612  0.00  0.00    +0.000 A 
ATOM     17  C   UNL     1       1.294   2.685  21.631  0.00  0.00    +0.000 A 
ATOM     18  C   UNL     1       0.674   3.192  20.496  0.00  0.00    +0.000 A 
ATOM     19  C   UNL     1       1.414   3.419  19.342  0.00  0.00    +0.000 A 
ATOM     20  C   UNL     1       2.787   3.146  19.294  0.00  0.00    +0.000 A 
BRANCH  15  22
ATOM     21  C   UNL     1       5.380   1.209  20.975  0.00  0.00    +0.000 C 
ATOM     22  O   UNL     1       4.774   2.346  20.453  0.00  0.00    +0.000 OA
ENDBRANCH  15  22
ENDBRANCH  14  20
ENDBRANCH   1  14
TORSDOF 4
ENDMDL
MODEL 5
REMARK VINA RESULT:      -6.5      1.188      1.420
REMARK  Name = 
REMARK  5 active torsions:
REMARK  status: ('A' for Active; 'I' for Inactive)
REMARK    1  A    between atoms: C_1  and  O_2
REMARK    2  A    between atoms: O_2  and  C_3
REMARK    3  A    between atoms: C_8  and  S_9
REMARK    4  A    between atoms: S_9  and  C_10
REMARK    5  A    between atoms: C_15  and  N_16
REMARK                            x       y       z     vdW  Elec       q    Type
REMARK                         _______ _______ _______ _____ _____    ______ ____
ROOT
ATOM      1  C   UNL     1       2.752   6.226  18.546  0.00  0.00    +0.000 A 
ATOM      2  C   UNL     1       2.889   7.497  17.960  0.00  0.00    +0.000 A 
ATOM      3  C   UNL     1       2.334   8.625  18.562  0.00  0.00    +0.000 A 
ATOM      4  C   UNL     1       1.624   8.496  19.749  0.00  0.00    +0.000 A 
ATOM      5  C   UNL     1       1.465   7.242  20.341  0.00  0.00    +0.000 A 
ATOM      6  C   UNL     1       2.019   6.071  19.766  0.00  0.00    +0.000 A 
ENDROOT
BRANCH   6   7
ATOM      7  N   UNL     1       1.801   4.791  20.426  0.00  0.00    +0.000 N 
ATOM      8  C   UNL     1       0.635   3.962  20.136  0.00  0.00    +0.000 C 
ATOM      9  C   UNL     1       1.107   2.538  19.793  0.00  0.00    +0.000 C 
ATOM     10  N   UNL     1       1.941   2.000  20.877  0.00  0.00    +0.000 NA
ATOM     11  C   UNL     1       3.118   2.849  21.097  0.00  0.00    +0.000 C 
ATOM     12  C   UNL     1       2.655   4.247  21.475  0.00  0.00    +0.000 C 
ATOM     13  H   UNL     1       2.268   1.040  20.619  0.00  0.00    +0.000 HD
ENDBRANCH   6   7
BRANCH   1  14
ATOM     14  S   UNL     1       3.333   4.832  17.575  0.00  0.00    +0.000 S 
BRANCH  14  20
ATOM     15  C   UNL     1       6.127   4.388  16.872  0.00  0.00    +0.000 A 
ATOM     16  C   UNL     1       7.492   4.558  17.215  0.00  0.00    +0.000 A 
ATOM     17  C   UNL     1       7.858   5.113  18.439  0.00  0.00    +0.000 A 
ATOM     18  C   UNL     1       6.882   5.500  19.349  0.00  0.00    +0.000 A 
ATOM     19  C   UNL     1       5.537   5.340  19.036  0.00  0.00    +0.000 A 
ATOM     20  C   UNL     1       5.137   4.792  17.811  0.00  0.00    +0.000 A 
BRANCH  15  22
ATOM     21  C   UNL     1       6.350   4.175  14.429  0.00  0.00    +0.000 C 
ATOM     22  O   UNL     1       5.785   3.855  15.659  0.00  0.00    +0.000 OA
ENDBRANCH  15  22
ENDBRANCH  14  20
ENDBRANCH   1  14
TORSDOF 4
ENDMDL
MODEL 6
REMARK VINA RESULT:      -6.4      2.643      5.523
REMARK  Name = 
REMARK  5 active torsions:
REMARK  status: ('A' for Active; 'I' for Inactive)
REMARK    1  A    between atoms: C_1  and  O_2
REMARK    2  A    between atoms: O_2  and  C_3
REMARK    3  A    between atoms: C_8  and  S_9
REMARK    4  A    between atoms: S_9  and  C_10
REMARK    5  A    between atoms: C_15  and  N_16
REMARK                            x       y       z     vdW  Elec       q    Type
REMARK                         _______ _______ _______ _____ _____    ______ ____
ROOT
ATOM      1  C   UNL     1       2.991   4.910  17.912  0.00  0.00    +0.000 A 
ATOM      2  C   UNL     1       1.687   4.522  18.268  0.00  0.00    +0.000 A 
ATOM      3  C   UNL     1       1.341   3.176  18.362  0.00  0.00    +0.000 A 
ATOM      4  C   UNL     1       2.290   2.198  18.089  0.00  0.00    +0.000 A 
ATOM      5  C   UNL     1       3.588   2.561  17.722  0.00  0.00    +0.000 A 
ATOM      6  C   UNL     1       3.982   3.918  17.622  0.00  0.00    +0.000 A 
ENDROOT
BRANCH   6   7
ATOM      7  N   UNL     1       5.346   4.227  17.217  0.00  0.00    +0.000 N 
ATOM      8  C   UNL     1       5.823   3.979  15.859  0.00  0.00    +0.000 C 
ATOM      9  C   UNL     1       6.463   5.267  15.311  0.00  0.00    +0.000 C 
ATOM     10  N   UNL     1       7.522   5.738  16.217  0.00  0.00    +0.000 NA
ATOM     11  C   UNL     1       6.979   6.010  17.553  0.00  0.00    +0.000 C 
ATOM     12  C   UNL     1       6.380   4.730  18.114  0.00  0.00    +0.000 C 
ATOM     13  H   UNL     1       7.932   6.623  15.839  0.00  0.00    +0.000 HD
ENDBRANCH   6   7
BRANCH   1  14
ATOM     14  S   UNL     1       3.255   6.662  17.628  0.00  0.00    +0.000 S 
BRANCH  14  20
ATOM     15  C   UNL     1       1.765   8.804  18.930  0.00  0.00    +0.000 A 
ATOM     16  C   UNL     1       1.003   9.228  20.046  0.00  0.00    +0.000 A 
ATOM     17  C   UNL     1       0.834   8.399  21.153  0.00  0.00    +0.000 A 
ATOM     18  C   UNL     1       1.426   7.142  21.180  0.00  0.00    +0.000 A 
ATOM     19  C   UNL     1       2.182   6.707  20.097  0.00  0.00    +0.000 A 
ATOM     20  C   UNL     1       2.363   7.513  18.967  0.00  0.00    +0.000 A 
BRANCH  15  22
ATOM     21  C   UNL     1       2.162  10.992  17.871  0.00  0.00    +0.000 C 
ATOM     22  O   UNL     1       1.907   9.625  17.844  0.00  0.00    +0.000 OA
ENDBRANCH  15  22
ENDBRANCH  14  20
ENDBRANCH   1  14
TORSDOF 4
ENDMDL
MODEL 7
REMARK VINA RESULT:      -6.4      2.879      5.949
REMARK  Name = 
REMARK  5 active torsions:
REMARK  status: ('A' for Active; 'I' for Inactive)
REMARK    1  A    between atoms: C_1  and  O_2
REMARK    2  A    between atoms: O_2  and  C_3
REMARK    3  A    between atoms: C_8  and  S_9
REMARK    4  A    between atoms: S_9  and  C_10
REMARK    5  A    between atoms: C_15  and  N_16
REMARK                            x       y       z     vdW  Elec       q    Type
REMARK                         _______ _______ _______ _____ _____    ______ ____
ROOT
ATOM      1  C   UNL     1       2.851   4.760  19.171  0.00  0.00    +0.000 A 
ATOM      2  C   UNL     1       1.639   4.077  19.379  0.00  0.00    +0.000 A 
ATOM      3  C   UNL     1       1.227   3.072  18.507  0.00  0.00    +0.000 A 
ATOM      4  C   UNL     1       2.012   2.743  17.409  0.00  0.00    +0.000 A 
ATOM      5  C   UNL     1       3.213   3.417  17.177  0.00  0.00    +0.000 A 
ATOM      6  C   UNL     1       3.673   4.441  18.042  0.00  0.00    +0.000 A 
ENDROOT
BRANCH   6   7
ATOM      7  N   UNL     1       4.926   5.116  17.733  0.00  0.00    +0.000 N 
ATOM      8  C   UNL     1       6.106   4.978  18.581  0.00  0.00    +0.000 C 
ATOM      9  C   UNL     1       7.304   4.566  17.706  0.00  0.00    +0.000 C 
ATOM     10  N   UNL     1       7.491   5.527  16.609  0.00  0.00    +0.000 NA
ATOM     11  C   UNL     1       6.291   5.595  15.767  0.00  0.00    +0.000 C 
ATOM     12  C   UNL     1       5.113   6.039  16.620  0.00  0.00    +0.000 C 
ATOM     13  H   UNL     1       8.297   5.222  16.015  0.00  0.00    +0.000 HD
ENDBRANCH   6   7
BRANCH   1  14
ATOM     14  S   UNL     1       3.171   6.165  20.241  0.00  0.00    +0.000 S 
BRANCH  14  20
ATOM     15  C   UNL     1       1.329   8.425  20.289  0.00  0.00    +0.000 A 
ATOM     16  C   UNL     1       0.734   9.502  19.587  0.00  0.00    +0.000 A 
ATOM     17  C   UNL     1       0.969   9.685  18.226  0.00  0.00    +0.000 A 
ATOM     18  C   UNL     1       1.786   8.800  17.534  0.00  0.00    +0.000 A 
ATOM     19  C   UNL     1       2.378   7.733  18.201  0.00  0.00    +0.000 A 
ATOM     20  C   UNL     1       2.168   7.527  19.570  0.00  0.00    +0.000 A 
BRANCH  15  22
ATOM     21  C   UNL     1       0.872   9.286  22.550  0.00  0.00    +0.000 C 
ATOM     22  O   UNL     1       1.100   8.269  21.629  0.00  0.00    +0.000 OA
ENDBRANCH  15  22
ENDBRANCH  14  20
ENDBRANCH   1  14
TORSDOF 4
ENDMDL
MODEL 8
REMARK VINA RESULT:      -6.4      2.683      5.619
REMARK  Name = 
REMARK  5 active torsions:
REMARK  status: ('A' for Active; 'I' for Inactive)
REMARK    1  A    between atoms: C_1  and  O_2
REMARK    2  A    between atoms: O_2  and  C_3
REMARK    3  A    between atoms: C_8  and  S_9
REMARK    4  A    between atoms: S_9  and  C_10
REMARK    5  A    between atoms: C_15  and  N_16
REMARK                            x       y       z     vdW  Elec       q    Type
REMARK                         _______ _______ _______ _____ _____    ______ ____
ROOT
ATOM      1  C   UNL     1       3.860   5.798  18.172  0.00  0.00    +0.000 A 
ATOM      2  C   UNL     1       4.610   6.691  17.387  0.00  0.00    +0.000 A 
ATOM      3  C   UNL     1       5.238   6.263  16.219  0.00  0.00    +0.000 A 
ATOM      4  C   UNL     1       5.135   4.934  15.827  0.00  0.00    +0.000 A 
ATOM      5  C   UNL     1       4.405   4.027  16.598  0.00  0.00    +0.000 A 
ATOM      6  C   UNL     1       3.746   4.423  17.788  0.00  0.00    +0.000 A 
ENDROOT
BRANCH   6   7
ATOM      7  N   UNL     1       3.016   3.424  18.555  0.00  0.00    +0.000 N 
ATOM      8  C   UNL     1       3.678   2.569  19.536  0.00  0.00    +0.000 C 
ATOM      9  C   UNL     1       2.916   2.655  20.870  0.00  0.00    +0.000 C 
ATOM     10  N   UNL     1       1.498   2.316  20.673  0.00  0.00    +0.000 NA
ATOM     11  C   UNL     1       0.874   3.231  19.710  0.00  0.00    +0.000 C 
ATOM     12  C   UNL     1       1.601   3.119  18.379  0.00  0.00    +0.000 C 
ATOM     13  H   UNL     1       0.992   2.398  21.585  0.00  0.00    +0.000 HD
ENDBRANCH   6   7
BRANCH   1  14
ATOM     14  S   UNL     1       3.273   6.420  19.750  0.00  0.00    +0.000 S 
BRANCH  14  20
ATOM     15  C   UNL     1       1.367   8.569  20.249  0.00  0.00    +0.000 A 
ATOM     16  C   UNL     1       0.629   9.661  19.730  0.00  0.00    +0.000 A 
ATOM     17  C   UNL     1       0.648   9.956  18.368  0.00  0.00    +0.000 A 
ATOM     18  C   UNL     1       1.389   9.169  17.495  0.00  0.00    +0.000 A 
ATOM     19  C   UNL     1       2.118   8.089  17.981  0.00  0.00    +0.000 A 
ATOM     20  C   UNL     1       2.125   7.772  19.345  0.00  0.00    +0.000 A 
BRANCH  15  22
ATOM     21  C   UNL     1       0.971   9.183  22.600  0.00  0.00    +0.000 C 
ATOM     22  O   UNL     1       1.349   8.304  21.591  0.00  0.00    +0.000 OA
ENDBRANCH  15  22
ENDBRANCH  14  20
ENDBRANCH   1  14
TORSDOF 4
ENDMDL
MODEL 9
REMARK VINA RESULT:      -6.3      0.783      1.341
REMARK  Name = 
REMARK  5 active torsions:
REMARK  status: ('A' for Active; 'I' for Inactive)
REMARK    1  A    between atoms: C_1  and  O_2
REMARK    2  A    between atoms: O_2  and  C_3
REMARK    3  A    between atoms: C_8  and  S_9
REMARK    4  A    between atoms: S_9  and  C_10
REMARK    5  A    between atoms: C_15  and  N_16
REMARK                            x       y       z     vdW  Elec       q    Type
REMARK                         _______ _______ _______ _____ _____    ______ ____
ROOT
ATOM      1  C   UNL     1       3.008   6.656  18.695  0.00  0.00    +0.000 A 
ATOM      2  C   UNL     1       2.469   7.830  19.250  0.00  0.00    +0.000 A 
ATOM      3  C   UNL     1       1.635   7.776  20.366  0.00  0.00    +0.000 A 
ATOM      4  C   UNL     1       1.319   6.548  20.934  0.00  0.00    +0.000 A 
ATOM      5  C   UNL     1       1.833   5.369  20.391  0.00  0.00    +0.000 A 
ATOM      6  C   UNL     1       2.689   5.380  19.262  0.00  0.00    +0.000 A 
ENDROOT
BRANCH   6   7
ATOM      7  N   UNL     1       3.177   4.113  18.735  0.00  0.00    +0.000 N 
ATOM      8  C   UNL     1       4.291   3.399  19.351  0.00  0.00    +0.000 C 
ATOM      9  C   UNL     1       3.866   1.944  19.620  0.00  0.00    +0.000 C 
ATOM     10  N   UNL     1       3.391   1.312  18.380  0.00  0.00    +0.000 NA
ATOM     11  C   UNL     1       2.246   2.046  17.828  0.00  0.00    +0.000 C 
ATOM     12  C   UNL     1       2.675   3.474  17.524  0.00  0.00    +0.000 C 
ATOM     13  H   UNL     1       3.089   0.332  18.585  0.00  0.00    +0.000 HD
ENDBRANCH   6   7
BRANCH   1  14
ATOM     14  S   UNL     1       3.896   6.838  17.146  0.00  0.00    +0.000 S 
BRANCH  14  20
ATOM     15  C   UNL     1       5.985   4.932  16.438  0.00  0.00    +0.000 A 
ATOM     16  C   UNL     1       7.260   4.387  16.729  0.00  0.00    +0.000 A 
ATOM     17  C   UNL     1       7.957   4.770  17.874  0.00  0.00    +0.000 A 
ATOM     18  C   UNL     1       7.400   5.688  18.755  0.00  0.00    +0.000 A 
ATOM     19  C   UNL     1       6.149   6.234  18.491  0.00  0.00    +0.000 A 
ATOM     20  C   UNL     1       5.427   5.876  17.346  0.00  0.00    +0.000 A 
BRANCH  15  22
ATOM     21  C   UNL     1       5.901   4.110  14.118  0.00  0.00    +0.000 C 
ATOM     22  O   UNL     1       5.322   4.557  15.301  0.00  0.00    +0.000 OA
ENDBRANCH  15  22
ENDBRANCH  14  20
ENDBRANCH   1  14
TORSDOF 4
ENDMDL
