MODEL 1
REMARK VINA RESULT:      -9.0      0.000      0.000
REMARK  Name = 
REMARK  8 active torsions:
REMARK  status: ('A' for Active; 'I' for Inactive)
REMARK    1  A    between atoms: C_1  and  C_2
REMARK    2  A    between atoms: C_7  and  C_8
REMARK    3  A    between atoms: C_8  and  N_9
REMARK    4  A    between atoms: C_10  and  C_11
REMARK    5  A    between atoms: C_11  and  N_12
REMARK    6  A    between atoms: N_15  and  C_16
REMARK    7  A    between atoms: C_22  and  C_23
REMARK    8  A    between atoms: N_34  and  C_35
REMARK                            x       y       z     vdW  Elec       q    Type
REMARK                         _______ _______ _______ _____ _____    ______ ____
ROOT
ATOM      1  N   UNL     1       2.913   5.852  17.811  0.00  0.00    +0.000 N 
ATOM      2  C   UNL     1       3.083   7.229  17.786  0.00  0.00    +0.000 A 
ATOM      3  N   UNL     1       4.389   7.498  17.699  0.00  0.00    +0.000 NA
ATOM      4  C   UNL     1       4.988   6.303  17.418  0.00  0.00    +0.000 A 
ATOM      5  C   UNL     1       4.065   5.304  17.294  0.00  0.00    +0.000 A 
ATOM      6  C   UNL     1       4.388   4.006  16.825  0.00  0.00    +0.000 A 
ATOM      7  O   UNL     1       3.594   3.088  16.657  0.00  0.00    +0.000 OA
ATOM      8  N   UNL     1       5.725   3.861  16.562  0.00  0.00    +0.000 N 
ATOM      9  C   UNL     1       6.726   4.737  16.920  0.00  0.00    +0.000 A 
ATOM     10  O   UNL     1       7.889   4.337  16.910  0.00  0.00    +0.000 OA
ATOM     11  N   UNL     1       6.339   6.027  17.297  0.00  0.00    +0.000 N 
ATOM     12  C   UNL     1       7.346   6.959  17.754  0.00  0.00    +0.000 C 
ATOM     13  H   UNL     1       6.023   2.937  16.292  0.00  0.00    +0.000 HD
ENDROOT
BRANCH   1  14
ATOM     14  C   UNL     1       1.757   5.079  18.204  0.00  0.00    +0.000 C 
BRANCH  14  21
ATOM     15  C   UNL     1       0.673   2.418  18.441  0.00  0.00    +0.000 C 
ATOM     16  C   UNL     1       1.291   3.079  19.646  0.00  0.00    +0.000 A 
ATOM     17  C   UNL     1       1.414   2.347  20.832  0.00  0.00    +0.000 A 
ATOM     18  C   UNL     1       2.020   2.908  21.950  0.00  0.00    +0.000 A 
ATOM     19  C   UNL     1       2.498   4.217  21.894  0.00  0.00    +0.000 A 
ATOM     20  C   UNL     1       2.376   4.965  20.715  0.00  0.00    +0.000 A 
ATOM     21  C   UNL     1       1.769   4.415  19.573  0.00  0.00    +0.000 A 
ENDBRANCH  14  21
ENDBRANCH   1  14
BRANCH   2  22
ATOM     22  C   UNL     1       1.976   8.265  17.940  0.00  0.00    +0.000 C 
BRANCH  22  23
ATOM     23  N   UNL     1       2.109   9.238  19.047  0.00  0.00    +0.000 NA
ATOM     24  C   UNL     1       1.967  10.641  18.574  0.00  0.00    +0.000 C 
ATOM     25  C   UNL     1       0.524  11.075  18.223  0.00  0.00    +0.000 C 
ATOM     26  N   UNL     1      -0.386  10.944  19.382  0.00  0.00    +0.000 N 
ATOM     27  C   UNL     1      -0.263   9.654  20.110  0.00  0.00    +0.000 C 
ATOM     28  C   UNL     1       1.180   9.066  20.178  0.00  0.00    +0.000 C 
BRANCH  26  29
ATOM     29  C   UNL     1      -1.727  11.379  19.203  0.00  0.00    +0.000 A 
ATOM     30  C   UNL     1      -2.469  11.052  18.046  0.00  0.00    +0.000 A 
ATOM     31  C   UNL     1      -3.805  11.457  17.877  0.00  0.00    +0.000 A 
ATOM     32 CL   UNL     1      -4.662  11.024  16.445  0.00  0.00    +0.000 Cl
ATOM     33  C   UNL     1      -4.452  12.192  18.855  0.00  0.00    +0.000 A 
ATOM     34  C   UNL     1      -3.749  12.541  20.001  0.00  0.00    +0.000 A 
ATOM     35  C   UNL     1      -2.398  12.166  20.178  0.00  0.00    +0.000 A 
ATOM     36  C   UNL     1      -1.740  12.657  21.442  0.00  0.00    +0.000 C 
ENDBRANCH  26  29
ENDBRANCH  22  23
ENDBRANCH   2  22
TORSDOF 5
ENDMDL
MODEL 2
REMARK VINA RESULT:      -8.9      0.933      1.495
REMARK  Name = 
REMARK  8 active torsions:
REMARK  status: ('A' for Active; 'I' for Inactive)
REMARK    1  A    between atoms: C_1  and  C_2
REMARK    2  A    between atoms: C_7  and  C_8
REMARK    3  A    between atoms: C_8  and  N_9
REMARK    4  A    between atoms: C_10  and  C_11
REMARK    5  A    between atoms: C_11  and  N_12
REMARK    6  A    between atoms: N_15  and  C_16
REMARK    7  A    between atoms: C_22  and  C_23
REMARK    8  A    between atoms: N_34  and  C_35
REMARK                            x       y       z     vdW  Elec       q    Type
REMARK                         _______ _______ _______ _____ _____    ______ ____
ROOT
ATOM      1  N   UNL     1       2.932   5.897  17.791  0.00  0.00    +0.000 N 
ATOM      2  C   UNL     1       3.099   7.273  17.742  0.00  0.00    +0.000 A 
ATOM      3  N   UNL     1       4.406   7.544  17.675  0.00  0.00    +0.000 NA
ATOM      4  C   UNL     1       5.013   6.345  17.428  0.00  0.00    +0.000 A 
ATOM      5  C   UNL     1       4.094   5.342  17.305  0.00  0.00    +0.000 A 
ATOM      6  C   UNL     1       4.429   4.036  16.868  0.00  0.00    +0.000 A 
ATOM      7  O   UNL     1       3.640   3.113  16.702  0.00  0.00    +0.000 OA
ATOM      8  N   UNL     1       5.771   3.889  16.633  0.00  0.00    +0.000 N 
ATOM      9  C   UNL     1       6.763   4.774  16.993  0.00  0.00    +0.000 A 
ATOM     10  O   UNL     1       7.927   4.377  17.013  0.00  0.00    +0.000 OA
ATOM     11  N   UNL     1       6.367   6.070  17.338  0.00  0.00    +0.000 N 
ATOM     12  C   UNL     1       7.362   7.013  17.797  0.00  0.00    +0.000 C 
ATOM     13  H   UNL     1       6.076   2.961  16.386  0.00  0.00    +0.000 HD
ENDROOT
BRANCH   1  14
ATOM     14  C   UNL     1       1.770   5.128  18.176  0.00  0.00    +0.000 C 
BRANCH  14  21
ATOM     15  C   UNL     1       0.683   2.467  18.401  0.00  0.00    +0.000 C 
ATOM     16  C   UNL     1       1.292   3.127  19.612  0.00  0.00    +0.000 A 
ATOM     17  C   UNL     1       1.406   2.393  20.798  0.00  0.00    +0.000 A 
ATOM     18  C   UNL     1       2.004   2.953  21.922  0.00  0.00    +0.000 A 
ATOM     19  C   UNL     1       2.482   4.261  21.871  0.00  0.00    +0.000 A 
ATOM     20  C   UNL     1       2.370   5.011  20.691  0.00  0.00    +0.000 A 
ATOM     21  C   UNL     1       1.771   4.462  19.544  0.00  0.00    +0.000 A 
ENDBRANCH  14  21
ENDBRANCH   1  14
BRANCH   2  22
ATOM     22  C   UNL     1       1.987   8.309  17.856  0.00  0.00    +0.000 C 
BRANCH  22  23
ATOM     23  N   UNL     1       2.082   9.285  18.964  0.00  0.00    +0.000 NA
ATOM     24  C   UNL     1       1.881  10.681  18.494  0.00  0.00    +0.000 C 
ATOM     25  C   UNL     1       0.419  11.056  18.147  0.00  0.00    +0.000 C 
ATOM     26  N   UNL     1      -0.481  10.884  19.308  0.00  0.00    +0.000 N 
ATOM     27  C   UNL     1      -0.303   9.599  20.033  0.00  0.00    +0.000 C 
ATOM     28  C   UNL     1       1.163   9.073  20.097  0.00  0.00    +0.000 C 
BRANCH  26  29
ATOM     29  C   UNL     1      -1.840  11.263  19.132  0.00  0.00    +0.000 A 
ATOM     30  C   UNL     1      -2.490  12.141  20.028  0.00  0.00    +0.000 A 
ATOM     31  C   UNL     1      -3.827  12.540  19.843  0.00  0.00    +0.000 A 
ATOM     32 CL   UNL     1      -4.566  13.619  20.966  0.00  0.00    +0.000 Cl
ATOM     33  C   UNL     1      -4.557  12.088  18.759  0.00  0.00    +0.000 A 
ATOM     34  C   UNL     1      -3.953  11.214  17.865  0.00  0.00    +0.000 A 
ATOM     35  C   UNL     1      -2.620  10.780  18.047  0.00  0.00    +0.000 A 
ATOM     36  C   UNL     1      -2.107   9.790  17.034  0.00  0.00    +0.000 C 
ENDBRANCH  26  29
ENDBRANCH  22  23
ENDBRANCH   2  22
TORSDOF 5
ENDMDL
MODEL 3
REMARK VINA RESULT:      -8.3      0.416      1.133
REMARK  Name = 
REMARK  8 active torsions:
REMARK  status: ('A' for Active; 'I' for Inactive)
REMARK    1  A    between atoms: C_1  and  C_2
REMARK    2  A    between atoms: C_7  and  C_8
REMARK    3  A    between atoms: C_8  and  N_9
REMARK    4  A    between atoms: C_10  and  C_11
REMARK    5  A    between atoms: C_11  and  N_12
REMARK    6  A    between atoms: N_15  and  C_16
REMARK    7  A    between atoms: C_22  and  C_23
REMARK    8  A    between atoms: N_34  and  C_35
REMARK                            x       y       z     vdW  Elec       q    Type
REMARK                         _______ _______ _______ _____ _____    ______ ____
ROOT
ATOM      1  N   UNL     1       2.950   5.879  17.735  0.00  0.00    +0.000 N 
ATOM      2  C   UNL     1       3.111   7.257  17.751  0.00  0.00    +0.000 A 
ATOM      3  N   UNL     1       4.416   7.537  17.700  0.00  0.00    +0.000 NA
ATOM      4  C   UNL     1       5.030   6.353  17.400  0.00  0.00    +0.000 A 
ATOM      5  C   UNL     1       4.116   5.352  17.228  0.00  0.00    +0.000 A 
ATOM      6  C   UNL     1       4.458   4.070  16.732  0.00  0.00    +0.000 A 
ATOM      7  O   UNL     1       3.674   3.152  16.521  0.00  0.00    +0.000 OA
ATOM      8  N   UNL     1       5.801   3.940  16.495  0.00  0.00    +0.000 N 
ATOM      9  C   UNL     1       6.788   4.812  16.898  0.00  0.00    +0.000 A 
ATOM     10  O   UNL     1       7.953   4.420  16.903  0.00  0.00    +0.000 OA
ATOM     11  N   UNL     1       6.385   6.089  17.301  0.00  0.00    +0.000 N 
ATOM     12  C   UNL     1       7.375   7.015  17.806  0.00  0.00    +0.000 C 
ATOM     13  H   UNL     1       6.111   3.026  16.206  0.00  0.00    +0.000 HD
ENDROOT
BRANCH   1  14
ATOM     14  C   UNL     1       1.790   5.088  18.082  0.00  0.00    +0.000 C 
BRANCH  14  21
ATOM     15  C   UNL     1       1.810   6.042  20.802  0.00  0.00    +0.000 C 
ATOM     16  C   UNL     1       1.864   4.560  20.533  0.00  0.00    +0.000 A 
ATOM     17  C   UNL     1       1.823   3.673  21.614  0.00  0.00    +0.000 A 
ATOM     18  C   UNL     1       1.825   2.299  21.403  0.00  0.00    +0.000 A 
ATOM     19  C   UNL     1       1.881   1.799  20.103  0.00  0.00    +0.000 A 
ATOM     20  C   UNL     1       1.929   2.676  19.009  0.00  0.00    +0.000 A 
ATOM     21  C   UNL     1       1.926   4.068  19.202  0.00  0.00    +0.000 A 
ENDBRANCH  14  21
ENDBRANCH   1  14
BRANCH   2  22
ATOM     22  C   UNL     1       1.993   8.282  17.909  0.00  0.00    +0.000 C 
BRANCH  22  23
ATOM     23  N   UNL     1       2.169   9.320  18.949  0.00  0.00    +0.000 NA
ATOM     24  C   UNL     1       1.986  10.690  18.403  0.00  0.00    +0.000 C 
ATOM     25  C   UNL     1       0.522  11.090  18.099  0.00  0.00    +0.000 C 
ATOM     26  N   UNL     1      -0.327  11.018  19.308  0.00  0.00    +0.000 N 
ATOM     27  C   UNL     1      -0.153   9.774  20.103  0.00  0.00    +0.000 C 
ATOM     28  C   UNL     1       1.299   9.206  20.133  0.00  0.00    +0.000 C 
BRANCH  26  29
ATOM     29  C   UNL     1      -1.682  11.429  19.172  0.00  0.00    +0.000 A 
ATOM     30  C   UNL     1      -2.459  11.070  18.048  0.00  0.00    +0.000 A 
ATOM     31  C   UNL     1      -3.808  11.452  17.922  0.00  0.00    +0.000 A 
ATOM     32 CL   UNL     1      -4.709  10.980  16.530  0.00  0.00    +0.000 Cl
ATOM     33  C   UNL     1      -4.430  12.193  18.911  0.00  0.00    +0.000 A 
ATOM     34  C   UNL     1      -3.692  12.573  20.024  0.00  0.00    +0.000 A 
ATOM     35  C   UNL     1      -2.328  12.223  20.158  0.00  0.00    +0.000 A 
ATOM     36  C   UNL     1      -1.633  12.746  21.387  0.00  0.00    +0.000 C 
ENDBRANCH  26  29
ENDBRANCH  22  23
ENDBRANCH   2  22
TORSDOF 5
ENDMDL
MODEL 4
REMARK VINA RESULT:      -8.2      1.841      2.208
REMARK  Name = 
REMARK  8 active torsions:
REMARK  status: ('A' for Active; 'I' for Inactive)
REMARK    1  A    between atoms: C_1  and  C_2
REMARK    2  A    between atoms: C_7  and  C_8
REMARK    3  A    between atoms: C_8  and  N_9
REMARK    4  A    between atoms: C_10  and  C_11
REMARK    5  A    between atoms: C_11  and  N_12
REMARK    6  A    between atoms: N_15  and  C_16
REMARK    7  A    between atoms: C_22  and  C_23
REMARK    8  A    between atoms: N_34  and  C_35
REMARK                            x       y       z     vdW  Elec       q    Type
REMARK                         _______ _______ _______ _____ _____    ______ ____
ROOT
ATOM      1  N   UNL     1       2.981   5.862  17.940  0.00  0.00    +0.000 N 
ATOM      2  C   UNL     1       3.166   7.222  18.147  0.00  0.00    +0.000 A 
ATOM      3  N   UNL     1       4.467   7.501  18.027  0.00  0.00    +0.000 NA
ATOM      4  C   UNL     1       5.034   6.373  17.502  0.00  0.00    +0.000 A 
ATOM      5  C   UNL     1       4.092   5.413  17.262  0.00  0.00    +0.000 A 
ATOM      6  C   UNL     1       4.370   4.218  16.553  0.00  0.00    +0.000 A 
ATOM      7  O   UNL     1       3.556   3.345  16.275  0.00  0.00    +0.000 OA
ATOM      8  N   UNL     1       5.686   4.120  16.185  0.00  0.00    +0.000 N 
ATOM      9  C   UNL     1       6.718   4.918  16.628  0.00  0.00    +0.000 A 
ATOM     10  O   UNL     1       7.873   4.525  16.475  0.00  0.00    +0.000 OA
ATOM     11  N   UNL     1       6.371   6.121  17.249  0.00  0.00    +0.000 N 
ATOM     12  C   UNL     1       7.415   6.957  17.800  0.00  0.00    +0.000 C 
ATOM     13  H   UNL     1       5.956   3.258  15.738  0.00  0.00    +0.000 HD
ENDROOT
BRANCH   1  14
ATOM     14  C   UNL     1       1.842   5.032  18.262  0.00  0.00    +0.000 C 
BRANCH  14  21
ATOM     15  C   UNL     1       0.795   2.351  18.408  0.00  0.00    +0.000 C 
ATOM     16  C   UNL     1       1.360   2.997  19.647  0.00  0.00    +0.000 A 
ATOM     17  C   UNL     1       1.455   2.243  20.822  0.00  0.00    +0.000 A 
ATOM     18  C   UNL     1       2.013   2.791  21.971  0.00  0.00    +0.000 A 
ATOM     19  C   UNL     1       2.470   4.108  21.958  0.00  0.00    +0.000 A 
ATOM     20  C   UNL     1       2.376   4.878  20.790  0.00  0.00    +0.000 A 
ATOM     21  C   UNL     1       1.818   4.341  19.617  0.00  0.00    +0.000 A 
ENDBRANCH  14  21
ENDBRANCH   1  14
BRANCH   2  22
ATOM     22  C   UNL     1       2.083   8.215  18.551  0.00  0.00    +0.000 C 
BRANCH  22  23
ATOM     23  N   UNL     1       1.771   9.301  17.595  0.00  0.00    +0.000 NA
ATOM     24  C   UNL     1       0.307   9.479  17.415  0.00  0.00    +0.000 C 
ATOM     25  C   UNL     1      -0.426  10.162  18.596  0.00  0.00    +0.000 C 
ATOM     26  N   UNL     1       0.116  11.510  18.871  0.00  0.00    +0.000 N 
ATOM     27  C   UNL     1       1.600  11.574  18.913  0.00  0.00    +0.000 C 
ATOM     28  C   UNL     1       2.333  10.627  17.914  0.00  0.00    +0.000 C 
BRANCH  26  29
ATOM     29  C   UNL     1      -0.523  12.267  19.891  0.00  0.00    +0.000 A 
ATOM     30  C   UNL     1      -1.073  11.655  21.039  0.00  0.00    +0.000 A 
ATOM     31  C   UNL     1      -1.681  12.402  22.064  0.00  0.00    +0.000 A 
ATOM     32 CL   UNL     1      -2.332  11.600  23.445  0.00  0.00    +0.000 Cl
ATOM     33  C   UNL     1      -1.754  13.782  21.987  0.00  0.00    +0.000 A 
ATOM     34  C   UNL     1      -1.233  14.416  20.867  0.00  0.00    +0.000 A 
ATOM     35  C   UNL     1      -0.642  13.681  19.814  0.00  0.00    +0.000 A 
ATOM     36  C   UNL     1      -0.167  14.489  18.634  0.00  0.00    +0.000 C 
ENDBRANCH  26  29
ENDBRANCH  22  23
ENDBRANCH   2  22
TORSDOF 5
ENDMDL
MODEL 5
REMARK VINA RESULT:      -8.2      1.648      4.311
REMARK  Name = 
REMARK  8 active torsions:
REMARK  status: ('A' for Active; 'I' for Inactive)
REMARK    1  A    between atoms: C_1  and  C_2
REMARK    2  A    between atoms: C_7  and  C_8
REMARK    3  A    between atoms: C_8  and  N_9
REMARK    4  A    between atoms: C_10  and  C_11
REMARK    5  A    between atoms: C_11  and  N_12
REMARK    6  A    between atoms: N_15  and  C_16
REMARK    7  A    between atoms: C_22  and  C_23
REMARK    8  A    between atoms: N_34  and  C_35
REMARK                            x       y       z     vdW  Elec       q    Type
REMARK                         _______ _______ _______ _____ _____    ______ ____
ROOT
ATOM      1  N   UNL     1       3.728   5.879  18.040  0.00  0.00    +0.000 N 
ATOM      2  C   UNL     1       2.386   6.189  18.212  0.00  0.00    +0.000 A 
ATOM      3  N   UNL     1       1.718   5.064  18.485  0.00  0.00    +0.000 NA
ATOM      4  C   UNL     1       2.677   4.122  18.728  0.00  0.00    +0.000 A 
ATOM      5  C   UNL     1       3.930   4.659  18.645  0.00  0.00    +0.000 A 
ATOM      6  C   UNL     1       5.099   3.956  19.029  0.00  0.00    +0.000 A 
ATOM      7  O   UNL     1       6.240   4.404  19.012  0.00  0.00    +0.000 OA
ATOM      8  N   UNL     1       4.832   2.678  19.441  0.00  0.00    +0.000 N 
ATOM      9  C   UNL     1       3.638   2.006  19.293  0.00  0.00    +0.000 A 
ATOM     10  O   UNL     1       3.634   0.782  19.410  0.00  0.00    +0.000 OA
ATOM     11  N   UNL     1       2.509   2.773  18.991  0.00  0.00    +0.000 N 
ATOM     12  C   UNL     1       1.248   2.107  18.749  0.00  0.00    +0.000 C 
ATOM     13  H   UNL     1       5.634   2.108  19.661  0.00  0.00    +0.000 HD
ENDROOT
BRANCH   1  14
ATOM     14  C   UNL     1       4.780   6.666  17.437  0.00  0.00    +0.000 C 
BRANCH  14  21
ATOM     15  C   UNL     1       7.641   7.014  17.366  0.00  0.00    +0.000 C 
ATOM     16  C   UNL     1       6.965   6.190  16.300  0.00  0.00    +0.000 A 
ATOM     17  C   UNL     1       7.754   5.529  15.351  0.00  0.00    +0.000 A 
ATOM     18  C   UNL     1       7.168   4.725  14.381  0.00  0.00    +0.000 A 
ATOM     19  C   UNL     1       5.782   4.585  14.343  0.00  0.00    +0.000 A 
ATOM     20  C   UNL     1       4.978   5.246  15.282  0.00  0.00    +0.000 A 
ATOM     21  C   UNL     1       5.550   6.062  16.272  0.00  0.00    +0.000 A 
ENDBRANCH  14  21
ENDBRANCH   1  14
BRANCH   2  22
ATOM     22  C   UNL     1       1.759   7.564  18.017  0.00  0.00    +0.000 C 
BRANCH  22  23
ATOM     23  N   UNL     1       2.153   8.629  18.966  0.00  0.00    +0.000 NA
ATOM     24  C   UNL     1       2.087   9.978  18.347  0.00  0.00    +0.000 C 
ATOM     25  C   UNL     1       0.659  10.541  18.142  0.00  0.00    +0.000 C 
ATOM     26  N   UNL     1      -0.078  10.644  19.421  0.00  0.00    +0.000 N 
ATOM     27  C   UNL     1       0.019   9.435  20.280  0.00  0.00    +0.000 C 
ATOM     28  C   UNL     1       1.388   8.691  20.225  0.00  0.00    +0.000 C 
BRANCH  26  29
ATOM     29  C   UNL     1      -1.380  11.213  19.372  0.00  0.00    +0.000 A 
ATOM     30  C   UNL     1      -2.282  10.920  18.326  0.00  0.00    +0.000 A 
ATOM     31  C   UNL     1      -3.581  11.460  18.288  0.00  0.00    +0.000 A 
ATOM     32 CL   UNL     1      -4.642  11.061  16.988  0.00  0.00    +0.000 Cl
ATOM     33  C   UNL     1      -4.028  12.300  19.292  0.00  0.00    +0.000 A 
ATOM     34  C   UNL     1      -3.164  12.619  20.330  0.00  0.00    +0.000 A 
ATOM     35  C   UNL     1      -1.846  12.109  20.373  0.00  0.00    +0.000 A 
ATOM     36  C   UNL     1      -0.996  12.579  21.525  0.00  0.00    +0.000 C 
ENDBRANCH  26  29
ENDBRANCH  22  23
ENDBRANCH   2  22
TORSDOF 5
ENDMDL
MODEL 6
REMARK VINA RESULT:      -8.2      1.028      1.880
REMARK  Name = 
REMARK  8 active torsions:
REMARK  status: ('A' for Active; 'I' for Inactive)
REMARK    1  A    between atoms: C_1  and  C_2
REMARK    2  A    between atoms: C_7  and  C_8
REMARK    3  A    between atoms: C_8  and  N_9
REMARK    4  A    between atoms: C_10  and  C_11
REMARK    5  A    between atoms: C_11  and  N_12
REMARK    6  A    between atoms: N_15  and  C_16
REMARK    7  A    between atoms: C_22  and  C_23
REMARK    8  A    between atoms: N_34  and  C_35
REMARK                            x       y       z     vdW  Elec       q    Type
REMARK                         _______ _______ _______ _____ _____    ______ ____
ROOT
ATOM      1  N   UNL     1       2.963   5.868  17.694  0.00  0.00    +0.000 N 
ATOM      2  C   UNL     1       3.118   7.247  17.698  0.00  0.00    +0.000 A 
ATOM      3  N   UNL     1       4.422   7.532  17.663  0.00  0.00    +0.000 NA
ATOM      4  C   UNL     1       5.045   6.348  17.383  0.00  0.00    +0.000 A 
ATOM      5  C   UNL     1       4.139   5.342  17.208  0.00  0.00    +0.000 A 
ATOM      6  C   UNL     1       4.494   4.056  16.730  0.00  0.00    +0.000 A 
ATOM      7  O   UNL     1       3.717   3.133  16.517  0.00  0.00    +0.000 OA
ATOM      8  N   UNL     1       5.841   3.931  16.513  0.00  0.00    +0.000 N 
ATOM      9  C   UNL     1       6.818   4.811  16.921  0.00  0.00    +0.000 A 
ATOM     10  O   UNL     1       7.985   4.424  16.947  0.00  0.00    +0.000 OA
ATOM     11  N   UNL     1       6.403   6.090  17.306  0.00  0.00    +0.000 N 
ATOM     12  C   UNL     1       7.381   7.025  17.815  0.00  0.00    +0.000 C 
ATOM     13  H   UNL     1       6.159   3.015  16.238  0.00  0.00    +0.000 HD
ENDROOT
BRANCH   1  14
ATOM     14  C   UNL     1       1.802   5.075  18.032  0.00  0.00    +0.000 C 
BRANCH  14  21
ATOM     15  C   UNL     1       1.840   6.058  20.741  0.00  0.00    +0.000 C 
ATOM     16  C   UNL     1       1.875   4.573  20.488  0.00  0.00    +0.000 A 
ATOM     17  C   UNL     1       1.825   3.698  21.580  0.00  0.00    +0.000 A 
ATOM     18  C   UNL     1       1.809   2.322  21.383  0.00  0.00    +0.000 A 
ATOM     19  C   UNL     1       1.856   1.808  20.088  0.00  0.00    +0.000 A 
ATOM     20  C   UNL     1       1.913   2.672  18.985  0.00  0.00    +0.000 A 
ATOM     21  C   UNL     1       1.927   4.066  19.163  0.00  0.00    +0.000 A 
ENDBRANCH  14  21
ENDBRANCH   1  14
BRANCH   2  22
ATOM     22  C   UNL     1       1.994   8.268  17.830  0.00  0.00    +0.000 C 
BRANCH  22  23
ATOM     23  N   UNL     1       2.146   9.312  18.867  0.00  0.00    +0.000 NA
ATOM     24  C   UNL     1       1.918  10.676  18.321  0.00  0.00    +0.000 C 
ATOM     25  C   UNL     1       0.439  11.030  18.029  0.00  0.00    +0.000 C 
ATOM     26  N   UNL     1      -0.398  10.935  19.244  0.00  0.00    +0.000 N 
ATOM     27  C   UNL     1      -0.179   9.698  20.040  0.00  0.00    +0.000 C 
ATOM     28  C   UNL     1       1.289   9.174  20.059  0.00  0.00    +0.000 C 
BRANCH  26  29
ATOM     29  C   UNL     1      -1.765  11.304  19.118  0.00  0.00    +0.000 A 
ATOM     30  C   UNL     1      -2.383  12.193  20.025  0.00  0.00    +0.000 A 
ATOM     31  C   UNL     1      -3.728  12.582  19.889  0.00  0.00    +0.000 A 
ATOM     32 CL   UNL     1      -4.428  13.675  21.024  0.00  0.00    +0.000 Cl
ATOM     33  C   UNL     1      -4.499  12.109  18.842  0.00  0.00    +0.000 A 
ATOM     34  C   UNL     1      -3.927  11.225  17.938  0.00  0.00    +0.000 A 
ATOM     35  C   UNL     1      -2.585  10.800  18.073  0.00  0.00    +0.000 A 
ATOM     36  C   UNL     1      -2.108   9.796  17.056  0.00  0.00    +0.000 C 
ENDBRANCH  26  29
ENDBRANCH  22  23
ENDBRANCH   2  22
TORSDOF 5
ENDMDL
MODEL 7
REMARK VINA RESULT:      -7.9      1.551      2.096
REMARK  Name = 
REMARK  8 active torsions:
REMARK  status: ('A' for Active; 'I' for Inactive)
REMARK    1  A    between atoms: C_1  and  C_2
REMARK    2  A    between atoms: C_7  and  C_8
REMARK    3  A    between atoms: C_8  and  N_9
REMARK    4  A    between atoms: C_10  and  C_11
REMARK    5  A    between atoms: C_11  and  N_12
REMARK    6  A    between atoms: N_15  and  C_16
REMARK    7  A    between atoms: C_22  and  C_23
REMARK    8  A    between atoms: N_34  and  C_35
REMARK                            x       y       z     vdW  Elec       q    Type
REMARK                         _______ _______ _______ _____ _____    ______ ____
ROOT
ATOM      1  N   UNL     1       2.983   5.829  18.009  0.00  0.00    +0.000 N 
ATOM      2  C   UNL     1       3.193   7.185  18.214  0.00  0.00    +0.000 A 
ATOM      3  N   UNL     1       4.500   7.438  18.099  0.00  0.00    +0.000 NA
ATOM      4  C   UNL     1       5.046   6.298  17.579  0.00  0.00    +0.000 A 
ATOM      5  C   UNL     1       4.087   5.356  17.337  0.00  0.00    +0.000 A 
ATOM      6  C   UNL     1       4.345   4.155  16.632  0.00  0.00    +0.000 A 
ATOM      7  O   UNL     1       3.515   3.297  16.353  0.00  0.00    +0.000 OA
ATOM      8  N   UNL     1       5.660   4.030  16.270  0.00  0.00    +0.000 N 
ATOM      9  C   UNL     1       6.705   4.809  16.716  0.00  0.00    +0.000 A 
ATOM     10  O   UNL     1       7.853   4.393  16.568  0.00  0.00    +0.000 OA
ATOM     11  N   UNL     1       6.379   6.020  17.333  0.00  0.00    +0.000 N 
ATOM     12  C   UNL     1       7.437   6.836  17.886  0.00  0.00    +0.000 C 
ATOM     13  H   UNL     1       5.915   3.162  15.826  0.00  0.00    +0.000 HD
ENDROOT
BRANCH   1  14
ATOM     14  C   UNL     1       1.826   5.022  18.329  0.00  0.00    +0.000 C 
BRANCH  14  21
ATOM     15  C   UNL     1       0.766   2.343  18.429  0.00  0.00    +0.000 C 
ATOM     16  C   UNL     1       1.333   2.966  19.679  0.00  0.00    +0.000 A 
ATOM     17  C   UNL     1       1.423   2.193  20.842  0.00  0.00    +0.000 A 
ATOM     18  C   UNL     1       1.982   2.719  22.000  0.00  0.00    +0.000 A 
ATOM     19  C   UNL     1       2.445   4.034  22.009  0.00  0.00    +0.000 A 
ATOM     20  C   UNL     1       2.356   4.824  20.854  0.00  0.00    +0.000 A 
ATOM     21  C   UNL     1       1.797   4.309  19.672  0.00  0.00    +0.000 A 
ENDBRANCH  14  21
ENDBRANCH   1  14
BRANCH   2  22
ATOM     22  C   UNL     1       2.128   8.200  18.611  0.00  0.00    +0.000 C 
BRANCH  22  23
ATOM     23  N   UNL     1       1.808   9.263  17.632  0.00  0.00    +0.000 NA
ATOM     24  C   UNL     1       0.377   9.235  17.230  0.00  0.00    +0.000 C 
ATOM     25  C   UNL     1      -0.617   9.765  18.292  0.00  0.00    +0.000 C 
ATOM     26  N   UNL     1      -0.327  11.167  18.663  0.00  0.00    +0.000 N 
ATOM     27  C   UNL     1       1.109  11.442  18.934  0.00  0.00    +0.000 C 
ATOM     28  C   UNL     1       2.114  10.644  18.049  0.00  0.00    +0.000 C 
BRANCH  26  29
ATOM     29  C   UNL     1      -1.215  11.790  19.582  0.00  0.00    +0.000 A 
ATOM     30  C   UNL     1      -0.787  12.219  20.858  0.00  0.00    +0.000 A 
ATOM     31  C   UNL     1      -1.657  12.860  21.759  0.00  0.00    +0.000 A 
ATOM     32 CL   UNL     1      -1.076  13.368  23.302  0.00  0.00    +0.000 Cl
ATOM     33  C   UNL     1      -2.976  13.103  21.420  0.00  0.00    +0.000 A 
ATOM     34  C   UNL     1      -3.433  12.684  20.178  0.00  0.00    +0.000 A 
ATOM     35  C   UNL     1      -2.583  12.015  19.268  0.00  0.00    +0.000 A 
ATOM     36  C   UNL     1      -3.223  11.566  17.980  0.00  0.00    +0.000 C 
ENDBRANCH  26  29
ENDBRANCH  22  23
ENDBRANCH   2  22
TORSDOF 5
ENDMDL
MODEL 8
REMARK VINA RESULT:      -7.9      2.139      2.572
REMARK  Name = 
REMARK  8 active torsions:
REMARK  status: ('A' for Active; 'I' for Inactive)
REMARK    1  A    between atoms: C_1  and  C_2
REMARK    2  A    between atoms: C_7  and  C_8
REMARK    3  A    between atoms: C_8  and  N_9
REMARK    4  A    between atoms: C_10  and  C_11
REMARK    5  A    between atoms: C_11  and  N_12
REMARK    6  A    between atoms: N_15  and  C_16
REMARK    7  A    between atoms: C_22  and  C_23
REMARK    8  A    between atoms: N_34  and  C_35
REMARK                            x       y       z     vdW  Elec       q    Type
REMARK                         _______ _______ _______ _____ _____    ______ ____
ROOT
ATOM      1  N   UNL     1       3.296   6.105  17.784  0.00  0.00    +0.000 N 
ATOM      2  C   UNL     1       3.581   7.462  17.742  0.00  0.00    +0.000 A 
ATOM      3  N   UNL     1       4.907   7.623  17.779  0.00  0.00    +0.000 NA
ATOM      4  C   UNL     1       5.429   6.374  17.589  0.00  0.00    +0.000 A 
ATOM      5  C   UNL     1       4.442   5.449  17.398  0.00  0.00    +0.000 A 
ATOM      6  C   UNL     1       4.701   4.115  16.996  0.00  0.00    +0.000 A 
ATOM      7  O   UNL     1       3.853   3.259  16.772  0.00  0.00    +0.000 OA
ATOM      8  N   UNL     1       6.040   3.855  16.871  0.00  0.00    +0.000 N 
ATOM      9  C   UNL     1       7.071   4.659  17.305  0.00  0.00    +0.000 A 
ATOM     10  O   UNL     1       8.191   4.166  17.421  0.00  0.00    +0.000 OA
ATOM     11  N   UNL     1       6.758   5.987  17.610  0.00  0.00    +0.000 N 
ATOM     12  C   UNL     1       7.789   6.850  18.142  0.00  0.00    +0.000 C 
ATOM     13  H   UNL     1       6.285   2.902  16.654  0.00  0.00    +0.000 HD
ENDROOT
BRANCH   1  14
ATOM     14  C   UNL     1       2.046   5.440  18.079  0.00  0.00    +0.000 C 
BRANCH  14  21
ATOM     15  C   UNL     1       0.743   2.869  18.069  0.00  0.00    +0.000 C 
ATOM     16  C   UNL     1       1.341   3.394  19.348  0.00  0.00    +0.000 A 
ATOM     17  C   UNL     1       1.337   2.577  20.484  0.00  0.00    +0.000 A 
ATOM     18  C   UNL     1       1.920   3.010  21.669  0.00  0.00    +0.000 A 
ATOM     19  C   UNL     1       2.502   4.275  21.732  0.00  0.00    +0.000 A 
ATOM     20  C   UNL     1       2.508   5.108  20.604  0.00  0.00    +0.000 A 
ATOM     21  C   UNL     1       1.926   4.688  19.396  0.00  0.00    +0.000 A 
ENDBRANCH  14  21
ENDBRANCH   1  14
BRANCH   2  22
ATOM     22  C   UNL     1       2.554   8.588  17.760  0.00  0.00    +0.000 C 
BRANCH  22  23
ATOM     23  N   UNL     1       1.275   8.326  18.457  0.00  0.00    +0.000 NA
ATOM     24  C   UNL     1       1.413   8.433  19.933  0.00  0.00    +0.000 C 
ATOM     25  C   UNL     1       1.541   9.875  20.481  0.00  0.00    +0.000 C 
ATOM     26  N   UNL     1       0.368  10.703  20.122  0.00  0.00    +0.000 N 
ATOM     27  C   UNL     1      -0.045  10.592  18.699  0.00  0.00    +0.000 C 
ATOM     28  C   UNL     1       0.137   9.178  18.066  0.00  0.00    +0.000 C 
BRANCH  26  29
ATOM     29  C   UNL     1       0.336  12.031  20.629  0.00  0.00    +0.000 A 
ATOM     30  C   UNL     1       0.968  13.101  19.956  0.00  0.00    +0.000 A 
ATOM     31  C   UNL     1       0.916  14.421  20.440  0.00  0.00    +0.000 A 
ATOM     32 CL   UNL     1       1.702  15.687  19.573  0.00  0.00    +0.000 Cl
ATOM     33  C   UNL     1       0.227  14.723  21.601  0.00  0.00    +0.000 A 
ATOM     34  C   UNL     1      -0.397  13.694  22.294  0.00  0.00    +0.000 A 
ATOM     35  C   UNL     1      -0.334  12.357  21.840  0.00  0.00    +0.000 A 
ATOM     36  C   UNL     1      -1.007  11.333  22.716  0.00  0.00    +0.000 C 
ENDBRANCH  26  29
ENDBRANCH  22  23
ENDBRANCH   2  22
TORSDOF 5
ENDMDL
MODEL 9
REMARK VINA RESULT:      -7.8      1.794      2.154
REMARK  Name = 
REMARK  8 active torsions:
REMARK  status: ('A' for Active; 'I' for Inactive)
REMARK    1  A    between atoms: C_1  and  C_2
REMARK    2  A    between atoms: C_7  and  C_8
REMARK    3  A    between atoms: C_8  and  N_9
REMARK    4  A    between atoms: C_10  and  C_11
REMARK    5  A    between atoms: C_11  and  N_12
REMARK    6  A    between atoms: N_15  and  C_16
REMARK    7  A    between atoms: C_22  and  C_23
REMARK    8  A    between atoms: N_34  and  C_35
REMARK                            x       y       z     vdW  Elec       q    Type
REMARK                         _______ _______ _______ _____ _____    ______ ____
ROOT
ATOM      1  N   UNL     1       2.969   5.854  17.903  0.00  0.00    +0.000 N 
ATOM      2  C   UNL     1       3.141   7.211  18.132  0.00  0.00    +0.000 A 
ATOM      3  N   UNL     1       4.438   7.507  18.000  0.00  0.00    +0.000 NA
ATOM      4  C   UNL     1       5.009   6.395  17.447  0.00  0.00    +0.000 A 
ATOM      5  C   UNL     1       4.075   5.429  17.203  0.00  0.00    +0.000 A 
ATOM      6  C   UNL     1       4.357   4.250  16.469  0.00  0.00    +0.000 A 
ATOM      7  O   UNL     1       3.548   3.373  16.187  0.00  0.00    +0.000 OA
ATOM      8  N   UNL     1       5.669   4.173  16.082  0.00  0.00    +0.000 N 
ATOM      9  C   UNL     1       6.697   4.975  16.525  0.00  0.00    +0.000 A 
ATOM     10  O   UNL     1       7.854   4.597  16.350  0.00  0.00    +0.000 OA
ATOM     11  N   UNL     1       6.346   6.163  17.173  0.00  0.00    +0.000 N 
ATOM     12  C   UNL     1       7.388   7.000  17.725  0.00  0.00    +0.000 C 
ATOM     13  H   UNL     1       5.942   3.323  15.616  0.00  0.00    +0.000 HD
ENDROOT
BRANCH   1  14
ATOM     14  C   UNL     1       1.843   5.006  18.226  0.00  0.00    +0.000 C 
BRANCH  14  21
ATOM     15  C   UNL     1       0.770   2.337  18.418  0.00  0.00    +0.000 C 
ATOM     16  C   UNL     1       1.346   2.997  19.644  0.00  0.00    +0.000 A 
ATOM     17  C   UNL     1       1.438   2.261  20.830  0.00  0.00    +0.000 A 
ATOM     18  C   UNL     1       2.005   2.821  21.969  0.00  0.00    +0.000 A 
ATOM     19  C   UNL     1       2.475   4.133  21.934  0.00  0.00    +0.000 A 
ATOM     20  C   UNL     1       2.385   4.885  20.754  0.00  0.00    +0.000 A 
ATOM     21  C   UNL     1       1.817   4.336  19.591  0.00  0.00    +0.000 A 
ENDBRANCH  14  21
ENDBRANCH   1  14
BRANCH   2  22
ATOM     22  C   UNL     1       2.053   8.185  18.568  0.00  0.00    +0.000 C 
BRANCH  22  23
ATOM     23  N   UNL     1       1.710   9.279  17.633  0.00  0.00    +0.000 NA
ATOM     24  C   UNL     1       0.241   9.486  17.533  0.00  0.00    +0.000 C 
ATOM     25  C   UNL     1      -0.411  10.180  18.754  0.00  0.00    +0.000 C 
ATOM     26  N   UNL     1       0.171  11.517  19.000  0.00  0.00    +0.000 N 
ATOM     27  C   UNL     1       1.656  11.552  18.960  0.00  0.00    +0.000 C 
ATOM     28  C   UNL     1       2.314  10.593  17.921  0.00  0.00    +0.000 C 
BRANCH  26  29
ATOM     29  C   UNL     1      -0.395  12.284  20.055  0.00  0.00    +0.000 A 
ATOM     30  C   UNL     1      -0.939  13.569  19.833  0.00  0.00    +0.000 A 
ATOM     31  C   UNL     1      -1.524  14.320  20.869  0.00  0.00    +0.000 A 
ATOM     32 CL   UNL     1      -2.177  15.881  20.538  0.00  0.00    +0.000 Cl
ATOM     33  C   UNL     1      -1.597  13.816  22.155  0.00  0.00    +0.000 A 
ATOM     34  C   UNL     1      -1.062  12.560  22.412  0.00  0.00    +0.000 A 
ATOM     35  C   UNL     1      -0.446  11.801  21.391  0.00  0.00    +0.000 A 
ATOM     36  C   UNL     1       0.142  10.480  21.817  0.00  0.00    +0.000 C 
ENDBRANCH  26  29
ENDBRANCH  22  23
ENDBRANCH   2  22
TORSDOF 5
ENDMDL
