MODEL 1
REMARK VINA RESULT:      -8.3      0.000      0.000
REMARK  Name = 
REMARK  6 active torsions:
REMARK  status: ('A' for Active; 'I' for Inactive)
REMARK    1  A    between atoms: C_4  and  C_5
REMARK    2  A    between atoms: C_5  and  N_6
REMARK    3  A    between atoms: C_10  and  O_11
REMARK    4  A    between atoms: O_11  and  C_12
REMARK    5  A    between atoms: N_15  and  C_16
REMARK    6  A    between atoms: C_16  and  C_17
REMARK                            x       y       z     vdW  Elec       q    Type
REMARK                         _______ _______ _______ _____ _____    ______ ____
ROOT
ATOM      1  N   UNL     1       0.209  10.239  20.162  0.00  0.00    +0.000 N 
ATOM      2  C   UNL     1      -0.028   9.523  21.314  0.00  0.00    +0.000 A 
ATOM      3  C   UNL     1       0.735   8.370  21.265  0.00  0.00    +0.000 A 
ATOM      4  C   UNL     1       1.447   8.372  20.033  0.00  0.00    +0.000 A 
ATOM      5  C   UNL     1       2.329   7.515  19.356  0.00  0.00    +0.000 A 
ATOM      6  N   UNL     1       2.828   7.895  18.159  0.00  0.00    +0.000 NA
ATOM      7  C   UNL     1       2.427   9.074  17.653  0.00  0.00    +0.000 A 
ATOM      8  N   UNL     1       1.563   9.957  18.180  0.00  0.00    +0.000 NA
ATOM      9  C   UNL     1       1.111   9.555  19.380  0.00  0.00    +0.000 A 
ENDROOT
BRANCH   1  10
ATOM     10  C   UNL     1      -0.522  11.431  19.746  0.00  0.00    +0.000 C 
BRANCH  10  14
ATOM     11  C   UNL     1      -4.215  10.631  17.655  0.00  0.00    +0.000 A 
ATOM     12  C   UNL     1      -4.130  11.704  18.537  0.00  0.00    +0.000 A 
ATOM     13  C   UNL     1      -2.942  11.946  19.233  0.00  0.00    +0.000 A 
ATOM     14  C   UNL     1      -1.821  11.127  19.038  0.00  0.00    +0.000 A 
ATOM     15  C   UNL     1      -1.919  10.050  18.142  0.00  0.00    +0.000 A 
ATOM     16  C   UNL     1      -3.110   9.803  17.454  0.00  0.00    +0.000 A 
ENDBRANCH  10  14
ENDBRANCH   1  10
BRANCH   5  17
ATOM     17  O   UNL     1       2.731   6.313  19.918  0.00  0.00    +0.000 OA
BRANCH  17  18
ATOM     18  C   UNL     1       1.780   5.235  19.810  0.00  0.00    +0.000 C 
ATOM     19  C   UNL     1       2.337   3.971  20.460  0.00  0.00    +0.000 C 
ATOM     20  C   UNL     1       3.561   3.442  19.714  0.00  0.00    +0.000 C 
ATOM     21  N   UNL     1       3.349   3.245  18.277  0.00  0.00    +0.000 NA
ATOM     22  C   UNL     1       2.708   4.375  17.601  0.00  0.00    +0.000 C 
ATOM     23  C   UNL     1       1.494   4.940  18.337  0.00  0.00    +0.000 C 
BRANCH  21  24
ATOM     24  C   UNL     1       4.580   2.805  17.577  0.00  0.00    +0.000 C 
BRANCH  24  25
ATOM     25  C   UNL     1       5.479   3.902  17.033  0.00  0.00    +0.000 A 
ATOM     26  C   UNL     1       5.601   4.109  15.653  0.00  0.00    +0.000 A 
ATOM     27  C   UNL     1       6.482   5.075  15.192  0.00  0.00    +0.000 A 
ATOM     28  N   UNL     1       7.227   5.859  15.999  0.00  0.00    +0.000 NA
ATOM     29  C   UNL     1       7.083   5.662  17.327  0.00  0.00    +0.000 A 
ATOM     30  C   UNL     1       6.236   4.714  17.884  0.00  0.00    +0.000 A 
ENDBRANCH  24  25
ENDBRANCH  21  24
ENDBRANCH  17  18
ENDBRANCH   5  17
TORSDOF 6
ENDMDL
MODEL 2
REMARK VINA RESULT:      -8.1      0.206      1.243
REMARK  Name = 
REMARK  6 active torsions:
REMARK  status: ('A' for Active; 'I' for Inactive)
REMARK    1  A    between atoms: C_4  and  C_5
REMARK    2  A    between atoms: C_5  and  N_6
REMARK    3  A    between atoms: C_10  and  O_11
REMARK    4  A    between atoms: O_11  and  C_12
REMARK    5  A    between atoms: N_15  and  C_16
REMARK    6  A    between atoms: C_16  and  C_17
REMARK                            x       y       z     vdW  Elec       q    Type
REMARK                         _______ _______ _______ _____ _____    ______ ____
ROOT
ATOM      1  N   UNL     1       0.248  10.287  20.013  0.00  0.00    +0.000 N 
ATOM      2  C   UNL     1      -0.043   9.649  21.198  0.00  0.00    +0.000 A 
ATOM      3  C   UNL     1       0.684   8.472  21.239  0.00  0.00    +0.000 A 
ATOM      4  C   UNL     1       1.428   8.379  20.030  0.00  0.00    +0.000 A 
ATOM      5  C   UNL     1       2.301   7.457  19.431  0.00  0.00    +0.000 A 
ATOM      6  N   UNL     1       2.844   7.750  18.228  0.00  0.00    +0.000 NA
ATOM      7  C   UNL     1       2.494   8.908  17.642  0.00  0.00    +0.000 A 
ATOM      8  N   UNL     1       1.645   9.846  18.091  0.00  0.00    +0.000 NA
ATOM      9  C   UNL     1       1.148   9.530  19.300  0.00  0.00    +0.000 A 
ENDROOT
BRANCH   1  10
ATOM     10  C   UNL     1      -0.435  11.473  19.506  0.00  0.00    +0.000 C 
BRANCH  10  14
ATOM     11  C   UNL     1      -4.260  10.555  17.726  0.00  0.00    +0.000 A 
ATOM     12  C   UNL     1      -3.149   9.766  17.440  0.00  0.00    +0.000 A 
ATOM     13  C   UNL     1      -1.906  10.080  17.997  0.00  0.00    +0.000 A 
ATOM     14  C   UNL     1      -1.766  11.176  18.860  0.00  0.00    +0.000 A 
ATOM     15  C   UNL     1      -2.896  11.961  19.142  0.00  0.00    +0.000 A 
ATOM     16  C   UNL     1      -4.136  11.652  18.578  0.00  0.00    +0.000 A 
ENDBRANCH  10  14
ENDBRANCH   1  10
BRANCH   5  17
ATOM     17  O   UNL     1       2.649   6.279  20.074  0.00  0.00    +0.000 OA
BRANCH  17  18
ATOM     18  C   UNL     1       1.687   5.211  19.965  0.00  0.00    +0.000 C 
ATOM     19  C   UNL     1       2.246   3.931  20.582  0.00  0.00    +0.000 C 
ATOM     20  C   UNL     1       3.450   3.406  19.803  0.00  0.00    +0.000 C 
ATOM     21  N   UNL     1       3.209   3.236  18.367  0.00  0.00    +0.000 NA
ATOM     22  C   UNL     1       2.564   4.384  17.724  0.00  0.00    +0.000 C 
ATOM     23  C   UNL     1       1.370   4.945  18.494  0.00  0.00    +0.000 C 
BRANCH  21  24
ATOM     24  C   UNL     1       4.422   2.799  17.635  0.00  0.00    +0.000 C 
BRANCH  24  25
ATOM     25  C   UNL     1       5.289   3.896  17.042  0.00  0.00    +0.000 A 
ATOM     26  C   UNL     1       6.151   4.645  17.854  0.00  0.00    +0.000 A 
ATOM     27  C   UNL     1       6.876   5.682  17.288  0.00  0.00    +0.000 A 
ATOM     28  N   UNL     1       6.824   6.011  15.981  0.00  0.00    +0.000 NA
ATOM     29  C   UNL     1       6.005   5.267  15.207  0.00  0.00    +0.000 A 
ATOM     30  C   UNL     1       5.231   4.217  15.682  0.00  0.00    +0.000 A 
ENDBRANCH  24  25
ENDBRANCH  21  24
ENDBRANCH  17  18
ENDBRANCH   5  17
TORSDOF 6
ENDMDL
MODEL 3
REMARK VINA RESULT:      -7.8      1.548      2.436
REMARK  Name = 
REMARK  6 active torsions:
REMARK  status: ('A' for Active; 'I' for Inactive)
REMARK    1  A    between atoms: C_4  and  C_5
REMARK    2  A    between atoms: C_5  and  N_6
REMARK    3  A    between atoms: C_10  and  O_11
REMARK    4  A    between atoms: O_11  and  C_12
REMARK    5  A    between atoms: N_15  and  C_16
REMARK    6  A    between atoms: C_16  and  C_17
REMARK                            x       y       z     vdW  Elec       q    Type
REMARK                         _______ _______ _______ _____ _____    ______ ____
ROOT
ATOM      1  N   UNL     1      -0.001  10.073  20.440  0.00  0.00    +0.000 N 
ATOM      2  C   UNL     1      -0.065   9.309  21.583  0.00  0.00    +0.000 A 
ATOM      3  C   UNL     1       0.796   8.236  21.429  0.00  0.00    +0.000 A 
ATOM      4  C   UNL     1       1.392   8.339  20.141  0.00  0.00    +0.000 A 
ATOM      5  C   UNL     1       2.286   7.590  19.362  0.00  0.00    +0.000 A 
ATOM      6  N   UNL     1       2.639   8.047  18.140  0.00  0.00    +0.000 NA
ATOM      7  C   UNL     1       2.083   9.194  17.710  0.00  0.00    +0.000 A 
ATOM      8  N   UNL     1       1.191   9.975  18.340  0.00  0.00    +0.000 NA
ATOM      9  C   UNL     1       0.888   9.500  19.561  0.00  0.00    +0.000 A 
ENDROOT
BRANCH   1  10
ATOM     10  C   UNL     1      -0.876  11.198  20.130  0.00  0.00    +0.000 C 
BRANCH  10  14
ATOM     11  C   UNL     1      -1.087  14.056  23.360  0.00  0.00    +0.000 A 
ATOM     12  C   UNL     1      -1.995  13.002  23.300  0.00  0.00    +0.000 A 
ATOM     13  C   UNL     1      -1.941  12.093  22.239  0.00  0.00    +0.000 A 
ATOM     14  C   UNL     1      -0.967  12.219  21.239  0.00  0.00    +0.000 A 
ATOM     15  C   UNL     1      -0.056  13.284  21.314  0.00  0.00    +0.000 A 
ATOM     16  C   UNL     1      -0.116  14.199  22.370  0.00  0.00    +0.000 A 
ENDBRANCH  10  14
ENDBRANCH   1  10
BRANCH   5  17
ATOM     17  O   UNL     1       2.849   6.418  19.845  0.00  0.00    +0.000 OA
BRANCH  17  18
ATOM     18  C   UNL     1       1.949   5.296  19.939  0.00  0.00    +0.000 C 
ATOM     19  C   UNL     1       2.654   4.104  20.581  0.00  0.00    +0.000 C 
ATOM     20  C   UNL     1       3.789   3.578  19.704  0.00  0.00    +0.000 C 
ATOM     21  N   UNL     1       3.392   3.274  18.326  0.00  0.00    +0.000 NA
ATOM     22  C   UNL     1       2.606   4.328  17.678  0.00  0.00    +0.000 C 
ATOM     23  C   UNL     1       1.479   4.890  18.542  0.00  0.00    +0.000 C 
BRANCH  21  24
ATOM     24  C   UNL     1       4.536   2.840  17.489  0.00  0.00    +0.000 C 
BRANCH  24  25
ATOM     25  C   UNL     1       5.418   3.940  16.923  0.00  0.00    +0.000 A 
ATOM     26  C   UNL     1       5.382   4.257  15.559  0.00  0.00    +0.000 A 
ATOM     27  C   UNL     1       6.250   5.220  15.069  0.00  0.00    +0.000 A 
ATOM     28  N   UNL     1       7.128   5.901  15.835  0.00  0.00    +0.000 NA
ATOM     29  C   UNL     1       7.136   5.600  17.151  0.00  0.00    +0.000 A 
ATOM     30  C   UNL     1       6.315   4.645  17.734  0.00  0.00    +0.000 A 
ENDBRANCH  24  25
ENDBRANCH  21  24
ENDBRANCH  17  18
ENDBRANCH   5  17
TORSDOF 6
ENDMDL
MODEL 4
REMARK VINA RESULT:      -7.8      1.559      2.388
REMARK  Name = 
REMARK  6 active torsions:
REMARK  status: ('A' for Active; 'I' for Inactive)
REMARK    1  A    between atoms: C_4  and  C_5
REMARK    2  A    between atoms: C_5  and  N_6
REMARK    3  A    between atoms: C_10  and  O_11
REMARK    4  A    between atoms: O_11  and  C_12
REMARK    5  A    between atoms: N_15  and  C_16
REMARK    6  A    between atoms: C_16  and  C_17
REMARK                            x       y       z     vdW  Elec       q    Type
REMARK                         _______ _______ _______ _____ _____    ______ ____
ROOT
ATOM      1  N   UNL     1       0.077  10.117  20.689  0.00  0.00    +0.000 N 
ATOM      2  C   UNL     1       0.151   9.330  21.816  0.00  0.00    +0.000 A 
ATOM      3  C   UNL     1       0.992   8.267  21.540  0.00  0.00    +0.000 A 
ATOM      4  C   UNL     1       1.433   8.399  20.193  0.00  0.00    +0.000 A 
ATOM      5  C   UNL     1       2.233   7.671  19.300  0.00  0.00    +0.000 A 
ATOM      6  N   UNL     1       2.438   8.154  18.054  0.00  0.00    +0.000 NA
ATOM      7  C   UNL     1       1.831   9.306  17.716  0.00  0.00    +0.000 A 
ATOM      8  N   UNL     1       1.015  10.068  18.461  0.00  0.00    +0.000 NA
ATOM      9  C   UNL     1       0.860   9.567  19.700  0.00  0.00    +0.000 A 
ENDROOT
BRANCH   1  10
ATOM     10  C   UNL     1      -0.834  11.242  20.505  0.00  0.00    +0.000 C 
BRANCH  10  14
ATOM     11  C   UNL     1       1.098  15.008  19.647  0.00  0.00    +0.000 A 
ATOM     12  C   UNL     1       0.036  14.572  18.859  0.00  0.00    +0.000 A 
ATOM     13  C   UNL     1      -0.571  13.341  19.123  0.00  0.00    +0.000 A 
ATOM     14  C   UNL     1      -0.134  12.542  20.189  0.00  0.00    +0.000 A 
ATOM     15  C   UNL     1       0.936  12.995  20.977  0.00  0.00    +0.000 A 
ATOM     16  C   UNL     1       1.550  14.222  20.707  0.00  0.00    +0.000 A 
ENDBRANCH  10  14
ENDBRANCH   1  10
BRANCH   5  17
ATOM     17  O   UNL     1       2.854   6.494  19.691  0.00  0.00    +0.000 OA
BRANCH  17  18
ATOM     18  C   UNL     1       1.980   5.357  19.839  0.00  0.00    +0.000 C 
ATOM     19  C   UNL     1       2.715   4.211  20.530  0.00  0.00    +0.000 C 
ATOM     20  C   UNL     1       3.858   3.673  19.672  0.00  0.00    +0.000 C 
ATOM     21  N   UNL     1       3.462   3.298  18.311  0.00  0.00    +0.000 NA
ATOM     22  C   UNL     1       2.650   4.304  17.621  0.00  0.00    +0.000 C 
ATOM     23  C   UNL     1       1.513   4.878  18.464  0.00  0.00    +0.000 C 
BRANCH  21  24
ATOM     24  C   UNL     1       4.612   2.853  17.488  0.00  0.00    +0.000 C 
BRANCH  24  25
ATOM     25  C   UNL     1       5.484   3.946  16.893  0.00  0.00    +0.000 A 
ATOM     26  C   UNL     1       5.500   4.177  15.512  0.00  0.00    +0.000 A 
ATOM     27  C   UNL     1       6.358   5.138  15.000  0.00  0.00    +0.000 A 
ATOM     28  N   UNL     1       7.178   5.894  15.759  0.00  0.00    +0.000 NA
ATOM     29  C   UNL     1       7.137   5.674  17.091  0.00  0.00    +0.000 A 
ATOM     30  C   UNL     1       6.320   4.729  17.696  0.00  0.00    +0.000 A 
ENDBRANCH  24  25
ENDBRANCH  21  24
ENDBRANCH  17  18
ENDBRANCH   5  17
TORSDOF 6
ENDMDL
MODEL 5
REMARK VINA RESULT:      -7.7      0.781      1.188
REMARK  Name = 
REMARK  6 active torsions:
REMARK  status: ('A' for Active; 'I' for Inactive)
REMARK    1  A    between atoms: C_4  and  C_5
REMARK    2  A    between atoms: C_5  and  N_6
REMARK    3  A    between atoms: C_10  and  O_11
REMARK    4  A    between atoms: O_11  and  C_12
REMARK    5  A    between atoms: N_15  and  C_16
REMARK    6  A    between atoms: C_16  and  C_17
REMARK                            x       y       z     vdW  Elec       q    Type
REMARK                         _______ _______ _______ _____ _____    ______ ____
ROOT
ATOM      1  N   UNL     1      -0.044  10.841  20.293  0.00  0.00    +0.000 N 
ATOM      2  C   UNL     1      -0.321  10.155  21.454  0.00  0.00    +0.000 A 
ATOM      3  C   UNL     1       0.378   8.961  21.423  0.00  0.00    +0.000 A 
ATOM      4  C   UNL     1       1.091   8.908  20.193  0.00  0.00    +0.000 A 
ATOM      5  C   UNL     1       1.926   7.996  19.530  0.00  0.00    +0.000 A 
ATOM      6  N   UNL     1       2.448   8.332  18.329  0.00  0.00    +0.000 NA
ATOM      7  C   UNL     1       2.112   9.524  17.806  0.00  0.00    +0.000 A 
ATOM      8  N   UNL     1       1.296  10.459  18.318  0.00  0.00    +0.000 NA
ATOM      9  C   UNL     1       0.821  10.098  19.524  0.00  0.00    +0.000 A 
ENDROOT
BRANCH   1  10
ATOM     10  C   UNL     1      -0.709  12.065  19.859  0.00  0.00    +0.000 C 
BRANCH  10  14
ATOM     11  C   UNL     1      -4.677  11.500  18.250  0.00  0.00    +0.000 A 
ATOM     12  C   UNL     1      -4.492  12.259  19.403  0.00  0.00    +0.000 A 
ATOM     13  C   UNL     1      -3.210  12.419  19.937  0.00  0.00    +0.000 A 
ATOM     14  C   UNL     1      -2.098  11.837  19.312  0.00  0.00    +0.000 A 
ATOM     15  C   UNL     1      -2.298  11.078  18.148  0.00  0.00    +0.000 A 
ATOM     16  C   UNL     1      -3.581  10.910  17.620  0.00  0.00    +0.000 A 
ENDBRANCH  10  14
ENDBRANCH   1  10
BRANCH   5  17
ATOM     17  O   UNL     1       2.262   6.781  20.109  0.00  0.00    +0.000 OA
BRANCH  17  18
ATOM     18  C   UNL     1       1.499   5.648  19.648  0.00  0.00    +0.000 C 
ATOM     19  C   UNL     1       1.843   4.408  20.470  0.00  0.00    +0.000 C 
ATOM     20  C   UNL     1       3.292   3.973  20.258  0.00  0.00    +0.000 C 
ATOM     21  N   UNL     1       3.665   3.791  18.852  0.00  0.00    +0.000 NA
ATOM     22  C   UNL     1       3.261   4.893  17.974  0.00  0.00    +0.000 C 
ATOM     23  C   UNL     1       1.824   5.365  18.181  0.00  0.00    +0.000 C 
BRANCH  21  24
ATOM     24  C   UNL     1       5.096   3.443  18.685  0.00  0.00    +0.000 C 
BRANCH  24  25
ATOM     25  C   UNL     1       5.941   4.416  17.879  0.00  0.00    +0.000 A 
ATOM     26  C   UNL     1       6.546   5.518  18.495  0.00  0.00    +0.000 A 
ATOM     27  C   UNL     1       7.254   6.420  17.716  0.00  0.00    +0.000 A 
ATOM     28  N   UNL     1       7.421   6.293  16.383  0.00  0.00    +0.000 NA
ATOM     29  C   UNL     1       6.850   5.213  15.807  0.00  0.00    +0.000 A 
ATOM     30  C   UNL     1       6.114   4.262  16.500  0.00  0.00    +0.000 A 
ENDBRANCH  24  25
ENDBRANCH  21  24
ENDBRANCH  17  18
ENDBRANCH   5  17
TORSDOF 6
ENDMDL
MODEL 6
REMARK VINA RESULT:      -7.7      1.099      1.988
REMARK  Name = 
REMARK  6 active torsions:
REMARK  status: ('A' for Active; 'I' for Inactive)
REMARK    1  A    between atoms: C_4  and  C_5
REMARK    2  A    between atoms: C_5  and  N_6
REMARK    3  A    between atoms: C_10  and  O_11
REMARK    4  A    between atoms: O_11  and  C_12
REMARK    5  A    between atoms: N_15  and  C_16
REMARK    6  A    between atoms: C_16  and  C_17
REMARK                            x       y       z     vdW  Elec       q    Type
REMARK                         _______ _______ _______ _____ _____    ______ ____
ROOT
ATOM      1  N   UNL     1       0.720  10.537  18.738  0.00  0.00    +0.000 N 
ATOM      2  C   UNL     1       1.564  10.098  17.743  0.00  0.00    +0.000 A 
ATOM      3  C   UNL     1       2.080   8.874  18.131  0.00  0.00    +0.000 A 
ATOM      4  C   UNL     1       1.547   8.564  19.413  0.00  0.00    +0.000 A 
ATOM      5  C   UNL     1       1.685   7.538  20.361  0.00  0.00    +0.000 A 
ATOM      6  N   UNL     1       0.965   7.595  21.503  0.00  0.00    +0.000 NA
ATOM      7  C   UNL     1       0.166   8.660  21.694  0.00  0.00    +0.000 A 
ATOM      8  N   UNL     1      -0.020   9.717  20.888  0.00  0.00    +0.000 NA
ATOM      9  C   UNL     1       0.693   9.609  19.753  0.00  0.00    +0.000 A 
ENDROOT
BRANCH   1  10
ATOM     10  C   UNL     1       0.105  11.859  18.797  0.00  0.00    +0.000 C 
BRANCH  10  14
ATOM     11  C   UNL     1      -4.190  11.702  18.372  0.00  0.00    +0.000 A 
ATOM     12  C   UNL     1      -3.370  11.173  17.379  0.00  0.00    +0.000 A 
ATOM     13  C   UNL     1      -1.979  11.248  17.506  0.00  0.00    +0.000 A 
ATOM     14  C   UNL     1      -1.396  11.836  18.637  0.00  0.00    +0.000 A 
ATOM     15  C   UNL     1      -2.235  12.363  19.632  0.00  0.00    +0.000 A 
ATOM     16  C   UNL     1      -3.625  12.297  19.500  0.00  0.00    +0.000 A 
ENDBRANCH  10  14
ENDBRANCH   1  10
BRANCH   5  17
ATOM     17  O   UNL     1       2.508   6.449  20.122  0.00  0.00    +0.000 OA
BRANCH  17  18
ATOM     18  C   UNL     1       1.899   5.159  20.331  0.00  0.00    +0.000 C 
ATOM     19  C   UNL     1       2.959   4.127  20.708  0.00  0.00    +0.000 C 
ATOM     20  C   UNL     1       3.938   3.877  19.563  0.00  0.00    +0.000 C 
ATOM     21  N   UNL     1       3.298   3.531  18.290  0.00  0.00    +0.000 NA
ATOM     22  C   UNL     1       2.187   4.410  17.916  0.00  0.00    +0.000 C 
ATOM     23  C   UNL     1       1.205   4.698  19.049  0.00  0.00    +0.000 C 
BRANCH  21  24
ATOM     24  C   UNL     1       4.276   3.371  17.188  0.00  0.00    +0.000 C 
BRANCH  24  25
ATOM     25  C   UNL     1       5.320   4.464  17.043  0.00  0.00    +0.000 A 
ATOM     26  C   UNL     1       5.035   5.638  16.334  0.00  0.00    +0.000 A 
ATOM     27  C   UNL     1       6.035   6.584  16.167  0.00  0.00    +0.000 A 
ATOM     28  N   UNL     1       7.280   6.457  16.670  0.00  0.00    +0.000 NA
ATOM     29  C   UNL     1       7.534   5.331  17.370  0.00  0.00    +0.000 A 
ATOM     30  C   UNL     1       6.604   4.323  17.582  0.00  0.00    +0.000 A 
ENDBRANCH  24  25
ENDBRANCH  21  24
ENDBRANCH  17  18
ENDBRANCH   5  17
TORSDOF 6
ENDMDL
MODEL 7
REMARK VINA RESULT:      -7.7      0.988      1.834
REMARK  Name = 
REMARK  6 active torsions:
REMARK  status: ('A' for Active; 'I' for Inactive)
REMARK    1  A    between atoms: C_4  and  C_5
REMARK    2  A    between atoms: C_5  and  N_6
REMARK    3  A    between atoms: C_10  and  O_11
REMARK    4  A    between atoms: O_11  and  C_12
REMARK    5  A    between atoms: N_15  and  C_16
REMARK    6  A    between atoms: C_16  and  C_17
REMARK                            x       y       z     vdW  Elec       q    Type
REMARK                         _______ _______ _______ _____ _____    ______ ____
ROOT
ATOM      1  N   UNL     1       1.261  10.110  18.676  0.00  0.00    +0.000 N 
ATOM      2  C   UNL     1       1.977   9.591  17.621  0.00  0.00    +0.000 A 
ATOM      3  C   UNL     1       2.373   8.310  17.962  0.00  0.00    +0.000 A 
ATOM      4  C   UNL     1       1.900   8.044  19.277  0.00  0.00    +0.000 A 
ATOM      5  C   UNL     1       1.983   6.995  20.205  0.00  0.00    +0.000 A 
ATOM      6  N   UNL     1       1.356   7.117  21.397  0.00  0.00    +0.000 NA
ATOM      7  C   UNL     1       0.702   8.264  21.651  0.00  0.00    +0.000 A 
ATOM      8  N   UNL     1       0.585   9.348  20.868  0.00  0.00    +0.000 NA
ATOM      9  C   UNL     1       1.199   9.176  19.684  0.00  0.00    +0.000 A 
ENDROOT
BRANCH   1  10
ATOM     10  C   UNL     1       0.810  11.493  18.788  0.00  0.00    +0.000 C 
BRANCH  10  14
ATOM     11  C   UNL     1      -3.474  11.980  19.032  0.00  0.00    +0.000 A 
ATOM     12  C   UNL     1      -2.645  12.619  19.950  0.00  0.00    +0.000 A 
ATOM     13  C   UNL     1      -1.260  12.440  19.885  0.00  0.00    +0.000 A 
ATOM     14  C   UNL     1      -0.690  11.634  18.890  0.00  0.00    +0.000 A 
ATOM     15  C   UNL     1      -1.538  10.998  17.969  0.00  0.00    +0.000 A 
ATOM     16  C   UNL     1      -2.923  11.170  18.039  0.00  0.00    +0.000 A 
ENDBRANCH  10  14
ENDBRANCH   1  10
BRANCH   5  17
ATOM     17  O   UNL     1       2.656   5.822  19.901  0.00  0.00    +0.000 OA
BRANCH  17  18
ATOM     18  C   UNL     1       1.824   4.650  19.776  0.00  0.00    +0.000 C 
ATOM     19  C   UNL     1       2.555   3.423  20.313  0.00  0.00    +0.000 C 
ATOM     20  C   UNL     1       3.782   3.080  19.470  0.00  0.00    +0.000 C 
ATOM     21  N   UNL     1       3.506   2.942  18.036  0.00  0.00    +0.000 NA
ATOM     22  C   UNL     1       2.704   4.029  17.470  0.00  0.00    +0.000 C 
ATOM     23  C   UNL     1       1.483   4.410  18.305  0.00  0.00    +0.000 C 
BRANCH  21  24
ATOM     24  C   UNL     1       4.733   2.686  17.244  0.00  0.00    +0.000 C 
BRANCH  24  25
ATOM     25  C   UNL     1       5.539   3.904  16.829  0.00  0.00    +0.000 A 
ATOM     26  C   UNL     1       5.605   4.295  15.486  0.00  0.00    +0.000 A 
ATOM     27  C   UNL     1       6.405   5.372  15.136  0.00  0.00    +0.000 A 
ATOM     28  N   UNL     1       7.119   6.097  16.023  0.00  0.00    +0.000 NA
ATOM     29  C   UNL     1       7.028   5.721  17.317  0.00  0.00    +0.000 A 
ATOM     30  C   UNL     1       6.264   4.652  17.763  0.00  0.00    +0.000 A 
ENDBRANCH  24  25
ENDBRANCH  21  24
ENDBRANCH  17  18
ENDBRANCH   5  17
TORSDOF 6
ENDMDL
MODEL 8
REMARK VINA RESULT:      -7.7      2.036      3.576
REMARK  Name = 
REMARK  6 active torsions:
REMARK  status: ('A' for Active; 'I' for Inactive)
REMARK    1  A    between atoms: C_4  and  C_5
REMARK    2  A    between atoms: C_5  and  N_6
REMARK    3  A    between atoms: C_10  and  O_11
REMARK    4  A    between atoms: O_11  and  C_12
REMARK    5  A    between atoms: N_15  and  C_16
REMARK    6  A    between atoms: C_16  and  C_17
REMARK                            x       y       z     vdW  Elec       q    Type
REMARK                         _______ _______ _______ _____ _____    ______ ____
ROOT
ATOM      1  N   UNL     1       1.118  10.289  18.618  0.00  0.00    +0.000 N 
ATOM      2  C   UNL     1       1.966   9.716  17.697  0.00  0.00    +0.000 A 
ATOM      3  C   UNL     1       2.338   8.471  18.174  0.00  0.00    +0.000 A 
ATOM      4  C   UNL     1       1.711   8.286  19.438  0.00  0.00    +0.000 A 
ATOM      5  C   UNL     1       1.697   7.305  20.442  0.00  0.00    +0.000 A 
ATOM      6  N   UNL     1       0.926   7.494  21.537  0.00  0.00    +0.000 NA
ATOM      7  C   UNL     1       0.228   8.640  21.628  0.00  0.00    +0.000 A 
ATOM      8  N   UNL     1       0.190   9.664  20.761  0.00  0.00    +0.000 NA
ATOM      9  C   UNL     1       0.947   9.425  19.676  0.00  0.00    +0.000 A 
ENDROOT
BRANCH   1  10
ATOM     10  C   UNL     1       0.635  11.665  18.576  0.00  0.00    +0.000 C 
BRANCH  10  14
ATOM     11  C   UNL     1       3.616  14.493  19.903  0.00  0.00    +0.000 A 
ATOM     12  C   UNL     1       2.824  13.825  20.833  0.00  0.00    +0.000 A 
ATOM     13  C   UNL     1       1.841  12.929  20.401  0.00  0.00    +0.000 A 
ATOM     14  C   UNL     1       1.655  12.679  19.034  0.00  0.00    +0.000 A 
ATOM     15  C   UNL     1       2.463  13.357  18.107  0.00  0.00    +0.000 A 
ATOM     16  C   UNL     1       3.439  14.260  18.540  0.00  0.00    +0.000 A 
ENDBRANCH  10  14
ENDBRANCH   1  10
BRANCH   5  17
ATOM     17  O   UNL     1       2.420   6.130  20.305  0.00  0.00    +0.000 OA
BRANCH  17  18
ATOM     18  C   UNL     1       1.637   4.919  20.333  0.00  0.00    +0.000 C 
ATOM     19  C   UNL     1       2.474   3.761  20.870  0.00  0.00    +0.000 C 
ATOM     20  C   UNL     1       3.631   3.417  19.933  0.00  0.00    +0.000 C 
ATOM     21  N   UNL     1       3.228   3.175  18.545  0.00  0.00    +0.000 NA
ATOM     22  C   UNL     1       2.325   4.188  17.994  0.00  0.00    +0.000 C 
ATOM     23  C   UNL     1       1.171   4.570  18.920  0.00  0.00    +0.000 C 
BRANCH  21  24
ATOM     24  C   UNL     1       4.386   2.919  17.654  0.00  0.00    +0.000 C 
BRANCH  24  25
ATOM     25  C   UNL     1       5.055   4.139  17.045  0.00  0.00    +0.000 A 
ATOM     26  C   UNL     1       5.579   5.150  17.861  0.00  0.00    +0.000 A 
ATOM     27  C   UNL     1       6.123   6.280  17.268  0.00  0.00    +0.000 A 
ATOM     28  N   UNL     1       6.202   6.464  15.934  0.00  0.00    +0.000 NA
ATOM     29  C   UNL     1       5.712   5.471  15.160  0.00  0.00    +0.000 A 
ATOM     30  C   UNL     1       5.140   4.309  15.659  0.00  0.00    +0.000 A 
ENDBRANCH  24  25
ENDBRANCH  21  24
ENDBRANCH  17  18
ENDBRANCH   5  17
TORSDOF 6
ENDMDL
MODEL 9
REMARK VINA RESULT:      -7.6      3.119      9.399
REMARK  Name = 
REMARK  6 active torsions:
REMARK  status: ('A' for Active; 'I' for Inactive)
REMARK    1  A    between atoms: C_4  and  C_5
REMARK    2  A    between atoms: C_5  and  N_6
REMARK    3  A    between atoms: C_10  and  O_11
REMARK    4  A    between atoms: O_11  and  C_12
REMARK    5  A    between atoms: N_15  and  C_16
REMARK    6  A    between atoms: C_16  and  C_17
REMARK                            x       y       z     vdW  Elec       q    Type
REMARK                         _______ _______ _______ _____ _____    ______ ____
ROOT
ATOM      1  N   UNL     1       2.580   7.527  19.034  0.00  0.00    +0.000 N 
ATOM      2  C   UNL     1       2.477   8.103  17.788  0.00  0.00    +0.000 A 
ATOM      3  C   UNL     1       1.623   9.186  17.888  0.00  0.00    +0.000 A 
ATOM      4  C   UNL     1       1.174   9.263  19.236  0.00  0.00    +0.000 A 
ATOM      5  C   UNL     1       0.294  10.065  19.980  0.00  0.00    +0.000 A 
ATOM      6  N   UNL     1       0.142   9.824  21.301  0.00  0.00    +0.000 NA
ATOM      7  C   UNL     1       0.823   8.797  21.840  0.00  0.00    +0.000 A 
ATOM      8  N   UNL     1       1.656   7.939  21.230  0.00  0.00    +0.000 NA
ATOM      9  C   UNL     1       1.801   8.229  19.924  0.00  0.00    +0.000 A 
ENDROOT
BRANCH   1  10
ATOM     10  C   UNL     1       3.249   6.263  19.325  0.00  0.00    +0.000 C 
BRANCH  10  14
ATOM     11  C   UNL     1       0.676   2.795  19.286  0.00  0.00    +0.000 A 
ATOM     12  C   UNL     1       1.188   3.299  18.093  0.00  0.00    +0.000 A 
ATOM     13  C   UNL     1       2.000   4.437  18.105  0.00  0.00    +0.000 A 
ATOM     14  C   UNL     1       2.323   5.071  19.313  0.00  0.00    +0.000 A 
ATOM     15  C   UNL     1       1.802   4.550  20.509  0.00  0.00    +0.000 A 
ATOM     16  C   UNL     1       0.983   3.418  20.495  0.00  0.00    +0.000 A 
ENDBRANCH  10  14
ENDBRANCH   1  10
BRANCH   5  17
ATOM     17  O   UNL     1      -0.380  11.124  19.392  0.00  0.00    +0.000 OA
BRANCH  17  18
ATOM     18  C   UNL     1       0.457  12.192  18.906  0.00  0.00    +0.000 C 
ATOM     19  C   UNL     1       1.400  12.669  20.008  0.00  0.00    +0.000 C 
ATOM     20  C   UNL     1       0.639  13.311  21.166  0.00  0.00    +0.000 C 
ATOM     21  N   UNL     1      -0.279  14.380  20.762  0.00  0.00    +0.000 NA
ATOM     22  C   UNL     1      -1.141  14.038  19.627  0.00  0.00    +0.000 C 
ATOM     23  C   UNL     1      -0.410  13.371  18.464  0.00  0.00    +0.000 C 
BRANCH  21  24
ATOM     24  C   UNL     1      -1.054  14.925  21.903  0.00  0.00    +0.000 C 
BRANCH  24  25
ATOM     25  C   UNL     1      -2.213  14.079  22.401  0.00  0.00    +0.000 A 
ATOM     26  C   UNL     1      -1.983  12.905  23.128  0.00  0.00    +0.000 A 
ATOM     27  C   UNL     1      -3.064  12.125  23.508  0.00  0.00    +0.000 A 
ATOM     28  N   UNL     1      -4.348  12.438  23.238  0.00  0.00    +0.000 NA
ATOM     29  C   UNL     1      -4.556  13.584  22.555  0.00  0.00    +0.000 A 
ATOM     30  C   UNL     1      -3.540  14.425  22.123  0.00  0.00    +0.000 A 
ENDBRANCH  24  25
ENDBRANCH  21  24
ENDBRANCH  17  18
ENDBRANCH   5  17
TORSDOF 6
ENDMDL
