MODEL 1
REMARK VINA RESULT:      -8.5      0.000      0.000
REMARK  Name = 
REMARK  10 active torsions:
REMARK  status: ('A' for Active; 'I' for Inactive)
REMARK    1  A    between atoms: C_1  and  C_2
REMARK    2  A    between atoms: N_4  and  C_5
REMARK    3  A    between atoms: C_5  and  C_6
REMARK    4  A    between atoms: C_5  and  C_7
REMARK    5  A    between atoms: C_7  and  C_8
REMARK    6  A    between atoms: C_11  and  C_12
REMARK    7  A    between atoms: C_13  and  C_14
REMARK    8  A    between atoms: C_17  and  C_18
REMARK    9  A    between atoms: N_20  and  C_21
REMARK   10  A    between atoms: C_21  and  C_22
REMARK                            x       y       z     vdW  Elec       q    Type
REMARK                         _______ _______ _______ _____ _____    ______ ____
ROOT
ATOM      1  C   UNL     1       7.659   7.808  18.017  0.00  0.00    +0.000 A 
ATOM      2  C   UNL     1       6.488   7.663  17.270  0.00  0.00    +0.000 A 
ATOM      3  C   UNL     1       5.795   6.449  17.283  0.00  0.00    +0.000 A 
ATOM      4  C   UNL     1       6.258   5.372  18.051  0.00  0.00    +0.000 A 
ATOM      5  C   UNL     1       7.439   5.514  18.791  0.00  0.00    +0.000 A 
ATOM      6  C   UNL     1       8.135   6.732  18.773  0.00  0.00    +0.000 A 
ENDROOT
BRANCH   4   7
ATOM      7  C   UNL     1       5.476   4.103  18.010  0.00  0.00    +0.000 C 
ATOM      8  O   UNL     1       4.954   3.747  16.958  0.00  0.00    +0.000 OA
ATOM      9  N   UNL     1       5.352   3.401  19.189  0.00  0.00    +0.000 N 
ATOM     10  H   UNL     1       5.686   3.801  20.054  0.00  0.00    +0.000 HD
BRANCH   9  11
ATOM     11  C   UNL     1       4.558   2.193  19.269  0.00  0.00    +0.000 C 
BRANCH  11  12
ATOM     12  C   UNL     1       3.113   2.511  19.542  0.00  0.00    +0.000 A 
ATOM     13  C   UNL     1       2.129   2.233  18.588  0.00  0.00    +0.000 A 
ATOM     14  C   UNL     1       0.811   2.555  18.876  0.00  0.00    +0.000 A 
ATOM     15  N   UNL     1       0.415   3.133  20.030  0.00  0.00    +0.000 NA
ATOM     16  C   UNL     1       1.379   3.400  20.935  0.00  0.00    +0.000 A 
ATOM     17  C   UNL     1       2.722   3.114  20.741  0.00  0.00    +0.000 A 
ENDBRANCH  11  12
ENDBRANCH   9  11
ENDBRANCH   4   7
BRANCH   1  19
ATOM     18  C   UNL     1       8.940  10.109  18.013  0.00  0.00    +0.000 C 
ATOM     19  C   UNL     1       8.364   9.054  18.005  0.00  0.00    +0.000 C 
BRANCH  18  23
ATOM     20  C   UNL     1      10.931  13.849  18.273  0.00  0.00    +0.000 A 
ATOM     21  C   UNL     1       9.578  13.786  17.910  0.00  0.00    +0.000 A 
ATOM     22  C   UNL     1       8.925  12.554  17.808  0.00  0.00    +0.000 A 
ATOM     23  C   UNL     1       9.618  11.370  18.060  0.00  0.00    +0.000 A 
ATOM     24  C   UNL     1      10.975  11.420  18.383  0.00  0.00    +0.000 A 
ATOM     25  C   UNL     1      11.631  12.652  18.483  0.00  0.00    +0.000 A 
BRANCH  20  26
ATOM     26  C   UNL     1      11.625  15.184  18.446  0.00  0.00    +0.000 C 
BRANCH  26  27
ATOM     27  C   UNL     1      10.815  16.203  19.278  0.00  0.00    +0.000 C 
ATOM     28  C   UNL     1      11.397  17.608  19.125  0.00  0.00    +0.000 C 
BRANCH  27  32
ATOM     29  C   UNL     1       9.705  15.433  22.829  0.00  0.00    +0.000 C 
ATOM     30  C   UNL     1       9.562  15.796  21.376  0.00  0.00    +0.000 C 
ATOM     31  O   UNL     1       8.473  16.024  20.862  0.00  0.00    +0.000 OA
ATOM     32  N   UNL     1      10.758  15.836  20.691  0.00  0.00    +0.000 N 
ATOM     33  H   UNL     1      11.621  15.681  21.196  0.00  0.00    +0.000 HD
ENDBRANCH  27  32
ENDBRANCH  26  27
ENDBRANCH  20  26
ENDBRANCH  18  23
ENDBRANCH   1  19
TORSDOF 8
ENDMDL
MODEL 2
REMARK VINA RESULT:      -8.2      0.968      1.562
REMARK  Name = 
REMARK  10 active torsions:
REMARK  status: ('A' for Active; 'I' for Inactive)
REMARK    1  A    between atoms: C_1  and  C_2
REMARK    2  A    between atoms: N_4  and  C_5
REMARK    3  A    between atoms: C_5  and  C_6
REMARK    4  A    between atoms: C_5  and  C_7
REMARK    5  A    between atoms: C_7  and  C_8
REMARK    6  A    between atoms: C_11  and  C_12
REMARK    7  A    between atoms: C_13  and  C_14
REMARK    8  A    between atoms: C_17  and  C_18
REMARK    9  A    between atoms: N_20  and  C_21
REMARK   10  A    between atoms: C_21  and  C_22
REMARK                            x       y       z     vdW  Elec       q    Type
REMARK                         _______ _______ _______ _____ _____    ______ ____
ROOT
ATOM      1  C   UNL     1       7.632   7.805  18.003  0.00  0.00    +0.000 A 
ATOM      2  C   UNL     1       8.085   6.712  18.745  0.00  0.00    +0.000 A 
ATOM      3  C   UNL     1       7.382   5.505  18.712  0.00  0.00    +0.000 A 
ATOM      4  C   UNL     1       6.227   5.373  17.930  0.00  0.00    +0.000 A 
ATOM      5  C   UNL     1       5.767   6.473  17.194  0.00  0.00    +0.000 A 
ATOM      6  C   UNL     1       6.471   7.685  17.232  0.00  0.00    +0.000 A 
ENDROOT
BRANCH   4   7
ATOM      7  C   UNL     1       5.521   4.059  17.950  0.00  0.00    +0.000 C 
ATOM      8  O   UNL     1       5.128   3.567  16.897  0.00  0.00    +0.000 OA
ATOM      9  N   UNL     1       5.317   3.473  19.180  0.00  0.00    +0.000 N 
ATOM     10  H   UNL     1       5.541   3.978  20.025  0.00  0.00    +0.000 HD
BRANCH   9  11
ATOM     11  C   UNL     1       4.584   2.232  19.312  0.00  0.00    +0.000 C 
BRANCH  11  12
ATOM     12  C   UNL     1       3.120   2.489  19.548  0.00  0.00    +0.000 A 
ATOM     13  C   UNL     1       2.198   2.369  18.504  0.00  0.00    +0.000 A 
ATOM     14  C   UNL     1       0.860   2.629  18.762  0.00  0.00    +0.000 A 
ATOM     15  N   UNL     1       0.388   3.001  19.971  0.00  0.00    +0.000 NA
ATOM     16  C   UNL     1       1.293   3.118  20.965  0.00  0.00    +0.000 A 
ATOM     17  C   UNL     1       2.650   2.878  20.806  0.00  0.00    +0.000 A 
ENDBRANCH  11  12
ENDBRANCH   9  11
ENDBRANCH   4   7
BRANCH   1  19
ATOM     18  C   UNL     1       8.957  10.079  18.084  0.00  0.00    +0.000 C 
ATOM     19  C   UNL     1       8.357   9.040  18.035  0.00  0.00    +0.000 C 
BRANCH  18  23
ATOM     20  C   UNL     1      11.063  13.744  18.491  0.00  0.00    +0.000 A 
ATOM     21  C   UNL     1       9.753  13.726  17.991  0.00  0.00    +0.000 A 
ATOM     22  C   UNL     1       9.063  12.519  17.842  0.00  0.00    +0.000 A 
ATOM     23  C   UNL     1       9.678  11.314  18.182  0.00  0.00    +0.000 A 
ATOM     24  C   UNL     1      10.996  11.318  18.642  0.00  0.00    +0.000 A 
ATOM     25  C   UNL     1      11.688  12.525  18.790  0.00  0.00    +0.000 A 
BRANCH  20  26
ATOM     26  C   UNL     1      11.789  15.053  18.714  0.00  0.00    +0.000 C 
BRANCH  26  27
ATOM     27  C   UNL     1      11.259  15.861  19.919  0.00  0.00    +0.000 C 
ATOM     28  C   UNL     1      10.867  14.927  21.063  0.00  0.00    +0.000 C 
BRANCH  27  32
ATOM     29  C   UNL     1       8.657  18.622  19.713  0.00  0.00    +0.000 C 
ATOM     30  C   UNL     1       9.888  17.906  20.197  0.00  0.00    +0.000 C 
ATOM     31  O   UNL     1      10.607  18.363  21.078  0.00  0.00    +0.000 OA
ATOM     32  N   UNL     1      10.125  16.709  19.556  0.00  0.00    +0.000 N 
ATOM     33  H   UNL     1       9.459  16.376  18.871  0.00  0.00    +0.000 HD
ENDBRANCH  27  32
ENDBRANCH  26  27
ENDBRANCH  20  26
ENDBRANCH  18  23
ENDBRANCH   1  19
TORSDOF 8
ENDMDL
MODEL 3
REMARK VINA RESULT:      -8.2      1.093      1.852
REMARK  Name = 
REMARK  10 active torsions:
REMARK  status: ('A' for Active; 'I' for Inactive)
REMARK    1  A    between atoms: C_1  and  C_2
REMARK    2  A    between atoms: N_4  and  C_5
REMARK    3  A    between atoms: C_5  and  C_6
REMARK    4  A    between atoms: C_5  and  C_7
REMARK    5  A    between atoms: C_7  and  C_8
REMARK    6  A    between atoms: C_11  and  C_12
REMARK    7  A    between atoms: C_13  and  C_14
REMARK    8  A    between atoms: C_17  and  C_18
REMARK    9  A    between atoms: N_20  and  C_21
REMARK   10  A    between atoms: C_21  and  C_22
REMARK                            x       y       z     vdW  Elec       q    Type
REMARK                         _______ _______ _______ _____ _____    ______ ____
ROOT
ATOM      1  C   UNL     1       7.811   7.779  18.176  0.00  0.00    +0.000 A 
ATOM      2  C   UNL     1       6.708   7.719  17.322  0.00  0.00    +0.000 A 
ATOM      3  C   UNL     1       5.961   6.541  17.226  0.00  0.00    +0.000 A 
ATOM      4  C   UNL     1       6.301   5.417  17.990  0.00  0.00    +0.000 A 
ATOM      5  C   UNL     1       7.415   5.474  18.838  0.00  0.00    +0.000 A 
ATOM      6  C   UNL     1       8.165   6.656  18.930  0.00  0.00    +0.000 A 
ENDROOT
BRANCH   4   7
ATOM      7  C   UNL     1       5.468   4.190  17.829  0.00  0.00    +0.000 C 
ATOM      8  O   UNL     1       4.916   3.969  16.756  0.00  0.00    +0.000 OA
ATOM      9  N   UNL     1       5.335   3.371  18.929  0.00  0.00    +0.000 N 
ATOM     10  H   UNL     1       5.698   3.663  19.825  0.00  0.00    +0.000 HD
BRANCH   9  11
ATOM     11  C   UNL     1       4.494   2.193  18.895  0.00  0.00    +0.000 C 
BRANCH  11  12
ATOM     12  C   UNL     1       3.094   2.512  19.345  0.00  0.00    +0.000 A 
ATOM     13  C   UNL     1       2.838   2.884  20.669  0.00  0.00    +0.000 A 
ATOM     14  C   UNL     1       1.531   3.155  21.044  0.00  0.00    +0.000 A 
ATOM     15  N   UNL     1       0.477   3.076  20.204  0.00  0.00    +0.000 NA
ATOM     16  C   UNL     1       0.743   2.710  18.933  0.00  0.00    +0.000 A 
ATOM     17  C   UNL     1       2.014   2.420  18.462  0.00  0.00    +0.000 A 
ENDBRANCH  11  12
ENDBRANCH   9  11
ENDBRANCH   4   7
BRANCH   1  19
ATOM     18  C   UNL     1       9.187  10.017  18.357  0.00  0.00    +0.000 C 
ATOM     19  C   UNL     1       8.570   8.989  18.277  0.00  0.00    +0.000 C 
BRANCH  18  23
ATOM     20  C   UNL     1      11.344  13.666  18.594  0.00  0.00    +0.000 A 
ATOM     21  C   UNL     1      11.676  12.587  19.425  0.00  0.00    +0.000 A 
ATOM     22  C   UNL     1      10.957  11.390  19.360  0.00  0.00    +0.000 A 
ATOM     23  C   UNL     1       9.891  11.260  18.469  0.00  0.00    +0.000 A 
ATOM     24  C   UNL     1       9.528  12.342  17.666  0.00  0.00    +0.000 A 
ATOM     25  C   UNL     1      10.246  13.541  17.731  0.00  0.00    +0.000 A 
BRANCH  20  26
ATOM     26  C   UNL     1      12.160  14.941  18.617  0.00  0.00    +0.000 C 
BRANCH  26  27
ATOM     27  C   UNL     1      11.494  16.092  19.404  0.00  0.00    +0.000 C 
ATOM     28  C   UNL     1      11.332  15.713  20.877  0.00  0.00    +0.000 C 
BRANCH  27  32
ATOM     29  C   UNL     1       8.321  17.919  18.395  0.00  0.00    +0.000 C 
ATOM     30  C   UNL     1       9.676  17.730  19.018  0.00  0.00    +0.000 C 
ATOM     31  O   UNL     1      10.252  18.628  19.620  0.00  0.00    +0.000 OA
ATOM     32  N   UNL     1      10.200  16.467  18.839  0.00  0.00    +0.000 N 
ATOM     33  H   UNL     1       9.644  15.764  18.370  0.00  0.00    +0.000 HD
ENDBRANCH  27  32
ENDBRANCH  26  27
ENDBRANCH  20  26
ENDBRANCH  18  23
ENDBRANCH   1  19
TORSDOF 8
ENDMDL
MODEL 4
REMARK VINA RESULT:      -7.8      1.517      1.832
REMARK  Name = 
REMARK  10 active torsions:
REMARK  status: ('A' for Active; 'I' for Inactive)
REMARK    1  A    between atoms: C_1  and  C_2
REMARK    2  A    between atoms: N_4  and  C_5
REMARK    3  A    between atoms: C_5  and  C_6
REMARK    4  A    between atoms: C_5  and  C_7
REMARK    5  A    between atoms: C_7  and  C_8
REMARK    6  A    between atoms: C_11  and  C_12
REMARK    7  A    between atoms: C_13  and  C_14
REMARK    8  A    between atoms: C_17  and  C_18
REMARK    9  A    between atoms: N_20  and  C_21
REMARK   10  A    between atoms: C_21  and  C_22
REMARK                            x       y       z     vdW  Elec       q    Type
REMARK                         _______ _______ _______ _____ _____    ______ ____
ROOT
ATOM      1  C   UNL     1       8.022   8.194  18.110  0.00  0.00    +0.000 A 
ATOM      2  C   UNL     1       7.008   8.012  17.167  0.00  0.00    +0.000 A 
ATOM      3  C   UNL     1       6.377   6.770  17.051  0.00  0.00    +0.000 A 
ATOM      4  C   UNL     1       6.744   5.703  17.881  0.00  0.00    +0.000 A 
ATOM      5  C   UNL     1       7.769   5.883  18.818  0.00  0.00    +0.000 A 
ATOM      6  C   UNL     1       8.404   7.129  18.931  0.00  0.00    +0.000 A 
ENDROOT
BRANCH   4   7
ATOM      7  C   UNL     1       6.036   4.403  17.694  0.00  0.00    +0.000 C 
ATOM      8  O   UNL     1       5.958   3.912  16.572  0.00  0.00    +0.000 OA
ATOM      9  N   UNL     1       5.469   3.829  18.811  0.00  0.00    +0.000 N 
ATOM     10  H   UNL     1       5.445   4.335  19.684  0.00  0.00    +0.000 HD
BRANCH   9  11
ATOM     11  C   UNL     1       4.704   2.603  18.723  0.00  0.00    +0.000 C 
BRANCH  11  12
ATOM     12  C   UNL     1       3.239   2.889  18.538  0.00  0.00    +0.000 A 
ATOM     13  C   UNL     1       2.273   1.980  18.981  0.00  0.00    +0.000 A 
ATOM     14  C   UNL     1       0.934   2.278  18.777  0.00  0.00    +0.000 A 
ATOM     15  N   UNL     1       0.499   3.400  18.164  0.00  0.00    +0.000 NA
ATOM     16  C   UNL     1       1.445   4.262  17.738  0.00  0.00    +0.000 A 
ATOM     17  C   UNL     1       2.807   4.055  17.897  0.00  0.00    +0.000 A 
ENDBRANCH  11  12
ENDBRANCH   9  11
ENDBRANCH   4   7
BRANCH   1  19
ATOM     18  C   UNL     1       9.187  10.547  18.315  0.00  0.00    +0.000 C 
ATOM     19  C   UNL     1       8.664   9.469  18.231  0.00  0.00    +0.000 C 
BRANCH  18  23
ATOM     20  C   UNL     1      10.889  14.434  18.476  0.00  0.00    +0.000 A 
ATOM     21  C   UNL     1      11.661  13.333  18.075  0.00  0.00    +0.000 A 
ATOM     22  C   UNL     1      11.107  12.050  18.037  0.00  0.00    +0.000 A 
ATOM     23  C   UNL     1       9.776  11.850  18.407  0.00  0.00    +0.000 A 
ATOM     24  C   UNL     1       9.012  12.932  18.845  0.00  0.00    +0.000 A 
ATOM     25  C   UNL     1       9.566  14.216  18.886  0.00  0.00    +0.000 A 
BRANCH  20  26
ATOM     26  C   UNL     1      11.467  15.833  18.458  0.00  0.00    +0.000 C 
BRANCH  26  27
ATOM     27  C   UNL     1      10.433  16.929  18.120  0.00  0.00    +0.000 C 
ATOM     28  C   UNL     1      11.068  18.023  17.262  0.00  0.00    +0.000 C 
BRANCH  27  32
ATOM     29  C   UNL     1       8.139  18.621  20.631  0.00  0.00    +0.000 C 
ATOM     30  C   UNL     1       8.562  18.029  19.316  0.00  0.00    +0.000 C 
ATOM     31  O   UNL     1       7.822  18.005  18.339  0.00  0.00    +0.000 OA
ATOM     32  N   UNL     1       9.842  17.515  19.321  0.00  0.00    +0.000 N 
ATOM     33  H   UNL     1      10.409  17.613  20.153  0.00  0.00    +0.000 HD
ENDBRANCH  27  32
ENDBRANCH  26  27
ENDBRANCH  20  26
ENDBRANCH  18  23
ENDBRANCH   1  19
TORSDOF 8
ENDMDL
MODEL 5
REMARK VINA RESULT:      -7.8      7.912     11.719
REMARK  Name = 
REMARK  10 active torsions:
REMARK  status: ('A' for Active; 'I' for Inactive)
REMARK    1  A    between atoms: C_1  and  C_2
REMARK    2  A    between atoms: N_4  and  C_5
REMARK    3  A    between atoms: C_5  and  C_6
REMARK    4  A    between atoms: C_5  and  C_7
REMARK    5  A    between atoms: C_7  and  C_8
REMARK    6  A    between atoms: C_11  and  C_12
REMARK    7  A    between atoms: C_13  and  C_14
REMARK    8  A    between atoms: C_17  and  C_18
REMARK    9  A    between atoms: N_20  and  C_21
REMARK   10  A    between atoms: C_21  and  C_22
REMARK                            x       y       z     vdW  Elec       q    Type
REMARK                         _______ _______ _______ _____ _____    ______ ____
ROOT
ATOM      1  C   UNL     1       0.638   9.499  20.783  0.00  0.00    +0.000 A 
ATOM      2  C   UNL     1       0.104  10.673  20.247  0.00  0.00    +0.000 A 
ATOM      3  C   UNL     1      -0.679  11.512  21.045  0.00  0.00    +0.000 A 
ATOM      4  C   UNL     1      -0.927  11.194  22.386  0.00  0.00    +0.000 A 
ATOM      5  C   UNL     1      -0.401  10.010  22.920  0.00  0.00    +0.000 A 
ATOM      6  C   UNL     1       0.381   9.167  22.117  0.00  0.00    +0.000 A 
ENDROOT
BRANCH   4   7
ATOM      7  C   UNL     1      -1.780  12.129  23.176  0.00  0.00    +0.000 C 
ATOM      8  O   UNL     1      -1.318  13.203  23.547  0.00  0.00    +0.000 OA
ATOM      9  N   UNL     1      -3.058  11.712  23.479  0.00  0.00    +0.000 N 
ATOM     10  H   UNL     1      -3.347  10.768  23.266  0.00  0.00    +0.000 HD
BRANCH   9  11
ATOM     11  C   UNL     1      -3.941  12.517  24.296  0.00  0.00    +0.000 C 
BRANCH  11  12
ATOM     12  C   UNL     1      -4.755  13.459  23.450  0.00  0.00    +0.000 A 
ATOM     13  C   UNL     1      -5.588  12.969  22.439  0.00  0.00    +0.000 A 
ATOM     14  C   UNL     1      -6.310  13.873  21.674  0.00  0.00    +0.000 A 
ATOM     15  N   UNL     1      -6.252  15.212  21.841  0.00  0.00    +0.000 NA
ATOM     16  C   UNL     1      -5.439  15.665  22.816  0.00  0.00    +0.000 A 
ATOM     17  C   UNL     1      -4.679  14.842  23.634  0.00  0.00    +0.000 A 
ENDBRANCH  11  12
ENDBRANCH   9  11
ENDBRANCH   4   7
BRANCH   1  19
ATOM     18  C   UNL     1       2.120   7.909  19.296  0.00  0.00    +0.000 C 
ATOM     19  C   UNL     1       1.444   8.644  19.965  0.00  0.00    +0.000 C 
BRANCH  18  23
ATOM     20  C   UNL     1       4.370   5.222  16.899  0.00  0.00    +0.000 A 
ATOM     21  C   UNL     1       3.562   4.743  17.941  0.00  0.00    +0.000 A 
ATOM     22  C   UNL     1       2.833   5.628  18.741  0.00  0.00    +0.000 A 
ATOM     23  C   UNL     1       2.909   7.003  18.516  0.00  0.00    +0.000 A 
ATOM     24  C   UNL     1       3.742   7.491  17.508  0.00  0.00    +0.000 A 
ATOM     25  C   UNL     1       4.473   6.608  16.707  0.00  0.00    +0.000 A 
BRANCH  20  26
ATOM     26  C   UNL     1       5.112   4.265  15.991  0.00  0.00    +0.000 C 
BRANCH  26  27
ATOM     27  C   UNL     1       6.646   4.306  16.163  0.00  0.00    +0.000 C 
ATOM     28  C   UNL     1       7.020   4.903  17.520  0.00  0.00    +0.000 C 
BRANCH  27  32
ATOM     29  C   UNL     1       7.951   5.541  12.816  0.00  0.00    +0.000 C 
ATOM     30  C   UNL     1       7.182   4.671  13.772  0.00  0.00    +0.000 C 
ATOM     31  O   UNL     1       6.512   3.717  13.395  0.00  0.00    +0.000 OA
ATOM     32  N   UNL     1       7.299   5.055  15.091  0.00  0.00    +0.000 N 
ATOM     33  H   UNL     1       7.908   5.826  15.328  0.00  0.00    +0.000 HD
ENDBRANCH  27  32
ENDBRANCH  26  27
ENDBRANCH  20  26
ENDBRANCH  18  23
ENDBRANCH   1  19
TORSDOF 8
ENDMDL
MODEL 6
REMARK VINA RESULT:      -7.6      7.583     10.541
REMARK  Name = 
REMARK  10 active torsions:
REMARK  status: ('A' for Active; 'I' for Inactive)
REMARK    1  A    between atoms: C_1  and  C_2
REMARK    2  A    between atoms: N_4  and  C_5
REMARK    3  A    between atoms: C_5  and  C_6
REMARK    4  A    between atoms: C_5  and  C_7
REMARK    5  A    between atoms: C_7  and  C_8
REMARK    6  A    between atoms: C_11  and  C_12
REMARK    7  A    between atoms: C_13  and  C_14
REMARK    8  A    between atoms: C_17  and  C_18
REMARK    9  A    between atoms: N_20  and  C_21
REMARK   10  A    between atoms: C_21  and  C_22
REMARK                            x       y       z     vdW  Elec       q    Type
REMARK                         _______ _______ _______ _____ _____    ______ ____
ROOT
ATOM      1  C   UNL     1       2.057   8.050  19.225  0.00  0.00    +0.000 A 
ATOM      2  C   UNL     1       2.321   6.862  19.911  0.00  0.00    +0.000 A 
ATOM      3  C   UNL     1       3.205   5.924  19.370  0.00  0.00    +0.000 A 
ATOM      4  C   UNL     1       3.843   6.168  18.147  0.00  0.00    +0.000 A 
ATOM      5  C   UNL     1       3.569   7.354  17.454  0.00  0.00    +0.000 A 
ATOM      6  C   UNL     1       2.678   8.292  17.996  0.00  0.00    +0.000 A 
ENDROOT
BRANCH   4   7
ATOM      7  C   UNL     1       4.765   5.119  17.624  0.00  0.00    +0.000 C 
ATOM      8  O   UNL     1       4.533   3.937  17.857  0.00  0.00    +0.000 OA
ATOM      9  N   UNL     1       5.869   5.546  16.919  0.00  0.00    +0.000 N 
ATOM     10  H   UNL     1       6.087   6.530  16.867  0.00  0.00    +0.000 HD
BRANCH   9  11
ATOM     11  C   UNL     1       6.859   4.611  16.427  0.00  0.00    +0.000 C 
BRANCH  11  12
ATOM     12  C   UNL     1       6.794   4.490  14.929  0.00  0.00    +0.000 A 
ATOM     13  C   UNL     1       5.857   3.648  14.322  0.00  0.00    +0.000 A 
ATOM     14  C   UNL     1       5.841   3.556  12.938  0.00  0.00    +0.000 A 
ATOM     15  N   UNL     1       6.688   4.230  12.131  0.00  0.00    +0.000 NA
ATOM     16  C   UNL     1       7.589   5.032  12.735  0.00  0.00    +0.000 A 
ATOM     17  C   UNL     1       7.682   5.193  14.109  0.00  0.00    +0.000 A 
ENDBRANCH  11  12
ENDBRANCH   9  11
ENDBRANCH   4   7
BRANCH   1  19
ATOM     18  C   UNL     1       0.392   9.802  20.271  0.00  0.00    +0.000 C 
ATOM     19  C   UNL     1       1.154   9.011  19.784  0.00  0.00    +0.000 C 
BRANCH  18  23
ATOM     20  C   UNL     1      -2.189  12.639  22.091  0.00  0.00    +0.000 A 
ATOM     21  C   UNL     1      -1.461  11.732  22.874  0.00  0.00    +0.000 A 
ATOM     22  C   UNL     1      -0.622  10.787  22.276  0.00  0.00    +0.000 A 
ATOM     23  C   UNL     1      -0.508  10.730  20.886  0.00  0.00    +0.000 A 
ATOM     24  C   UNL     1      -1.261  11.602  20.097  0.00  0.00    +0.000 A 
ATOM     25  C   UNL     1      -2.101  12.547  20.694  0.00  0.00    +0.000 A 
BRANCH  20  26
ATOM     26  C   UNL     1      -3.049  13.705  22.737  0.00  0.00    +0.000 C 
BRANCH  26  27
ATOM     27  C   UNL     1      -4.421  13.187  23.221  0.00  0.00    +0.000 C 
ATOM     28  C   UNL     1      -4.285  12.485  24.572  0.00  0.00    +0.000 C 
BRANCH  27  32
ATOM     29  C   UNL     1      -6.564  11.660  20.481  0.00  0.00    +0.000 C 
ATOM     30  C   UNL     1      -6.016  12.734  21.380  0.00  0.00    +0.000 C 
ATOM     31  O   UNL     1      -6.404  13.895  21.326  0.00  0.00    +0.000 OA
ATOM     32  N   UNL     1      -5.044  12.289  22.251  0.00  0.00    +0.000 N 
ATOM     33  H   UNL     1      -4.809  11.306  22.268  0.00  0.00    +0.000 HD
ENDBRANCH  27  32
ENDBRANCH  26  27
ENDBRANCH  20  26
ENDBRANCH  18  23
ENDBRANCH   1  19
TORSDOF 8
ENDMDL
MODEL 7
REMARK VINA RESULT:      -7.5      7.400      9.866
REMARK  Name = 
REMARK  10 active torsions:
REMARK  status: ('A' for Active; 'I' for Inactive)
REMARK    1  A    between atoms: C_1  and  C_2
REMARK    2  A    between atoms: N_4  and  C_5
REMARK    3  A    between atoms: C_5  and  C_6
REMARK    4  A    between atoms: C_5  and  C_7
REMARK    5  A    between atoms: C_7  and  C_8
REMARK    6  A    between atoms: C_11  and  C_12
REMARK    7  A    between atoms: C_13  and  C_14
REMARK    8  A    between atoms: C_17  and  C_18
REMARK    9  A    between atoms: N_20  and  C_21
REMARK   10  A    between atoms: C_21  and  C_22
REMARK                            x       y       z     vdW  Elec       q    Type
REMARK                         _______ _______ _______ _____ _____    ______ ____
ROOT
ATOM      1  C   UNL     1       2.166   7.874  19.234  0.00  0.00    +0.000 A 
ATOM      2  C   UNL     1       2.468   6.714  19.950  0.00  0.00    +0.000 A 
ATOM      3  C   UNL     1       3.381   5.791  19.432  0.00  0.00    +0.000 A 
ATOM      4  C   UNL     1       4.010   6.022  18.202  0.00  0.00    +0.000 A 
ATOM      5  C   UNL     1       3.699   7.181  17.479  0.00  0.00    +0.000 A 
ATOM      6  C   UNL     1       2.779   8.105  17.998  0.00  0.00    +0.000 A 
ENDROOT
BRANCH   4   7
ATOM      7  C   UNL     1       4.965   4.990  17.705  0.00  0.00    +0.000 C 
ATOM      8  O   UNL     1       4.938   3.860  18.184  0.00  0.00    +0.000 OA
ATOM      9  N   UNL     1       5.866   5.378  16.738  0.00  0.00    +0.000 N 
ATOM     10  H   UNL     1       5.936   6.350  16.473  0.00  0.00    +0.000 HD
BRANCH   9  11
ATOM     11  C   UNL     1       6.876   4.470  16.239  0.00  0.00    +0.000 C 
BRANCH  11  12
ATOM     12  C   UNL     1       6.867   4.423  14.735  0.00  0.00    +0.000 A 
ATOM     13  C   UNL     1       6.018   3.546  14.053  0.00  0.00    +0.000 A 
ATOM     14  C   UNL     1       6.053   3.525  12.667  0.00  0.00    +0.000 A 
ATOM     15  N   UNL     1       6.870   4.304  11.925  0.00  0.00    +0.000 NA
ATOM     16  C   UNL     1       7.687   5.139  12.600  0.00  0.00    +0.000 A 
ATOM     17  C   UNL     1       7.724   5.233  13.983  0.00  0.00    +0.000 A 
ENDBRANCH  11  12
ENDBRANCH   9  11
ENDBRANCH   4   7
BRANCH   1  19
ATOM     18  C   UNL     1       0.446   9.599  20.234  0.00  0.00    +0.000 C 
ATOM     19  C   UNL     1       1.234   8.821  19.768  0.00  0.00    +0.000 C 
BRANCH  18  23
ATOM     20  C   UNL     1      -2.234  12.390  21.983  0.00  0.00    +0.000 A 
ATOM     21  C   UNL     1      -1.511  11.495  22.786  0.00  0.00    +0.000 A 
ATOM     22  C   UNL     1      -0.640  10.565  22.211  0.00  0.00    +0.000 A 
ATOM     23  C   UNL     1      -0.487  10.512  20.825  0.00  0.00    +0.000 A 
ATOM     24  C   UNL     1      -1.232  11.370  20.016  0.00  0.00    +0.000 A 
ATOM     25  C   UNL     1      -2.105  12.300  20.590  0.00  0.00    +0.000 A 
BRANCH  20  26
ATOM     26  C   UNL     1      -3.129  13.440  22.606  0.00  0.00    +0.000 C 
BRANCH  26  27
ATOM     27  C   UNL     1      -3.217  13.348  24.145  0.00  0.00    +0.000 C 
ATOM     28  C   UNL     1      -4.510  12.653  24.570  0.00  0.00    +0.000 C 
BRANCH  27  32
ATOM     29  C   UNL     1      -2.007  16.603  25.685  0.00  0.00    +0.000 C 
ATOM     30  C   UNL     1      -1.907  15.275  24.988  0.00  0.00    +0.000 C 
ATOM     31  O   UNL     1      -0.834  14.798  24.638  0.00  0.00    +0.000 OA
ATOM     32  N   UNL     1      -3.124  14.661  24.780  0.00  0.00    +0.000 N 
ATOM     33  H   UNL     1      -3.963  15.096  25.140  0.00  0.00    +0.000 HD
ENDBRANCH  27  32
ENDBRANCH  26  27
ENDBRANCH  20  26
ENDBRANCH  18  23
ENDBRANCH   1  19
TORSDOF 8
ENDMDL
MODEL 8
REMARK VINA RESULT:      -7.5      7.493     11.654
REMARK  Name = 
REMARK  10 active torsions:
REMARK  status: ('A' for Active; 'I' for Inactive)
REMARK    1  A    between atoms: C_1  and  C_2
REMARK    2  A    between atoms: N_4  and  C_5
REMARK    3  A    between atoms: C_5  and  C_6
REMARK    4  A    between atoms: C_5  and  C_7
REMARK    5  A    between atoms: C_7  and  C_8
REMARK    6  A    between atoms: C_11  and  C_12
REMARK    7  A    between atoms: C_13  and  C_14
REMARK    8  A    between atoms: C_17  and  C_18
REMARK    9  A    between atoms: N_20  and  C_21
REMARK   10  A    between atoms: C_21  and  C_22
REMARK                            x       y       z     vdW  Elec       q    Type
REMARK                         _______ _______ _______ _____ _____    ______ ____
ROOT
ATOM      1  C   UNL     1       1.137   9.017  19.701  0.00  0.00    +0.000 A 
ATOM      2  C   UNL     1       0.992   8.982  21.090  0.00  0.00    +0.000 A 
ATOM      3  C   UNL     1       0.200   9.937  21.734  0.00  0.00    +0.000 A 
ATOM      4  C   UNL     1      -0.463  10.928  20.998  0.00  0.00    +0.000 A 
ATOM      5  C   UNL     1      -0.307  10.969  19.607  0.00  0.00    +0.000 A 
ATOM      6  C   UNL     1       0.491  10.013  18.962  0.00  0.00    +0.000 A 
ENDROOT
BRANCH   4   7
ATOM      7  C   UNL     1      -1.282  11.921  21.751  0.00  0.00    +0.000 C 
ATOM      8  O   UNL     1      -1.188  11.981  22.974  0.00  0.00    +0.000 OA
ATOM      9  N   UNL     1      -2.141  12.712  21.021  0.00  0.00    +0.000 N 
ATOM     10  H   UNL     1      -2.280  12.535  20.037  0.00  0.00    +0.000 HD
BRANCH   9  11
ATOM     11  C   UNL     1      -3.027  13.659  21.665  0.00  0.00    +0.000 C 
BRANCH  11  12
ATOM     12  C   UNL     1      -4.418  13.101  21.792  0.00  0.00    +0.000 A 
ATOM     13  C   UNL     1      -5.026  12.448  20.716  0.00  0.00    +0.000 A 
ATOM     14  C   UNL     1      -6.315  11.961  20.872  0.00  0.00    +0.000 A 
ATOM     15  N   UNL     1      -7.031  12.086  22.010  0.00  0.00    +0.000 NA
ATOM     16  C   UNL     1      -6.431  12.725  23.036  0.00  0.00    +0.000 A 
ATOM     17  C   UNL     1      -5.147  13.245  22.977  0.00  0.00    +0.000 A 
ENDBRANCH  11  12
ENDBRANCH   9  11
ENDBRANCH   4   7
BRANCH   1  19
ATOM     18  C   UNL     1       2.643   7.223  18.497  0.00  0.00    +0.000 C 
ATOM     19  C   UNL     1       1.945   8.034  19.043  0.00  0.00    +0.000 C 
BRANCH  18  23
ATOM     20  C   UNL     1       5.154   4.419  16.532  0.00  0.00    +0.000 A 
ATOM     21  C   UNL     1       3.892   4.035  17.008  0.00  0.00    +0.000 A 
ATOM     22  C   UNL     1       3.070   4.953  17.668  0.00  0.00    +0.000 A 
ATOM     23  C   UNL     1       3.503   6.264  17.871  0.00  0.00    +0.000 A 
ATOM     24  C   UNL     1       4.774   6.644  17.437  0.00  0.00    +0.000 A 
ATOM     25  C   UNL     1       5.599   5.727  16.777  0.00  0.00    +0.000 A 
BRANCH  20  26
ATOM     26  C   UNL     1       6.020   3.446  15.761  0.00  0.00    +0.000 C 
BRANCH  26  27
ATOM     27  C   UNL     1       6.407   3.942  14.350  0.00  0.00    +0.000 C 
ATOM     28  C   UNL     1       6.996   5.351  14.417  0.00  0.00    +0.000 C 
BRANCH  27  32
ATOM     29  C   UNL     1       4.101   3.400  11.380  0.00  0.00    +0.000 C 
ATOM     30  C   UNL     1       5.354   3.290  12.204  0.00  0.00    +0.000 C 
ATOM     31  O   UNL     1       6.347   2.688  11.811  0.00  0.00    +0.000 OA
ATOM     32  N   UNL     1       5.273   3.918  13.429  0.00  0.00    +0.000 N 
ATOM     33  H   UNL     1       4.436   4.434  13.664  0.00  0.00    +0.000 HD
ENDBRANCH  27  32
ENDBRANCH  26  27
ENDBRANCH  20  26
ENDBRANCH  18  23
ENDBRANCH   1  19
TORSDOF 8
ENDMDL
MODEL 9
REMARK VINA RESULT:      -7.5      7.302      9.909
REMARK  Name = 
REMARK  10 active torsions:
REMARK  status: ('A' for Active; 'I' for Inactive)
REMARK    1  A    between atoms: C_1  and  C_2
REMARK    2  A    between atoms: N_4  and  C_5
REMARK    3  A    between atoms: C_5  and  C_6
REMARK    4  A    between atoms: C_5  and  C_7
REMARK    5  A    between atoms: C_7  and  C_8
REMARK    6  A    between atoms: C_11  and  C_12
REMARK    7  A    between atoms: C_13  and  C_14
REMARK    8  A    between atoms: C_17  and  C_18
REMARK    9  A    between atoms: N_20  and  C_21
REMARK   10  A    between atoms: C_21  and  C_22
REMARK                            x       y       z     vdW  Elec       q    Type
REMARK                         _______ _______ _______ _____ _____    ______ ____
ROOT
ATOM      1  C   UNL     1       3.008   6.934  18.321  0.00  0.00    +0.000 A 
ATOM      2  C   UNL     1       4.064   7.470  17.580  0.00  0.00    +0.000 A 
ATOM      3  C   UNL     1       4.841   6.638  16.768  0.00  0.00    +0.000 A 
ATOM      4  C   UNL     1       4.565   5.268  16.679  0.00  0.00    +0.000 A 
ATOM      5  C   UNL     1       3.513   4.729  17.431  0.00  0.00    +0.000 A 
ATOM      6  C   UNL     1       2.737   5.564  18.249  0.00  0.00    +0.000 A 
ENDROOT
BRANCH   4   7
ATOM      7  C   UNL     1       5.441   4.438  15.802  0.00  0.00    +0.000 C 
ATOM      8  O   UNL     1       5.796   3.326  16.180  0.00  0.00    +0.000 OA
ATOM      9  N   UNL     1       5.839   4.992  14.605  0.00  0.00    +0.000 N 
ATOM     10  H   UNL     1       5.630   5.958  14.399  0.00  0.00    +0.000 HD
BRANCH   9  11
ATOM     11  C   UNL     1       6.742   4.295  13.714  0.00  0.00    +0.000 C 
BRANCH  11  12
ATOM     12  C   UNL     1       5.984   3.512  12.676  0.00  0.00    +0.000 A 
ATOM     13  C   UNL     1       6.541   2.366  12.100  0.00  0.00    +0.000 A 
ATOM     14  C   UNL     1       5.814   1.683  11.137  0.00  0.00    +0.000 A 
ATOM     15  N   UNL     1       4.591   2.064  10.710  0.00  0.00    +0.000 NA
ATOM     16  C   UNL     1       4.073   3.176  11.272  0.00  0.00    +0.000 A 
ATOM     17  C   UNL     1       4.721   3.925  12.243  0.00  0.00    +0.000 A 
ENDBRANCH  11  12
ENDBRANCH   9  11
ENDBRANCH   4   7
BRANCH   1  19
ATOM     18  C   UNL     1       1.531   8.486  19.852  0.00  0.00    +0.000 C 
ATOM     19  C   UNL     1       2.211   7.789  19.148  0.00  0.00    +0.000 C 
BRANCH  18  23
ATOM     20  C   UNL     1      -0.962  10.791  22.402  0.00  0.00    +0.000 A 
ATOM     21  C   UNL     1      -0.792  11.149  21.056  0.00  0.00    +0.000 A 
ATOM     22  C   UNL     1       0.041  10.401  20.219  0.00  0.00    +0.000 A 
ATOM     23  C   UNL     1       0.721   9.289  20.718  0.00  0.00    +0.000 A 
ATOM     24  C   UNL     1       0.590   8.949  22.065  0.00  0.00    +0.000 A 
ATOM     25  C   UNL     1      -0.242   9.698  22.905  0.00  0.00    +0.000 A 
BRANCH  20  26
ATOM     26  C   UNL     1      -1.911  11.561  23.294  0.00  0.00    +0.000 C 
BRANCH  26  27
ATOM     27  C   UNL     1      -2.637  12.720  22.577  0.00  0.00    +0.000 C 
ATOM     28  C   UNL     1      -2.255  14.062  23.202  0.00  0.00    +0.000 C 
BRANCH  27  32
ATOM     29  C   UNL     1      -6.317  12.499  21.662  0.00  0.00    +0.000 C 
ATOM     30  C   UNL     1      -4.839  12.664  21.443  0.00  0.00    +0.000 C 
ATOM     31  O   UNL     1      -4.360  12.868  20.333  0.00  0.00    +0.000 OA
ATOM     32  N   UNL     1      -4.088  12.556  22.595  0.00  0.00    +0.000 N 
ATOM     33  H   UNL     1      -4.560  12.433  23.480  0.00  0.00    +0.000 HD
ENDBRANCH  27  32
ENDBRANCH  26  27
ENDBRANCH  20  26
ENDBRANCH  18  23
ENDBRANCH   1  19
TORSDOF 8
ENDMDL
