MODEL 1
REMARK VINA RESULT:      -8.5      0.000      0.000
REMARK  Name = 
REMARK  8 active torsions:
REMARK  status: ('A' for Active; 'I' for Inactive)
REMARK    1  A    between atoms: C_1  and  C_2
REMARK    2  A    between atoms: C_6  and  C_7
REMARK    3  A    between atoms: C_10  and  C_11
REMARK    4  A    between atoms: C_11  and  O_12
REMARK    5  A    between atoms: O_12  and  C_13
REMARK    6  A    between atoms: C_17  and  C_18
REMARK    7  A    between atoms: N_20  and  S_21
REMARK    8  A    between atoms: S_21  and  C_22
REMARK                            x       y       z     vdW  Elec       q    Type
REMARK                         _______ _______ _______ _____ _____    ______ ____
ROOT
ATOM      1  C   UNL     1       1.841   8.228  18.776  0.00  0.00    +0.000 A 
ATOM      2  C   UNL     1       1.468   9.562  18.511  0.00  0.00    +0.000 A 
ATOM      3  C   UNL     1       0.887  10.364  19.503  0.00  0.00    +0.000 A 
ATOM      4  F   UNL     1       0.540  11.623  19.193  0.00  0.00    +0.000 F 
ATOM      5  C   UNL     1       0.668   9.860  20.777  0.00  0.00    +0.000 A 
ATOM      6  C   UNL     1       1.032   8.539  21.044  0.00  0.00    +0.000 A 
ATOM      7  C   UNL     1       1.607   7.722  20.069  0.00  0.00    +0.000 A 
ATOM      8 CL   UNL     1       1.934   6.125  20.662  0.00  0.00    +0.000 Cl
ENDROOT
BRANCH   5   9
ATOM      9  C   UNL     1       0.044  10.592  21.898  0.00  0.00    +0.000 C 
ATOM     10  O   UNL     1       0.299  10.265  23.049  0.00  0.00    +0.000 OA
ATOM     11  N   UNL     1      -0.881  11.592  21.601  0.00  0.00    +0.000 N 
ATOM     12  H   UNL     1      -1.120  11.856  20.646  0.00  0.00    +0.000 HD
BRANCH  11  13
ATOM     13  S   UNL     1      -1.620  12.509  22.773  0.00  0.00    +0.000 S 
ATOM     14  C   UNL     1      -2.559  13.694  21.815  0.00  0.00    +0.000 C 
ATOM     15  O   UNL     1      -2.521  11.674  23.530  0.00  0.00    +0.000 OA
ATOM     16  O   UNL     1      -0.546  13.227  23.426  0.00  0.00    +0.000 OA
ENDBRANCH  11  13
ENDBRANCH   5   9
BRANCH   1  17
ATOM     17  O   UNL     1       2.397   7.603  17.681  0.00  0.00    +0.000 OA
BRANCH  17  18
ATOM     18  C   UNL     1       3.817   7.643  17.583  0.00  0.00    +0.000 C 
BRANCH  18  28
ATOM     19  C   UNL     1       6.719   4.547  14.858  0.00  0.00    +0.000 C 
ATOM     20  C   UNL     1       5.925   4.692  16.159  0.00  0.00    +0.000 C 
ATOM     21  C   UNL     1       6.846   4.497  17.384  0.00  0.00    +0.000 C 
ATOM     22  C   UNL     1       6.046   4.647  18.689  0.00  0.00    +0.000 C 
ATOM     23  C   UNL     1       4.924   3.597  18.725  0.00  0.00    +0.000 C 
ATOM     24  C   UNL     1       3.977   3.776  17.519  0.00  0.00    +0.000 C 
ATOM     25  C   UNL     1       2.857   2.731  17.559  0.00  0.00    +0.000 C 
ATOM     26  C   UNL     1       4.792   3.639  16.214  0.00  0.00    +0.000 C 
ATOM     27  C   UNL     1       3.380   5.194  17.575  0.00  0.00    +0.000 C 
ATOM     28  C   UNL     1       4.497   6.272  17.538  0.00  0.00    +0.000 C 
ATOM     29  C   UNL     1       5.433   6.057  18.745  0.00  0.00    +0.000 C 
ATOM     30  C   UNL     1       5.303   6.103  16.233  0.00  0.00    +0.000 C 
ENDBRANCH  18  28
ENDBRANCH  17  18
ENDBRANCH   1  17
TORSDOF 5
ENDMDL
MODEL 2
REMARK VINA RESULT:      -8.4      6.431      9.177
REMARK  Name = 
REMARK  8 active torsions:
REMARK  status: ('A' for Active; 'I' for Inactive)
REMARK    1  A    between atoms: C_1  and  C_2
REMARK    2  A    between atoms: C_6  and  C_7
REMARK    3  A    between atoms: C_10  and  C_11
REMARK    4  A    between atoms: C_11  and  O_12
REMARK    5  A    between atoms: O_12  and  C_13
REMARK    6  A    between atoms: C_17  and  C_18
REMARK    7  A    between atoms: N_20  and  S_21
REMARK    8  A    between atoms: S_21  and  C_22
REMARK                            x       y       z     vdW  Elec       q    Type
REMARK                         _______ _______ _______ _____ _____    ______ ____
ROOT
ATOM      1  C   UNL     1       7.795   7.301  18.334  0.00  0.00    +0.000 A 
ATOM      2  C   UNL     1       6.926   7.562  17.255  0.00  0.00    +0.000 A 
ATOM      3  C   UNL     1       5.936   6.641  16.880  0.00  0.00    +0.000 A 
ATOM      4  F   UNL     1       5.144   6.936  15.838  0.00  0.00    +0.000 F 
ATOM      5  C   UNL     1       5.790   5.446  17.569  0.00  0.00    +0.000 A 
ATOM      6  C   UNL     1       6.650   5.180  18.636  0.00  0.00    +0.000 A 
ATOM      7  C   UNL     1       7.644   6.081  19.023  0.00  0.00    +0.000 A 
ATOM      8 CL   UNL     1       8.584   5.489  20.355  0.00  0.00    +0.000 Cl
ENDROOT
BRANCH   5   9
ATOM      9  C   UNL     1       4.808   4.388  17.259  0.00  0.00    +0.000 C 
ATOM     10  O   UNL     1       4.700   3.983  16.109  0.00  0.00    +0.000 OA
ATOM     11  N   UNL     1       3.977   3.935  18.283  0.00  0.00    +0.000 N 
ATOM     12  H   UNL     1       4.041   4.283  19.239  0.00  0.00    +0.000 HD
BRANCH  11  13
ATOM     13  S   UNL     1       2.860   2.724  18.066  0.00  0.00    +0.000 S 
ATOM     14  C   UNL     1       2.046   2.646  19.658  0.00  0.00    +0.000 C 
ATOM     15  O   UNL     1       1.913   3.129  17.055  0.00  0.00    +0.000 OA
ATOM     16  O   UNL     1       3.639   1.514  17.913  0.00  0.00    +0.000 OA
ENDBRANCH  11  13
ENDBRANCH   5   9
BRANCH   1  17
ATOM     17  O   UNL     1       8.695   8.321  18.553  0.00  0.00    +0.000 OA
BRANCH  17  18
ATOM     18  C   UNL     1       8.459   9.534  17.845  0.00  0.00    +0.000 C 
BRANCH  18  28
ATOM     19  C   UNL     1       9.523  12.076  22.068  0.00  0.00    +0.000 C 
ATOM     20  C   UNL     1       9.663  12.072  20.543  0.00  0.00    +0.000 C 
ATOM     21  C   UNL     1      11.153  12.106  20.134  0.00  0.00    +0.000 C 
ATOM     22  C   UNL     1      11.290  12.098  18.602  0.00  0.00    +0.000 C 
ATOM     23  C   UNL     1      10.574  13.328  18.017  0.00  0.00    +0.000 C 
ATOM     24  C   UNL     1       9.079  13.314  18.399  0.00  0.00    +0.000 C 
ATOM     25  C   UNL     1       8.367  14.538  17.812  0.00  0.00    +0.000 C 
ATOM     26  C   UNL     1       8.951  13.306  19.939  0.00  0.00    +0.000 C 
ATOM     27  C   UNL     1       8.448  12.021  17.851  0.00  0.00    +0.000 C 
ATOM     28  C   UNL     1       9.155  10.766  18.430  0.00  0.00    +0.000 C 
ATOM     29  C   UNL     1      10.647  10.817  18.045  0.00  0.00    +0.000 C 
ATOM     30  C   UNL     1       9.025  10.791  19.966  0.00  0.00    +0.000 C 
ENDBRANCH  18  28
ENDBRANCH  17  18
ENDBRANCH   1  17
TORSDOF 5
ENDMDL
MODEL 3
REMARK VINA RESULT:      -8.3      2.079      3.421
REMARK  Name = 
REMARK  8 active torsions:
REMARK  status: ('A' for Active; 'I' for Inactive)
REMARK    1  A    between atoms: C_1  and  C_2
REMARK    2  A    between atoms: C_6  and  C_7
REMARK    3  A    between atoms: C_10  and  C_11
REMARK    4  A    between atoms: C_11  and  O_12
REMARK    5  A    between atoms: O_12  and  C_13
REMARK    6  A    between atoms: C_17  and  C_18
REMARK    7  A    between atoms: N_20  and  S_21
REMARK    8  A    between atoms: S_21  and  C_22
REMARK                            x       y       z     vdW  Elec       q    Type
REMARK                         _______ _______ _______ _____ _____    ______ ____
ROOT
ATOM      1  C   UNL     1       1.433   8.461  20.452  0.00  0.00    +0.000 A 
ATOM      2  C   UNL     1       1.220   8.424  21.845  0.00  0.00    +0.000 A 
ATOM      3  C   UNL     1       0.501   9.436  22.497  0.00  0.00    +0.000 A 
ATOM      4  F   UNL     1       0.338   9.357  23.827  0.00  0.00    +0.000 F 
ATOM      5  C   UNL     1      -0.022  10.501  21.779  0.00  0.00    +0.000 A 
ATOM      6  C   UNL     1       0.188  10.545  20.399  0.00  0.00    +0.000 A 
ATOM      7  C   UNL     1       0.905   9.550  19.732  0.00  0.00    +0.000 A 
ATOM      8 CL   UNL     1       1.038   9.867  18.032  0.00  0.00    +0.000 Cl
ENDROOT
BRANCH   5   9
ATOM      9  C   UNL     1      -0.773  11.638  22.349  0.00  0.00    +0.000 C 
ATOM     10  O   UNL     1      -1.826  11.432  22.938  0.00  0.00    +0.000 OA
ATOM     11  N   UNL     1      -0.290  12.928  22.128  0.00  0.00    +0.000 N 
ATOM     12  H   UNL     1       0.572  13.113  21.617  0.00  0.00    +0.000 HD
BRANCH  11  13
ATOM     13  S   UNL     1      -1.026  14.282  22.748  0.00  0.00    +0.000 S 
ATOM     14  C   UNL     1       0.017  15.608  22.152  0.00  0.00    +0.000 C 
ATOM     15  O   UNL     1      -2.346  14.408  22.178  0.00  0.00    +0.000 OA
ATOM     16  O   UNL     1      -0.841  14.191  24.181  0.00  0.00    +0.000 OA
ENDBRANCH  11  13
ENDBRANCH   5   9
BRANCH   1  17
ATOM     17  O   UNL     1       2.156   7.380  19.995  0.00  0.00    +0.000 OA
BRANCH  17  18
ATOM     18  C   UNL     1       1.737   6.099  20.454  0.00  0.00    +0.000 C 
BRANCH  18  28
ATOM     19  C   UNL     1       4.602   1.954  20.628  0.00  0.00    +0.000 C 
ATOM     20  C   UNL     1       3.757   2.851  19.719  0.00  0.00    +0.000 C 
ATOM     21  C   UNL     1       2.610   2.044  19.073  0.00  0.00    +0.000 C 
ATOM     22  C   UNL     1       1.761   2.950  18.164  0.00  0.00    +0.000 C 
ATOM     23  C   UNL     1       2.650   3.543  17.058  0.00  0.00    +0.000 C 
ATOM     24  C   UNL     1       3.800   4.368  17.675  0.00  0.00    +0.000 C 
ATOM     25  C   UNL     1       4.683   4.961  16.572  0.00  0.00    +0.000 C 
ATOM     26  C   UNL     1       4.637   3.454  18.598  0.00  0.00    +0.000 C 
ATOM     27  C   UNL     1       3.189   5.494  18.528  0.00  0.00    +0.000 C 
ATOM     28  C   UNL     1       2.288   4.917  19.652  0.00  0.00    +0.000 C 
ATOM     29  C   UNL     1       1.160   4.088  19.006  0.00  0.00    +0.000 C 
ATOM     30  C   UNL     1       3.144   3.999  20.549  0.00  0.00    +0.000 C 
ENDBRANCH  18  28
ENDBRANCH  17  18
ENDBRANCH   1  17
TORSDOF 5
ENDMDL
MODEL 4
REMARK VINA RESULT:      -8.2      2.056      3.389
REMARK  Name = 
REMARK  8 active torsions:
REMARK  status: ('A' for Active; 'I' for Inactive)
REMARK    1  A    between atoms: C_1  and  C_2
REMARK    2  A    between atoms: C_6  and  C_7
REMARK    3  A    between atoms: C_10  and  C_11
REMARK    4  A    between atoms: C_11  and  O_12
REMARK    5  A    between atoms: O_12  and  C_13
REMARK    6  A    between atoms: C_17  and  C_18
REMARK    7  A    between atoms: N_20  and  S_21
REMARK    8  A    between atoms: S_21  and  C_22
REMARK                            x       y       z     vdW  Elec       q    Type
REMARK                         _______ _______ _______ _____ _____    ______ ____
ROOT
ATOM      1  C   UNL     1       1.443   8.420  20.456  0.00  0.00    +0.000 A 
ATOM      2  C   UNL     1       1.097   8.414  21.823  0.00  0.00    +0.000 A 
ATOM      3  C   UNL     1       0.324   9.442  22.382  0.00  0.00    +0.000 A 
ATOM      4  F   UNL     1       0.034   9.392  23.691  0.00  0.00    +0.000 F 
ATOM      5  C   UNL     1      -0.122  10.494  21.594  0.00  0.00    +0.000 A 
ATOM      6  C   UNL     1       0.220  10.507  20.241  0.00  0.00    +0.000 A 
ATOM      7  C   UNL     1       0.992   9.496  19.667  0.00  0.00    +0.000 A 
ATOM      8 CL   UNL     1       1.290   9.775  17.981  0.00  0.00    +0.000 Cl
ENDROOT
BRANCH   5   9
ATOM      9  C   UNL     1      -0.918  11.645  22.066  0.00  0.00    +0.000 C 
ATOM     10  O   UNL     1      -0.496  12.336  22.983  0.00  0.00    +0.000 OA
ATOM     11  N   UNL     1      -2.172  11.861  21.493  0.00  0.00    +0.000 N 
ATOM     12  H   UNL     1      -2.544  11.277  20.746  0.00  0.00    +0.000 HD
BRANCH  11  13
ATOM     13  S   UNL     1      -3.143  13.142  21.913  0.00  0.00    +0.000 S 
ATOM     14  C   UNL     1      -4.572  12.916  20.861  0.00  0.00    +0.000 C 
ATOM     15  O   UNL     1      -3.531  13.009  23.297  0.00  0.00    +0.000 OA
ATOM     16  O   UNL     1      -2.439  14.319  21.448  0.00  0.00    +0.000 OA
ENDBRANCH  11  13
ENDBRANCH   5   9
BRANCH   1  17
ATOM     17  O   UNL     1       2.201   7.328  20.093  0.00  0.00    +0.000 OA
BRANCH  17  18
ATOM     18  C   UNL     1       1.681   6.051  20.451  0.00  0.00    +0.000 C 
BRANCH  18  28
ATOM     19  C   UNL     1       4.597   1.941  20.629  0.00  0.00    +0.000 C 
ATOM     20  C   UNL     1       3.745   2.830  19.719  0.00  0.00    +0.000 C 
ATOM     21  C   UNL     1       2.611   2.010  19.064  0.00  0.00    +0.000 C 
ATOM     22  C   UNL     1       1.756   2.908  18.154  0.00  0.00    +0.000 C 
ATOM     23  C   UNL     1       2.643   3.515  17.054  0.00  0.00    +0.000 C 
ATOM     24  C   UNL     1       3.780   4.352  17.678  0.00  0.00    +0.000 C 
ATOM     25  C   UNL     1       4.660   4.959  16.581  0.00  0.00    +0.000 C 
ATOM     26  C   UNL     1       4.623   3.446  18.603  0.00  0.00    +0.000 C 
ATOM     27  C   UNL     1       3.150   5.469  18.531  0.00  0.00    +0.000 C 
ATOM     28  C   UNL     1       2.251   4.878  19.649  0.00  0.00    +0.000 C 
ATOM     29  C   UNL     1       1.136   4.037  18.995  0.00  0.00    +0.000 C 
ATOM     30  C   UNL     1       3.114   3.968  20.548  0.00  0.00    +0.000 C 
ENDBRANCH  18  28
ENDBRANCH  17  18
ENDBRANCH   1  17
TORSDOF 5
ENDMDL
MODEL 5
REMARK VINA RESULT:      -8.2      1.831      2.172
REMARK  Name = 
REMARK  8 active torsions:
REMARK  status: ('A' for Active; 'I' for Inactive)
REMARK    1  A    between atoms: C_1  and  C_2
REMARK    2  A    between atoms: C_6  and  C_7
REMARK    3  A    between atoms: C_10  and  C_11
REMARK    4  A    between atoms: C_11  and  O_12
REMARK    5  A    between atoms: O_12  and  C_13
REMARK    6  A    between atoms: C_17  and  C_18
REMARK    7  A    between atoms: N_20  and  S_21
REMARK    8  A    between atoms: S_21  and  C_22
REMARK                            x       y       z     vdW  Elec       q    Type
REMARK                         _______ _______ _______ _____ _____    ______ ____
ROOT
ATOM      1  C   UNL     1       1.454   8.445  20.304  0.00  0.00    +0.000 A 
ATOM      2  C   UNL     1       1.142   8.507  21.678  0.00  0.00    +0.000 A 
ATOM      3  C   UNL     1       0.510   9.632  22.228  0.00  0.00    +0.000 A 
ATOM      4  F   UNL     1       0.246   9.643  23.544  0.00  0.00    +0.000 F 
ATOM      5  C   UNL     1       0.175  10.713  21.426  0.00  0.00    +0.000 A 
ATOM      6  C   UNL     1       0.485  10.659  20.066  0.00  0.00    +0.000 A 
ATOM      7  C   UNL     1       1.118   9.551  19.500  0.00  0.00    +0.000 A 
ATOM      8 CL   UNL     1       1.408   9.759  17.802  0.00  0.00    +0.000 Cl
ENDROOT
BRANCH   5   9
ATOM      9  C   UNL     1      -0.467  11.961  21.888  0.00  0.00    +0.000 C 
ATOM     10  O   UNL     1       0.061  13.038  21.646  0.00  0.00    +0.000 OA
ATOM     11  N   UNL     1      -1.627  11.863  22.656  0.00  0.00    +0.000 N 
ATOM     12  H   UNL     1      -2.063  10.970  22.885  0.00  0.00    +0.000 HD
BRANCH  11  13
ATOM     13  S   UNL     1      -2.460  13.193  23.201  0.00  0.00    +0.000 S 
ATOM     14  C   UNL     1      -3.782  12.466  24.163  0.00  0.00    +0.000 C 
ATOM     15  O   UNL     1      -1.601  13.970  24.063  0.00  0.00    +0.000 OA
ATOM     16  O   UNL     1      -3.052  13.780  22.017  0.00  0.00    +0.000 OA
ENDBRANCH  11  13
ENDBRANCH   5   9
BRANCH   1  17
ATOM     17  O   UNL     1       2.068   7.263  19.951  0.00  0.00    +0.000 OA
BRANCH  17  18
ATOM     18  C   UNL     1       2.556   7.179  18.615  0.00  0.00    +0.000 C 
BRANCH  18  28
ATOM     19  C   UNL     1       5.989   5.224  15.482  0.00  0.00    +0.000 C 
ATOM     20  C   UNL     1       5.166   4.971  16.748  0.00  0.00    +0.000 C 
ATOM     21  C   UNL     1       6.092   4.696  17.954  0.00  0.00    +0.000 C 
ATOM     22  C   UNL     1       5.262   4.446  19.224  0.00  0.00    +0.000 C 
ATOM     23  C   UNL     1       4.341   3.234  19.004  0.00  0.00    +0.000 C 
ATOM     24  C   UNL     1       3.393   3.486  17.812  0.00  0.00    +0.000 C 
ATOM     25  C   UNL     1       2.473   2.279  17.597  0.00  0.00    +0.000 C 
ATOM     26  C   UNL     1       4.236   3.752  16.545  0.00  0.00    +0.000 C 
ATOM     27  C   UNL     1       2.556   4.743  18.113  0.00  0.00    +0.000 C 
ATOM     28  C   UNL     1       3.466   5.980  18.337  0.00  0.00    +0.000 C 
ATOM     29  C   UNL     1       4.410   5.691  19.522  0.00  0.00    +0.000 C 
ATOM     30  C   UNL     1       4.305   6.213  17.064  0.00  0.00    +0.000 C 
ENDBRANCH  18  28
ENDBRANCH  17  18
ENDBRANCH   1  17
TORSDOF 5
ENDMDL
MODEL 6
REMARK VINA RESULT:      -8.2      2.107      3.460
REMARK  Name = 
REMARK  8 active torsions:
REMARK  status: ('A' for Active; 'I' for Inactive)
REMARK    1  A    between atoms: C_1  and  C_2
REMARK    2  A    between atoms: C_6  and  C_7
REMARK    3  A    between atoms: C_10  and  C_11
REMARK    4  A    between atoms: C_11  and  O_12
REMARK    5  A    between atoms: O_12  and  C_13
REMARK    6  A    between atoms: C_17  and  C_18
REMARK    7  A    between atoms: N_20  and  S_21
REMARK    8  A    between atoms: S_21  and  C_22
REMARK                            x       y       z     vdW  Elec       q    Type
REMARK                         _______ _______ _______ _____ _____    ______ ____
ROOT
ATOM      1  C   UNL     1       1.281   8.680  20.701  0.00  0.00    +0.000 A 
ATOM      2  C   UNL     1       0.977   8.756  22.076  0.00  0.00    +0.000 A 
ATOM      3  C   UNL     1       0.113   9.741  22.576  0.00  0.00    +0.000 A 
ATOM      4  F   UNL     1      -0.133   9.775  23.895  0.00  0.00    +0.000 F 
ATOM      5  C   UNL     1      -0.466  10.667  21.721  0.00  0.00    +0.000 A 
ATOM      6  C   UNL     1      -0.166  10.600  20.359  0.00  0.00    +0.000 A 
ATOM      7  C   UNL     1       0.694   9.630  19.842  0.00  0.00    +0.000 A 
ATOM      8 CL   UNL     1       0.912   9.792  18.129  0.00  0.00    +0.000 Cl
ENDROOT
BRANCH   5   9
ATOM      9  C   UNL     1      -1.370  11.764  22.124  0.00  0.00    +0.000 C 
ATOM     10  O   UNL     1      -1.216  12.880  21.646  0.00  0.00    +0.000 OA
ATOM     11  N   UNL     1      -2.328  11.506  23.104  0.00  0.00    +0.000 N 
ATOM     12  H   UNL     1      -2.449  10.587  23.527  0.00  0.00    +0.000 HD
BRANCH  11  13
ATOM     13  S   UNL     1      -3.423  12.646  23.613  0.00  0.00    +0.000 S 
ATOM     14  C   UNL     1      -4.287  13.068  22.104  0.00  0.00    +0.000 C 
ATOM     15  O   UNL     1      -4.342  12.038  24.546  0.00  0.00    +0.000 OA
ATOM     16  O   UNL     1      -2.627  13.793  23.996  0.00  0.00    +0.000 OA
ENDBRANCH  11  13
ENDBRANCH   5   9
BRANCH   1  17
ATOM     17  O   UNL     1       2.143   7.647  20.402  0.00  0.00    +0.000 OA
BRANCH  17  18
ATOM     18  C   UNL     1       2.156   7.208  19.048  0.00  0.00    +0.000 C 
BRANCH  18  28
ATOM     19  C   UNL     1       2.703   2.736  21.313  0.00  0.00    +0.000 C 
ATOM     20  C   UNL     1       2.849   3.492  19.989  0.00  0.00    +0.000 C 
ATOM     21  C   UNL     1       1.976   2.842  18.892  0.00  0.00    +0.000 C 
ATOM     22  C   UNL     1       2.122   3.607  17.566  0.00  0.00    +0.000 C 
ATOM     23  C   UNL     1       3.595   3.586  17.122  0.00  0.00    +0.000 C 
ATOM     24  C   UNL     1       4.491   4.242  18.194  0.00  0.00    +0.000 C 
ATOM     25  C   UNL     1       5.957   4.223  17.748  0.00  0.00    +0.000 C 
ATOM     26  C   UNL     1       4.325   3.477  19.526  0.00  0.00    +0.000 C 
ATOM     27  C   UNL     1       4.020   5.692  18.402  0.00  0.00    +0.000 C 
ATOM     28  C   UNL     1       2.535   5.737  18.853  0.00  0.00    +0.000 C 
ATOM     29  C   UNL     1       1.669   5.062  17.770  0.00  0.00    +0.000 C 
ATOM     30  C   UNL     1       2.396   4.956  20.175  0.00  0.00    +0.000 C 
ENDBRANCH  18  28
ENDBRANCH  17  18
ENDBRANCH   1  17
TORSDOF 5
ENDMDL
MODEL 7
REMARK VINA RESULT:      -8.1      2.200      3.603
REMARK  Name = 
REMARK  8 active torsions:
REMARK  status: ('A' for Active; 'I' for Inactive)
REMARK    1  A    between atoms: C_1  and  C_2
REMARK    2  A    between atoms: C_6  and  C_7
REMARK    3  A    between atoms: C_10  and  C_11
REMARK    4  A    between atoms: C_11  and  O_12
REMARK    5  A    between atoms: O_12  and  C_13
REMARK    6  A    between atoms: C_17  and  C_18
REMARK    7  A    between atoms: N_20  and  S_21
REMARK    8  A    between atoms: S_21  and  C_22
REMARK                            x       y       z     vdW  Elec       q    Type
REMARK                         _______ _______ _______ _____ _____    ______ ____
ROOT
ATOM      1  C   UNL     1       1.426   8.719  20.579  0.00  0.00    +0.000 A 
ATOM      2  C   UNL     1       1.084   8.624  21.943  0.00  0.00    +0.000 A 
ATOM      3  C   UNL     1       0.260   9.581  22.553  0.00  0.00    +0.000 A 
ATOM      4  F   UNL     1      -0.025   9.449  23.858  0.00  0.00    +0.000 F 
ATOM      5  C   UNL     1      -0.240  10.648  21.821  0.00  0.00    +0.000 A 
ATOM      6  C   UNL     1       0.098  10.749  20.471  0.00  0.00    +0.000 A 
ATOM      7  C   UNL     1       0.920   9.810  19.846  0.00  0.00    +0.000 A 
ATOM      8 CL   UNL     1       1.200  10.192  18.177  0.00  0.00    +0.000 Cl
ENDROOT
BRANCH   5   9
ATOM      9  C   UNL     1      -1.094  11.731  22.351  0.00  0.00    +0.000 C 
ATOM     10  O   UNL     1      -0.653  12.481  23.211  0.00  0.00    +0.000 OA
ATOM     11  N   UNL     1      -2.412  11.813  21.902  0.00  0.00    +0.000 N 
ATOM     12  H   UNL     1      -2.797  11.179  21.204  0.00  0.00    +0.000 HD
BRANCH  11  13
ATOM     13  S   UNL     1      -3.456  13.008  22.395  0.00  0.00    +0.000 S 
ATOM     14  C   UNL     1      -3.817  12.545  24.086  0.00  0.00    +0.000 C 
ATOM     15  O   UNL     1      -2.769  14.277  22.374  0.00  0.00    +0.000 OA
ATOM     16  O   UNL     1      -4.661  12.803  21.619  0.00  0.00    +0.000 OA
ENDBRANCH  11  13
ENDBRANCH   5   9
BRANCH   1  17
ATOM     17  O   UNL     1       2.239   7.688  20.160  0.00  0.00    +0.000 OA
BRANCH  17  18
ATOM     18  C   UNL     1       1.836   7.005  18.978  0.00  0.00    +0.000 C 
BRANCH  18  28
ATOM     19  C   UNL     1       2.540   2.669  21.454  0.00  0.00    +0.000 C 
ATOM     20  C   UNL     1       2.724   3.387  20.113  0.00  0.00    +0.000 C 
ATOM     21  C   UNL     1       1.979   2.636  18.988  0.00  0.00    +0.000 C 
ATOM     22  C   UNL     1       2.162   3.361  17.644  0.00  0.00    +0.000 C 
ATOM     23  C   UNL     1       3.660   3.433  17.301  0.00  0.00    +0.000 C 
ATOM     24  C   UNL     1       4.430   4.191  18.403  0.00  0.00    +0.000 C 
ATOM     25  C   UNL     1       5.921   4.265  18.058  0.00  0.00    +0.000 C 
ATOM     26  C   UNL     1       4.226   3.464  19.751  0.00  0.00    +0.000 C 
ATOM     27  C   UNL     1       3.843   5.610  18.520  0.00  0.00    +0.000 C 
ATOM     28  C   UNL     1       2.330   5.561  18.868  0.00  0.00    +0.000 C 
ATOM     29  C   UNL     1       1.593   4.785  17.758  0.00  0.00    +0.000 C 
ATOM     30  C   UNL     1       2.155   4.819  20.209  0.00  0.00    +0.000 C 
ENDBRANCH  18  28
ENDBRANCH  17  18
ENDBRANCH   1  17
TORSDOF 5
ENDMDL
MODEL 8
REMARK VINA RESULT:      -8.1      2.317      3.744
REMARK  Name = 
REMARK  8 active torsions:
REMARK  status: ('A' for Active; 'I' for Inactive)
REMARK    1  A    between atoms: C_1  and  C_2
REMARK    2  A    between atoms: C_6  and  C_7
REMARK    3  A    between atoms: C_10  and  C_11
REMARK    4  A    between atoms: C_11  and  O_12
REMARK    5  A    between atoms: O_12  and  C_13
REMARK    6  A    between atoms: C_17  and  C_18
REMARK    7  A    between atoms: N_20  and  S_21
REMARK    8  A    between atoms: S_21  and  C_22
REMARK                            x       y       z     vdW  Elec       q    Type
REMARK                         _______ _______ _______ _____ _____    ______ ____
ROOT
ATOM      1  C   UNL     1       0.938   9.419  20.098  0.00  0.00    +0.000 A 
ATOM      2  C   UNL     1       0.277   8.984  21.265  0.00  0.00    +0.000 A 
ATOM      3  C   UNL     1      -0.432   9.883  22.076  0.00  0.00    +0.000 A 
ATOM      4  F   UNL     1      -1.033   9.418  23.182  0.00  0.00    +0.000 F 
ATOM      5  C   UNL     1      -0.499  11.228  21.743  0.00  0.00    +0.000 A 
ATOM      6  C   UNL     1       0.156  11.665  20.590  0.00  0.00    +0.000 A 
ATOM      7  C   UNL     1       0.870  10.788  19.773  0.00  0.00    +0.000 A 
ATOM      8 CL   UNL     1       1.607  11.598  18.427  0.00  0.00    +0.000 Cl
ENDROOT
BRANCH   5   9
ATOM      9  C   UNL     1      -1.189  12.275  22.524  0.00  0.00    +0.000 C 
ATOM     10  O   UNL     1      -0.554  12.949  23.324  0.00  0.00    +0.000 OA
ATOM     11  N   UNL     1      -2.569  12.409  22.375  0.00  0.00    +0.000 N 
ATOM     12  H   UNL     1      -3.112  11.837  21.730  0.00  0.00    +0.000 HD
BRANCH  11  13
ATOM     13  S   UNL     1      -3.450  13.573  23.170  0.00  0.00    +0.000 S 
ATOM     14  C   UNL     1      -5.086  13.378  22.470  0.00  0.00    +0.000 C 
ATOM     15  O   UNL     1      -3.484  13.262  24.579  0.00  0.00    +0.000 OA
ATOM     16  O   UNL     1      -2.921  14.836  22.700  0.00  0.00    +0.000 OA
ENDBRANCH  11  13
ENDBRANCH   5   9
BRANCH   1  17
ATOM     17  O   UNL     1       1.575   8.394  19.433  0.00  0.00    +0.000 OA
BRANCH  17  18
ATOM     18  C   UNL     1       2.283   7.460  20.242  0.00  0.00    +0.000 C 
BRANCH  18  28
ATOM     19  C   UNL     1       1.434   2.553  21.034  0.00  0.00    +0.000 C 
ATOM     20  C   UNL     1       2.009   3.579  20.054  0.00  0.00    +0.000 C 
ATOM     21  C   UNL     1       1.283   3.497  18.692  0.00  0.00    +0.000 C 
ATOM     22  C   UNL     1       1.860   4.531  17.712  0.00  0.00    +0.000 C 
ATOM     23  C   UNL     1       3.360   4.260  17.504  0.00  0.00    +0.000 C 
ATOM     24  C   UNL     1       4.115   4.349  18.848  0.00  0.00    +0.000 C 
ATOM     25  C   UNL     1       5.609   4.082  18.639  0.00  0.00    +0.000 C 
ATOM     26  C   UNL     1       3.517   3.318  19.831  0.00  0.00    +0.000 C 
ATOM     27  C   UNL     1       3.905   5.758  19.432  0.00  0.00    +0.000 C 
ATOM     28  C   UNL     1       2.397   6.053  19.651  0.00  0.00    +0.000 C 
ATOM     29  C   UNL     1       1.669   5.941  18.295  0.00  0.00    +0.000 C 
ATOM     30  C   UNL     1       1.824   5.002  20.623  0.00  0.00    +0.000 C 
ENDBRANCH  18  28
ENDBRANCH  17  18
ENDBRANCH   1  17
TORSDOF 5
ENDMDL
MODEL 9
REMARK VINA RESULT:      -8.0      0.581      1.861
REMARK  Name = 
REMARK  8 active torsions:
REMARK  status: ('A' for Active; 'I' for Inactive)
REMARK    1  A    between atoms: C_1  and  C_2
REMARK    2  A    between atoms: C_6  and  C_7
REMARK    3  A    between atoms: C_10  and  C_11
REMARK    4  A    between atoms: C_11  and  O_12
REMARK    5  A    between atoms: O_12  and  C_13
REMARK    6  A    between atoms: C_17  and  C_18
REMARK    7  A    between atoms: N_20  and  S_21
REMARK    8  A    between atoms: S_21  and  C_22
REMARK                            x       y       z     vdW  Elec       q    Type
REMARK                         _______ _______ _______ _____ _____    ______ ____
ROOT
ATOM      1  C   UNL     1       1.817   8.255  18.693  0.00  0.00    +0.000 A 
ATOM      2  C   UNL     1       1.448   9.590  18.430  0.00  0.00    +0.000 A 
ATOM      3  C   UNL     1       0.888  10.399  19.429  0.00  0.00    +0.000 A 
ATOM      4  F   UNL     1       0.544  11.660  19.122  0.00  0.00    +0.000 F 
ATOM      5  C   UNL     1       0.684   9.898  20.707  0.00  0.00    +0.000 A 
ATOM      6  C   UNL     1       1.043   8.576  20.972  0.00  0.00    +0.000 A 
ATOM      7  C   UNL     1       1.599   7.753  19.990  0.00  0.00    +0.000 A 
ATOM      8 CL   UNL     1       1.924   6.155  20.581  0.00  0.00    +0.000 Cl
ENDROOT
BRANCH   5   9
ATOM      9  C   UNL     1       0.082  10.637  21.835  0.00  0.00    +0.000 C 
ATOM     10  O   UNL     1       0.384  10.338  22.983  0.00  0.00    +0.000 OA
ATOM     11  N   UNL     1      -0.878  11.609  21.553  0.00  0.00    +0.000 N 
ATOM     12  H   UNL     1      -1.156  11.849  20.602  0.00  0.00    +0.000 HD
BRANCH  11  13
ATOM     13  S   UNL     1      -1.598  12.531  22.733  0.00  0.00    +0.000 S 
ATOM     14  C   UNL     1      -2.531  13.728  21.786  0.00  0.00    +0.000 C 
ATOM     15  O   UNL     1      -2.502  11.703  23.495  0.00  0.00    +0.000 OA
ATOM     16  O   UNL     1      -0.511  13.235  23.380  0.00  0.00    +0.000 OA
ENDBRANCH  11  13
ENDBRANCH   5   9
BRANCH   1  17
ATOM     17  O   UNL     1       2.352   7.624  17.591  0.00  0.00    +0.000 OA
BRANCH  17  18
ATOM     18  C   UNL     1       3.744   7.819  17.365  0.00  0.00    +0.000 C 
BRANCH  18  28
ATOM     19  C   UNL     1       7.858   5.546  19.193  0.00  0.00    +0.000 C 
ATOM     20  C   UNL     1       6.667   5.398  18.241  0.00  0.00    +0.000 C 
ATOM     21  C   UNL     1       5.804   4.178  18.635  0.00  0.00    +0.000 C 
ATOM     22  C   UNL     1       4.608   4.035  17.679  0.00  0.00    +0.000 C 
ATOM     23  C   UNL     1       5.120   3.852  16.241  0.00  0.00    +0.000 C 
ATOM     24  C   UNL     1       5.976   5.063  15.814  0.00  0.00    +0.000 C 
ATOM     25  C   UNL     1       6.482   4.881  14.379  0.00  0.00    +0.000 C 
ATOM     26  C   UNL     1       7.165   5.209  16.789  0.00  0.00    +0.000 C 
ATOM     27  C   UNL     1       5.108   6.331  15.912  0.00  0.00    +0.000 C 
ATOM     28  C   UNL     1       4.581   6.537  17.357  0.00  0.00    +0.000 C 
ATOM     29  C   UNL     1       3.744   5.305  17.759  0.00  0.00    +0.000 C 
ATOM     30  C   UNL     1       5.787   6.664  18.309  0.00  0.00    +0.000 C 
ENDBRANCH  18  28
ENDBRANCH  17  18
ENDBRANCH   1  17
TORSDOF 5
ENDMDL
