MODEL 1
REMARK VINA RESULT:      -7.0      0.000      0.000
REMARK  Name = 
REMARK  13 active torsions:
REMARK  status: ('A' for Active; 'I' for Inactive)
REMARK    1  A    between atoms: C_1  and  C_2
REMARK    2  A    between atoms: C_2  and  C_3
REMARK    3  A    between atoms: C_3  and  C_4
REMARK    4  A    between atoms: C_5  and  C_6
REMARK    5  A    between atoms: C_6  and  C_7
REMARK    6  A    between atoms: C_8  and  C_9
REMARK    7  A    between atoms: C_10  and  C_11
REMARK    8  A    between atoms: C_11  and  N_12
REMARK    9  A    between atoms: N_12  and  O_13
REMARK   10  A    between atoms: N_12  and  N_14
REMARK   11  A    between atoms: N_15  and  C_16
REMARK   12  A    between atoms: C_19  and  C_20
REMARK   13  A    between atoms: C_20  and  O_22
REMARK                            x       y       z     vdW  Elec       q    Type
REMARK                         _______ _______ _______ _____ _____    ______ ____
ROOT
ATOM      1  N   UNL     1       7.235   5.629  16.911  0.00  0.00    +0.000 N 
ENDROOT
BRANCH   1   2
ATOM      2  O   UNL     1       7.719   5.144  15.662  0.00  0.00    +0.000 OA
ATOM      3  H   UNL     1       7.876   5.990  15.200  0.00  0.00    +0.000 HD
ENDBRANCH   1   2
BRANCH   1   4
ATOM      4  N   UNL     1       6.206   4.934  17.518  0.00  0.00    +0.000 NA
ATOM      5  N   UNL     1       5.765   5.518  18.532  0.00  0.00    +0.000 NA
BRANCH   5   6
ATOM      6  C   UNL     1       4.746   4.802  19.211  0.00  0.00    +0.000 A 
ATOM      7  C   UNL     1       3.638   5.525  19.678  0.00  0.00    +0.000 A 
ATOM      8  C   UNL     1       2.570   4.890  20.331  0.00  0.00    +0.000 A 
ATOM      9  C   UNL     1       2.576   3.507  20.533  0.00  0.00    +0.000 A 
ATOM     10  C   UNL     1       3.667   2.757  20.057  0.00  0.00    +0.000 A 
ATOM     11  C   UNL     1       4.735   3.410  19.408  0.00  0.00    +0.000 A 
BRANCH   9  12
ATOM     12  C   UNL     1       1.382   2.899  21.184  0.00  0.00    +0.000 C 
ATOM     13  O   UNL     1       1.409   2.460  22.322  0.00  0.00    +0.000 OA
BRANCH  12  14
ATOM     14  O   UNL     1       0.282   2.835  20.407  0.00  0.00    +0.000 OA
ATOM     15  H   UNL     1       0.430   2.614  19.471  0.00  0.00    +0.000 HD
ENDBRANCH  12  14
ENDBRANCH   9  12
ENDBRANCH   5   6
ENDBRANCH   1   4
BRANCH   1  16
ATOM     16  C   UNL     1       7.061   7.089  16.879  0.00  0.00    +0.000 C 
BRANCH  16  18
ATOM     17  C   UNL     1       8.112   9.126  17.956  0.00  0.00    +0.000 C 
ATOM     18  C   UNL     1       7.984   7.793  17.846  0.00  0.00    +0.000 C 
BRANCH  17  20
ATOM     19  C   UNL     1       9.720  10.879  18.595  0.00  0.00    +0.000 C 
ATOM     20  C   UNL     1       9.046   9.750  18.868  0.00  0.00    +0.000 C 
BRANCH  19  21
ATOM     21  C   UNL     1      10.660  11.542  19.564  0.00  0.00    +0.000 C 
BRANCH  21  23
ATOM     22  C   UNL     1      10.890  13.663  18.218  0.00  0.00    +0.000 C 
ATOM     23  C   UNL     1      10.687  13.035  19.388  0.00  0.00    +0.000 C 
BRANCH  22  24
ATOM     24  C   UNL     1      10.903  15.159  18.070  0.00  0.00    +0.000 C 
BRANCH  24  26
ATOM     25  C   UNL     1       8.551  16.030  17.877  0.00  0.00    +0.000 C 
ATOM     26  C   UNL     1       9.736  15.816  18.807  0.00  0.00    +0.000 C 
ENDBRANCH  24  26
ENDBRANCH  22  24
ENDBRANCH  21  23
ENDBRANCH  19  21
ENDBRANCH  17  20
ENDBRANCH  16  18
ENDBRANCH   1  16
TORSDOF 12
ENDMDL
MODEL 2
REMARK VINA RESULT:      -7.0      2.120      2.684
REMARK  Name = 
REMARK  13 active torsions:
REMARK  status: ('A' for Active; 'I' for Inactive)
REMARK    1  A    between atoms: C_1  and  C_2
REMARK    2  A    between atoms: C_2  and  C_3
REMARK    3  A    between atoms: C_3  and  C_4
REMARK    4  A    between atoms: C_5  and  C_6
REMARK    5  A    between atoms: C_6  and  C_7
REMARK    6  A    between atoms: C_8  and  C_9
REMARK    7  A    between atoms: C_10  and  C_11
REMARK    8  A    between atoms: C_11  and  N_12
REMARK    9  A    between atoms: N_12  and  O_13
REMARK   10  A    between atoms: N_12  and  N_14
REMARK   11  A    between atoms: N_15  and  C_16
REMARK   12  A    between atoms: C_19  and  C_20
REMARK   13  A    between atoms: C_20  and  O_22
REMARK                            x       y       z     vdW  Elec       q    Type
REMARK                         _______ _______ _______ _____ _____    ______ ____
ROOT
ATOM      1  N   UNL     1       7.180   6.517  17.163  0.00  0.00    +0.000 N 
ENDROOT
BRANCH   1   2
ATOM      2  O   UNL     1       7.697   5.922  15.976  0.00  0.00    +0.000 OA
ATOM      3  H   UNL     1       7.146   5.117  15.935  0.00  0.00    +0.000 HD
ENDBRANCH   1   2
BRANCH   1   4
ATOM      4  N   UNL     1       5.981   6.036  17.656  0.00  0.00    +0.000 NA
ATOM      5  N   UNL     1       5.995   4.797  17.826  0.00  0.00    +0.000 NA
BRANCH   5   6
ATOM      6  C   UNL     1       4.761   4.264  18.277  0.00  0.00    +0.000 A 
ATOM      7  C   UNL     1       3.615   4.531  17.511  0.00  0.00    +0.000 A 
ATOM      8  C   UNL     1       2.359   4.016  17.866  0.00  0.00    +0.000 A 
ATOM      9  C   UNL     1       2.211   3.211  19.000  0.00  0.00    +0.000 A 
ATOM     10  C   UNL     1       3.348   2.914  19.773  0.00  0.00    +0.000 A 
ATOM     11  C   UNL     1       4.602   3.443  19.406  0.00  0.00    +0.000 A 
BRANCH   9  12
ATOM     12  C   UNL     1       0.857   2.657  19.281  0.00  0.00    +0.000 C 
ATOM     13  O   UNL     1       0.203   2.066  18.437  0.00  0.00    +0.000 OA
BRANCH  12  14
ATOM     14  O   UNL     1       0.394   2.891  20.526  0.00  0.00    +0.000 OA
ATOM     15  H   UNL     1       0.870   2.451  21.251  0.00  0.00    +0.000 HD
ENDBRANCH  12  14
ENDBRANCH   9  12
ENDBRANCH   5   6
ENDBRANCH   1   4
BRANCH   1  16
ATOM     16  C   UNL     1       7.282   7.982  17.106  0.00  0.00    +0.000 C 
BRANCH  16  18
ATOM     17  C   UNL     1       8.579   9.819  18.272  0.00  0.00    +0.000 C 
ATOM     18  C   UNL     1       8.229   8.528  18.150  0.00  0.00    +0.000 C 
BRANCH  17  20
ATOM     19  C   UNL     1      10.184  11.450  19.184  0.00  0.00    +0.000 C 
ATOM     20  C   UNL     1       9.528  10.281  19.262  0.00  0.00    +0.000 C 
BRANCH  19  21
ATOM     21  C   UNL     1      11.139  11.942  20.236  0.00  0.00    +0.000 C 
BRANCH  21  23
ATOM     22  C   UNL     1       9.336  12.784  21.785  0.00  0.00    +0.000 C 
ATOM     23  C   UNL     1      10.502  12.958  21.143  0.00  0.00    +0.000 C 
BRANCH  22  24
ATOM     24  C   UNL     1       8.726  13.815  22.694  0.00  0.00    +0.000 C 
BRANCH  24  26
ATOM     25  C   UNL     1       7.290  11.848  23.325  0.00  0.00    +0.000 C 
ATOM     26  C   UNL     1       7.370  13.365  23.240  0.00  0.00    +0.000 C 
ENDBRANCH  24  26
ENDBRANCH  22  24
ENDBRANCH  21  23
ENDBRANCH  19  21
ENDBRANCH  17  20
ENDBRANCH  16  18
ENDBRANCH   1  16
TORSDOF 12
ENDMDL
MODEL 3
REMARK VINA RESULT:      -7.0      6.034      8.669
REMARK  Name = 
REMARK  13 active torsions:
REMARK  status: ('A' for Active; 'I' for Inactive)
REMARK    1  A    between atoms: C_1  and  C_2
REMARK    2  A    between atoms: C_2  and  C_3
REMARK    3  A    between atoms: C_3  and  C_4
REMARK    4  A    between atoms: C_5  and  C_6
REMARK    5  A    between atoms: C_6  and  C_7
REMARK    6  A    between atoms: C_8  and  C_9
REMARK    7  A    between atoms: C_10  and  C_11
REMARK    8  A    between atoms: C_11  and  N_12
REMARK    9  A    between atoms: N_12  and  O_13
REMARK   10  A    between atoms: N_12  and  N_14
REMARK   11  A    between atoms: N_15  and  C_16
REMARK   12  A    between atoms: C_19  and  C_20
REMARK   13  A    between atoms: C_20  and  O_22
REMARK                            x       y       z     vdW  Elec       q    Type
REMARK                         _______ _______ _______ _____ _____    ______ ____
ROOT
ATOM      1  N   UNL     1       1.928   3.416  20.462  0.00  0.00    +0.000 N 
ENDROOT
BRANCH   1   2
ATOM      2  O   UNL     1       0.880   2.864  21.254  0.00  0.00    +0.000 OA
ATOM      3  H   UNL     1       1.297   2.901  22.137  0.00  0.00    +0.000 HD
ENDBRANCH   1   2
BRANCH   1   4
ATOM      4  N   UNL     1       1.703   4.639  19.858  0.00  0.00    +0.000 NA
ATOM      5  N   UNL     1       2.217   5.588  20.490  0.00  0.00    +0.000 NA
BRANCH   5   6
ATOM      6  C   UNL     1       1.955   6.863  19.926  0.00  0.00    +0.000 A 
ATOM      7  C   UNL     1       1.299   7.810  20.728  0.00  0.00    +0.000 A 
ATOM      8  C   UNL     1       1.030   9.106  20.261  0.00  0.00    +0.000 A 
ATOM      9  C   UNL     1       1.415   9.497  18.975  0.00  0.00    +0.000 A 
ATOM     10  C   UNL     1       2.092   8.572  18.159  0.00  0.00    +0.000 A 
ATOM     11  C   UNL     1       2.350   7.272  18.641  0.00  0.00    +0.000 A 
BRANCH   9  12
ATOM     12  C   UNL     1       1.144  10.905  18.571  0.00  0.00    +0.000 C 
ATOM     13  O   UNL     1       1.960  11.799  18.723  0.00  0.00    +0.000 OA
BRANCH  12  14
ATOM     14  O   UNL     1      -0.086  11.123  18.062  0.00  0.00    +0.000 OA
ATOM     15  H   UNL     1      -0.204  11.950  17.565  0.00  0.00    +0.000 HD
ENDBRANCH  12  14
ENDBRANCH   9  12
ENDBRANCH   5   6
ENDBRANCH   1   4
BRANCH   1  16
ATOM     16  C   UNL     1       2.525   2.395  19.590  0.00  0.00    +0.000 C 
BRANCH  16  18
ATOM     17  C   UNL     1       3.897   3.784  17.976  0.00  0.00    +0.000 C 
ATOM     18  C   UNL     1       3.812   2.869  18.956  0.00  0.00    +0.000 C 
BRANCH  17  20
ATOM     19  C   UNL     1       5.257   4.782  16.181  0.00  0.00    +0.000 C 
ATOM     20  C   UNL     1       5.154   4.168  17.371  0.00  0.00    +0.000 C 
BRANCH  19  21
ATOM     21  C   UNL     1       6.564   5.213  15.577  0.00  0.00    +0.000 C 
BRANCH  21  23
ATOM     22  C   UNL     1       6.397   3.691  13.572  0.00  0.00    +0.000 C 
ATOM     23  C   UNL     1       6.635   4.899  14.108  0.00  0.00    +0.000 C 
BRANCH  22  24
ATOM     24  C   UNL     1       6.466   3.408  12.098  0.00  0.00    +0.000 C 
BRANCH  24  26
ATOM     25  C   UNL     1       4.069   3.308  11.341  0.00  0.00    +0.000 C 
ATOM     26  C   UNL     1       5.325   2.501  11.635  0.00  0.00    +0.000 C 
ENDBRANCH  24  26
ENDBRANCH  22  24
ENDBRANCH  21  23
ENDBRANCH  19  21
ENDBRANCH  17  20
ENDBRANCH  16  18
ENDBRANCH   1  16
TORSDOF 12
ENDMDL
MODEL 4
REMARK VINA RESULT:      -7.0      5.667      8.147
REMARK  Name = 
REMARK  13 active torsions:
REMARK  status: ('A' for Active; 'I' for Inactive)
REMARK    1  A    between atoms: C_1  and  C_2
REMARK    2  A    between atoms: C_2  and  C_3
REMARK    3  A    between atoms: C_3  and  C_4
REMARK    4  A    between atoms: C_5  and  C_6
REMARK    5  A    between atoms: C_6  and  C_7
REMARK    6  A    between atoms: C_8  and  C_9
REMARK    7  A    between atoms: C_10  and  C_11
REMARK    8  A    between atoms: C_11  and  N_12
REMARK    9  A    between atoms: N_12  and  O_13
REMARK   10  A    between atoms: N_12  and  N_14
REMARK   11  A    between atoms: N_15  and  C_16
REMARK   12  A    between atoms: C_19  and  C_20
REMARK   13  A    between atoms: C_20  and  O_22
REMARK                            x       y       z     vdW  Elec       q    Type
REMARK                         _______ _______ _______ _____ _____    ______ ____
ROOT
ATOM      1  N   UNL     1       2.659   2.704  20.807  0.00  0.00    +0.000 N 
ENDROOT
BRANCH   1   2
ATOM      2  O   UNL     1       3.509   2.065  21.756  0.00  0.00    +0.000 OA
ATOM      3  H   UNL     1       2.848   1.801  22.424  0.00  0.00    +0.000 HD
ENDBRANCH   1   2
BRANCH   1   4
ATOM      4  N   UNL     1       3.185   2.995  19.562  0.00  0.00    +0.000 NA
ATOM      5  N   UNL     1       4.348   3.450  19.628  0.00  0.00    +0.000 NA
BRANCH   5   6
ATOM      6  C   UNL     1       4.895   3.812  18.371  0.00  0.00    +0.000 A 
ATOM      7  C   UNL     1       6.208   4.307  18.347  0.00  0.00    +0.000 A 
ATOM      8  C   UNL     1       6.838   4.659  17.143  0.00  0.00    +0.000 A 
ATOM      9  C   UNL     1       6.173   4.520  15.921  0.00  0.00    +0.000 A 
ATOM     10  C   UNL     1       4.863   4.008  15.917  0.00  0.00    +0.000 A 
ATOM     11  C   UNL     1       4.242   3.665  17.135  0.00  0.00    +0.000 A 
BRANCH   9  12
ATOM     12  C   UNL     1       6.926   4.862  14.682  0.00  0.00    +0.000 C 
ATOM     13  O   UNL     1       7.877   5.627  14.683  0.00  0.00    +0.000 OA
BRANCH  12  14
ATOM     14  O   UNL     1       6.453   4.292  13.554  0.00  0.00    +0.000 OA
ATOM     15  H   UNL     1       6.168   4.902  12.853  0.00  0.00    +0.000 HD
ENDBRANCH  12  14
ENDBRANCH   9  12
ENDBRANCH   5   6
ENDBRANCH   1   4
BRANCH   1  16
ATOM     16  C   UNL     1       1.902   3.800  21.431  0.00  0.00    +0.000 C 
BRANCH  16  18
ATOM     17  C   UNL     1       2.159   6.204  20.675  0.00  0.00    +0.000 C 
ATOM     18  C   UNL     1       1.693   4.958  20.483  0.00  0.00    +0.000 C 
BRANCH  17  20
ATOM     19  C   UNL     1       2.604   7.527  18.645  0.00  0.00    +0.000 C 
ATOM     20  C   UNL     1       1.889   7.290  19.757  0.00  0.00    +0.000 C 
BRANCH  19  21
ATOM     21  C   UNL     1       2.293   8.634  17.676  0.00  0.00    +0.000 C 
BRANCH  21  23
ATOM     22  C   UNL     1       0.588  10.348  18.394  0.00  0.00    +0.000 C 
ATOM     23  C   UNL     1       0.895   9.159  17.850  0.00  0.00    +0.000 C 
BRANCH  22  24
ATOM     24  C   UNL     1      -0.820  10.851  18.548  0.00  0.00    +0.000 C 
BRANCH  24  26
ATOM     25  C   UNL     1      -2.898   9.699  17.721  0.00  0.00    +0.000 C 
ATOM     26  C   UNL     1      -1.681  10.523  17.327  0.00  0.00    +0.000 C 
ENDBRANCH  24  26
ENDBRANCH  22  24
ENDBRANCH  21  23
ENDBRANCH  19  21
ENDBRANCH  17  20
ENDBRANCH  16  18
ENDBRANCH   1  16
TORSDOF 12
ENDMDL
MODEL 5
REMARK VINA RESULT:      -6.9      0.982      1.248
REMARK  Name = 
REMARK  13 active torsions:
REMARK  status: ('A' for Active; 'I' for Inactive)
REMARK    1  A    between atoms: C_1  and  C_2
REMARK    2  A    between atoms: C_2  and  C_3
REMARK    3  A    between atoms: C_3  and  C_4
REMARK    4  A    between atoms: C_5  and  C_6
REMARK    5  A    between atoms: C_6  and  C_7
REMARK    6  A    between atoms: C_8  and  C_9
REMARK    7  A    between atoms: C_10  and  C_11
REMARK    8  A    between atoms: C_11  and  N_12
REMARK    9  A    between atoms: N_12  and  O_13
REMARK   10  A    between atoms: N_12  and  N_14
REMARK   11  A    between atoms: N_15  and  C_16
REMARK   12  A    between atoms: C_19  and  C_20
REMARK   13  A    between atoms: C_20  and  O_22
REMARK                            x       y       z     vdW  Elec       q    Type
REMARK                         _______ _______ _______ _____ _____    ______ ____
ROOT
ATOM      1  N   UNL     1       7.376   6.594  17.478  0.00  0.00    +0.000 N 
ENDROOT
BRANCH   1   2
ATOM      2  O   UNL     1       7.536   6.035  16.177  0.00  0.00    +0.000 OA
ATOM      3  H   UNL     1       8.145   5.300  16.382  0.00  0.00    +0.000 HD
ENDBRANCH   1   2
BRANCH   1   4
ATOM      4  N   UNL     1       6.523   5.950  18.356  0.00  0.00    +0.000 NA
ATOM      5  N   UNL     1       5.616   5.320  17.769  0.00  0.00    +0.000 NA
BRANCH   5   6
ATOM      6  C   UNL     1       4.690   4.696  18.643  0.00  0.00    +0.000 A 
ATOM      7  C   UNL     1       3.615   5.466  19.114  0.00  0.00    +0.000 A 
ATOM      8  C   UNL     1       2.635   4.919  19.957  0.00  0.00    +0.000 A 
ATOM      9  C   UNL     1       2.698   3.579  20.351  0.00  0.00    +0.000 A 
ATOM     10  C   UNL     1       3.755   2.781  19.876  0.00  0.00    +0.000 A 
ATOM     11  C   UNL     1       4.735   3.347  19.035  0.00  0.00    +0.000 A 
BRANCH   9  12
ATOM     12  C   UNL     1       1.592   3.056  21.201  0.00  0.00    +0.000 C 
ATOM     13  O   UNL     1       1.783   2.593  22.314  0.00  0.00    +0.000 OA
BRANCH  12  14
ATOM     14  O   UNL     1       0.370   3.097  20.631  0.00  0.00    +0.000 OA
ATOM     15  H   UNL     1       0.145   2.355  20.044  0.00  0.00    +0.000 HD
ENDBRANCH  12  14
ENDBRANCH   9  12
ENDBRANCH   5   6
ENDBRANCH   1   4
BRANCH   1  16
ATOM     16  C   UNL     1       7.207   8.052  17.409  0.00  0.00    +0.000 C 
BRANCH  16  18
ATOM     17  C   UNL     1       8.520  10.122  18.046  0.00  0.00    +0.000 C 
ATOM     18  C   UNL     1       8.355   8.789  18.059  0.00  0.00    +0.000 C 
BRANCH  17  20
ATOM     19  C   UNL     1       9.706  11.194  19.920  0.00  0.00    +0.000 C 
ATOM     20  C   UNL     1       9.665  10.775  18.645  0.00  0.00    +0.000 C 
BRANCH  19  21
ATOM     21  C   UNL     1      10.913  11.837  20.547  0.00  0.00    +0.000 C 
BRANCH  21  23
ATOM     22  C   UNL     1      10.150  14.148  21.207  0.00  0.00    +0.000 C 
ATOM     23  C   UNL     1      10.879  13.335  20.426  0.00  0.00    +0.000 C 
BRANCH  22  24
ATOM     24  C   UNL     1      10.142  15.645  21.068  0.00  0.00    +0.000 C 
BRANCH  24  26
ATOM     25  C   UNL     1       8.585  16.029  19.130  0.00  0.00    +0.000 C 
ATOM     26  C   UNL     1      10.029  16.083  19.608  0.00  0.00    +0.000 C 
ENDBRANCH  24  26
ENDBRANCH  22  24
ENDBRANCH  21  23
ENDBRANCH  19  21
ENDBRANCH  17  20
ENDBRANCH  16  18
ENDBRANCH   1  16
TORSDOF 12
ENDMDL
MODEL 6
REMARK VINA RESULT:      -6.8      5.950      9.095
REMARK  Name = 
REMARK  13 active torsions:
REMARK  status: ('A' for Active; 'I' for Inactive)
REMARK    1  A    between atoms: C_1  and  C_2
REMARK    2  A    between atoms: C_2  and  C_3
REMARK    3  A    between atoms: C_3  and  C_4
REMARK    4  A    between atoms: C_5  and  C_6
REMARK    5  A    between atoms: C_6  and  C_7
REMARK    6  A    between atoms: C_8  and  C_9
REMARK    7  A    between atoms: C_10  and  C_11
REMARK    8  A    between atoms: C_11  and  N_12
REMARK    9  A    between atoms: N_12  and  O_13
REMARK   10  A    between atoms: N_12  and  N_14
REMARK   11  A    between atoms: N_15  and  C_16
REMARK   12  A    between atoms: C_19  and  C_20
REMARK   13  A    between atoms: C_20  and  O_22
REMARK                            x       y       z     vdW  Elec       q    Type
REMARK                         _______ _______ _______ _____ _____    ______ ____
ROOT
ATOM      1  N   UNL     1       4.648   5.025  18.410  0.00  0.00    +0.000 N 
ENDROOT
BRANCH   1   2
ATOM      2  O   UNL     1       4.036   3.781  18.081  0.00  0.00    +0.000 OA
ATOM      3  H   UNL     1       3.578   3.589  18.921  0.00  0.00    +0.000 HD
ENDBRANCH   1   2
BRANCH   1   4
ATOM      4  N   UNL     1       3.881   6.170  18.301  0.00  0.00    +0.000 NA
ATOM      5  N   UNL     1       3.256   6.430  19.353  0.00  0.00    +0.000 NA
BRANCH   5   6
ATOM      6  C   UNL     1       2.414   7.567  19.255  0.00  0.00    +0.000 A 
ATOM      7  C   UNL     1       1.604   7.878  20.359  0.00  0.00    +0.000 A 
ATOM      8  C   UNL     1       0.766   9.003  20.359  0.00  0.00    +0.000 A 
ATOM      9  C   UNL     1       0.716   9.858  19.255  0.00  0.00    +0.000 A 
ATOM     10  C   UNL     1       1.533   9.579  18.144  0.00  0.00    +0.000 A 
ATOM     11  C   UNL     1       2.366   8.441  18.156  0.00  0.00    +0.000 A 
BRANCH   9  12
ATOM     12  C   UNL     1      -0.156  11.062  19.352  0.00  0.00    +0.000 C 
ATOM     13  O   UNL     1      -0.052  12.010  18.590  0.00  0.00    +0.000 OA
BRANCH  12  14
ATOM     14  O   UNL     1      -1.041  11.042  20.369  0.00  0.00    +0.000 OA
ATOM     15  H   UNL     1      -1.981  11.030  20.121  0.00  0.00    +0.000 HD
ENDBRANCH  12  14
ENDBRANCH   9  12
ENDBRANCH   5   6
ENDBRANCH   1   4
BRANCH   1  16
ATOM     16  C   UNL     1       5.993   5.122  17.824  0.00  0.00    +0.000 C 
BRANCH  16  18
ATOM     17  C   UNL     1       5.714   4.636  15.354  0.00  0.00    +0.000 C 
ATOM     18  C   UNL     1       6.134   4.278  16.579  0.00  0.00    +0.000 C 
BRANCH  17  20
ATOM     19  C   UNL     1       6.608   4.035  13.139  0.00  0.00    +0.000 C 
ATOM     20  C   UNL     1       5.833   3.768  14.202  0.00  0.00    +0.000 C 
BRANCH  19  21
ATOM     21  C   UNL     1       6.756   3.110  11.962  0.00  0.00    +0.000 C 
BRANCH  21  23
ATOM     22  C   UNL     1       4.425   3.742  11.235  0.00  0.00    +0.000 C 
ATOM     23  C   UNL     1       5.444   2.867  11.270  0.00  0.00    +0.000 C 
BRANCH  22  24
ATOM     24  C   UNL     1       3.126   3.476  10.526  0.00  0.00    +0.000 C 
BRANCH  24  26
ATOM     25  C   UNL     1       2.046   5.053   8.891  0.00  0.00    +0.000 C 
ATOM     26  C   UNL     1       3.137   4.012   9.094  0.00  0.00    +0.000 C 
ENDBRANCH  24  26
ENDBRANCH  22  24
ENDBRANCH  21  23
ENDBRANCH  19  21
ENDBRANCH  17  20
ENDBRANCH  16  18
ENDBRANCH   1  16
TORSDOF 12
ENDMDL
MODEL 7
REMARK VINA RESULT:      -6.8      2.312      2.754
REMARK  Name = 
REMARK  13 active torsions:
REMARK  status: ('A' for Active; 'I' for Inactive)
REMARK    1  A    between atoms: C_1  and  C_2
REMARK    2  A    between atoms: C_2  and  C_3
REMARK    3  A    between atoms: C_3  and  C_4
REMARK    4  A    between atoms: C_5  and  C_6
REMARK    5  A    between atoms: C_6  and  C_7
REMARK    6  A    between atoms: C_8  and  C_9
REMARK    7  A    between atoms: C_10  and  C_11
REMARK    8  A    between atoms: C_11  and  N_12
REMARK    9  A    between atoms: N_12  and  O_13
REMARK   10  A    between atoms: N_12  and  N_14
REMARK   11  A    between atoms: N_15  and  C_16
REMARK   12  A    between atoms: C_19  and  C_20
REMARK   13  A    between atoms: C_20  and  O_22
REMARK                            x       y       z     vdW  Elec       q    Type
REMARK                         _______ _______ _______ _____ _____    ______ ____
ROOT
ATOM      1  N   UNL     1       7.274   6.369  17.114  0.00  0.00    +0.000 N 
ENDROOT
BRANCH   1   2
ATOM      2  O   UNL     1       7.720   5.937  15.831  0.00  0.00    +0.000 OA
ATOM      3  H   UNL     1       7.504   6.728  15.301  0.00  0.00    +0.000 HD
ENDBRANCH   1   2
BRANCH   1   4
ATOM      4  N   UNL     1       6.231   5.677  17.701  0.00  0.00    +0.000 NA
ATOM      5  N   UNL     1       5.146   5.846  17.102  0.00  0.00    +0.000 NA
BRANCH   5   6
ATOM      6  C   UNL     1       4.045   5.195  17.713  0.00  0.00    +0.000 A 
ATOM      7  C   UNL     1       3.660   3.944  17.206  0.00  0.00    +0.000 A 
ATOM      8  C   UNL     1       2.602   3.216  17.772  0.00  0.00    +0.000 A 
ATOM      9  C   UNL     1       1.897   3.717  18.871  0.00  0.00    +0.000 A 
ATOM     10  C   UNL     1       2.276   4.961  19.410  0.00  0.00    +0.000 A 
ATOM     11  C   UNL     1       3.338   5.682  18.826  0.00  0.00    +0.000 A 
BRANCH   9  12
ATOM     12  C   UNL     1       0.824   2.863  19.451  0.00  0.00    +0.000 C 
ATOM     13  O   UNL     1       0.158   2.097  18.774  0.00  0.00    +0.000 OA
BRANCH  12  14
ATOM     14  O   UNL     1       0.617   3.030  20.774  0.00  0.00    +0.000 OA
ATOM     15  H   UNL     1       0.653   2.226  21.319  0.00  0.00    +0.000 HD
ENDBRANCH  12  14
ENDBRANCH   9  12
ENDBRANCH   5   6
ENDBRANCH   1   4
BRANCH   1  16
ATOM     16  C   UNL     1       7.152   7.833  17.165  0.00  0.00    +0.000 C 
BRANCH  16  18
ATOM     17  C   UNL     1       8.580   9.721  18.066  0.00  0.00    +0.000 C 
ATOM     18  C   UNL     1       8.137   8.454  18.127  0.00  0.00    +0.000 C 
BRANCH  17  20
ATOM     19  C   UNL     1       9.320  11.258  19.842  0.00  0.00    +0.000 C 
ATOM     20  C   UNL     1       9.562  10.252  18.987  0.00  0.00    +0.000 C 
BRANCH  19  21
ATOM     21  C   UNL     1      10.334  11.779  20.823  0.00  0.00    +0.000 C 
BRANCH  21  23
ATOM     22  C   UNL     1       9.813  14.092  21.685  0.00  0.00    +0.000 C 
ATOM     23  C   UNL     1       9.728  12.756  21.793  0.00  0.00    +0.000 C 
BRANCH  22  24
ATOM     24  C   UNL     1       9.189  15.045  22.665  0.00  0.00    +0.000 C 
BRANCH  24  26
ATOM     25  C   UNL     1       7.107  14.553  23.988  0.00  0.00    +0.000 C 
ATOM     26  C   UNL     1       8.607  14.318  23.878  0.00  0.00    +0.000 C 
ENDBRANCH  24  26
ENDBRANCH  22  24
ENDBRANCH  21  23
ENDBRANCH  19  21
ENDBRANCH  17  20
ENDBRANCH  16  18
ENDBRANCH   1  16
TORSDOF 12
ENDMDL
MODEL 8
REMARK VINA RESULT:      -6.7      3.703     10.667
REMARK  Name = 
REMARK  13 active torsions:
REMARK  status: ('A' for Active; 'I' for Inactive)
REMARK    1  A    between atoms: C_1  and  C_2
REMARK    2  A    between atoms: C_2  and  C_3
REMARK    3  A    between atoms: C_3  and  C_4
REMARK    4  A    between atoms: C_5  and  C_6
REMARK    5  A    between atoms: C_6  and  C_7
REMARK    6  A    between atoms: C_8  and  C_9
REMARK    7  A    between atoms: C_10  and  C_11
REMARK    8  A    between atoms: C_11  and  N_12
REMARK    9  A    between atoms: N_12  and  O_13
REMARK   10  A    between atoms: N_12  and  N_14
REMARK   11  A    between atoms: N_15  and  C_16
REMARK   12  A    between atoms: C_19  and  C_20
REMARK   13  A    between atoms: C_20  and  O_22
REMARK                            x       y       z     vdW  Elec       q    Type
REMARK                         _______ _______ _______ _____ _____    ______ ____
ROOT
ATOM      1  N   UNL     1       7.634   7.624  17.672  0.00  0.00    +0.000 N 
ENDROOT
BRANCH   1   2
ATOM      2  O   UNL     1       7.885   7.048  16.393  0.00  0.00    +0.000 OA
ATOM      3  H   UNL     1       8.790   6.709  16.534  0.00  0.00    +0.000 HD
ENDBRANCH   1   2
BRANCH   1   4
ATOM      4  N   UNL     1       8.098   8.906  17.905  0.00  0.00    +0.000 NA
ATOM      5  N   UNL     1       8.833   8.974  18.915  0.00  0.00    +0.000 NA
BRANCH   5   6
ATOM      6  C   UNL     1       9.279  10.287  19.213  0.00  0.00    +0.000 A 
ATOM      7  C   UNL     1       9.478  11.170  18.141  0.00  0.00    +0.000 A 
ATOM      8  C   UNL     1       9.886  12.496  18.349  0.00  0.00    +0.000 A 
ATOM      9  C   UNL     1      10.103  12.983  19.641  0.00  0.00    +0.000 A 
ATOM     10  C   UNL     1       9.892  12.123  20.734  0.00  0.00    +0.000 A 
ATOM     11  C   UNL     1       9.487  10.792  20.508  0.00  0.00    +0.000 A 
BRANCH   9  12
ATOM     12  C   UNL     1      10.481  14.417  19.785  0.00  0.00    +0.000 C 
ATOM     13  O   UNL     1      11.561  14.768  20.231  0.00  0.00    +0.000 OA
BRANCH  12  14
ATOM     14  O   UNL     1       9.525  15.296  19.422  0.00  0.00    +0.000 OA
ATOM     15  H   UNL     1       9.437  16.089  19.978  0.00  0.00    +0.000 HD
ENDBRANCH  12  14
ENDBRANCH   9  12
ENDBRANCH   5   6
ENDBRANCH   1   4
BRANCH   1  16
ATOM     16  C   UNL     1       7.910   6.661  18.749  0.00  0.00    +0.000 C 
BRANCH  16  18
ATOM     17  C   UNL     1       5.629   5.592  18.489  0.00  0.00    +0.000 C 
ATOM     18  C   UNL     1       6.947   5.498  18.732  0.00  0.00    +0.000 C 
BRANCH  17  20
ATOM     19  C   UNL     1       4.548   3.612  17.501  0.00  0.00    +0.000 C 
ATOM     20  C   UNL     1       4.742   4.449  18.532  0.00  0.00    +0.000 C 
BRANCH  19  21
ATOM     21  C   UNL     1       3.654   2.404  17.565  0.00  0.00    +0.000 C 
BRANCH  21  23
ATOM     22  C   UNL     1       1.489   2.989  18.719  0.00  0.00    +0.000 C 
ATOM     23  C   UNL     1       2.722   2.457  18.744  0.00  0.00    +0.000 C 
BRANCH  22  24
ATOM     24  C   UNL     1       0.574   3.020  19.912  0.00  0.00    +0.000 C 
BRANCH  24  26
ATOM     25  C   UNL     1       2.152   4.008  21.605  0.00  0.00    +0.000 C 
ATOM     26  C   UNL     1       1.332   2.785  21.219  0.00  0.00    +0.000 C 
ENDBRANCH  24  26
ENDBRANCH  22  24
ENDBRANCH  21  23
ENDBRANCH  19  21
ENDBRANCH  17  20
ENDBRANCH  16  18
ENDBRANCH   1  16
TORSDOF 12
ENDMDL
MODEL 9
REMARK VINA RESULT:      -6.7      6.256      9.103
REMARK  Name = 
REMARK  13 active torsions:
REMARK  status: ('A' for Active; 'I' for Inactive)
REMARK    1  A    between atoms: C_1  and  C_2
REMARK    2  A    between atoms: C_2  and  C_3
REMARK    3  A    between atoms: C_3  and  C_4
REMARK    4  A    between atoms: C_5  and  C_6
REMARK    5  A    between atoms: C_6  and  C_7
REMARK    6  A    between atoms: C_8  and  C_9
REMARK    7  A    between atoms: C_10  and  C_11
REMARK    8  A    between atoms: C_11  and  N_12
REMARK    9  A    between atoms: N_12  and  O_13
REMARK   10  A    between atoms: N_12  and  N_14
REMARK   11  A    between atoms: N_15  and  C_16
REMARK   12  A    between atoms: C_19  and  C_20
REMARK   13  A    between atoms: C_20  and  O_22
REMARK                            x       y       z     vdW  Elec       q    Type
REMARK                         _______ _______ _______ _____ _____    ______ ____
ROOT
ATOM      1  N   UNL     1       2.460   4.735  20.300  0.00  0.00    +0.000 N 
ENDROOT
BRANCH   1   2
ATOM      2  O   UNL     1       2.629   4.345  21.660  0.00  0.00    +0.000 OA
ATOM      3  H   UNL     1       2.276   5.136  22.109  0.00  0.00    +0.000 HD
ENDBRANCH   1   2
BRANCH   1   4
ATOM      4  N   UNL     1       1.753   5.896  20.045  0.00  0.00    +0.000 NA
ATOM      5  N   UNL     1       2.496   6.897  19.945  0.00  0.00    +0.000 NA
BRANCH   5   6
ATOM      6  C   UNL     1       1.796   8.113  19.741  0.00  0.00    +0.000 A 
ATOM      7  C   UNL     1       1.816   8.672  18.453  0.00  0.00    +0.000 A 
ATOM      8  C   UNL     1       1.123   9.855  18.156  0.00  0.00    +0.000 A 
ATOM      9  C   UNL     1       0.382  10.516  19.140  0.00  0.00    +0.000 A 
ATOM     10  C   UNL     1       0.331   9.967  20.434  0.00  0.00    +0.000 A 
ATOM     11  C   UNL     1       1.036   8.780  20.718  0.00  0.00    +0.000 A 
BRANCH   9  12
ATOM     12  C   UNL     1      -0.371  11.736  18.734  0.00  0.00    +0.000 C 
ATOM     13  O   UNL     1      -1.558  11.883  18.973  0.00  0.00    +0.000 OA
BRANCH  12  14
ATOM     14  O   UNL     1       0.350  12.647  18.049  0.00  0.00    +0.000 OA
ATOM     15  H   UNL     1       1.314  12.614  18.173  0.00  0.00    +0.000 HD
ENDBRANCH  12  14
ENDBRANCH   9  12
ENDBRANCH   5   6
ENDBRANCH   1   4
BRANCH   1  16
ATOM     16  C   UNL     1       2.086   3.586  19.463  0.00  0.00    +0.000 C 
BRANCH  16  18
ATOM     17  C   UNL     1       3.685   4.353  17.655  0.00  0.00    +0.000 C 
ATOM     18  C   UNL     1       3.053   3.373  18.322  0.00  0.00    +0.000 C 
BRANCH  17  20
ATOM     19  C   UNL     1       5.598   4.887  16.198  0.00  0.00    +0.000 C 
ATOM     20  C   UNL     1       4.567   4.096  16.537  0.00  0.00    +0.000 C 
BRANCH  19  21
ATOM     21  C   UNL     1       6.534   4.593  15.058  0.00  0.00    +0.000 C 
BRANCH  21  23
ATOM     22  C   UNL     1       6.216   3.251  12.947  0.00  0.00    +0.000 C 
ATOM     23  C   UNL     1       5.794   4.184  13.815  0.00  0.00    +0.000 C 
BRANCH  22  24
ATOM     24  C   UNL     1       5.451   2.855  11.715  0.00  0.00    +0.000 C 
BRANCH  24  26
ATOM     25  C   UNL     1       3.261   3.138  10.508  0.00  0.00    +0.000 C 
ATOM     26  C   UNL     1       4.260   3.780  11.460  0.00  0.00    +0.000 C 
ENDBRANCH  24  26
ENDBRANCH  22  24
ENDBRANCH  21  23
ENDBRANCH  19  21
ENDBRANCH  17  20
ENDBRANCH  16  18
ENDBRANCH   1  16
TORSDOF 12
ENDMDL
