MODEL 1
REMARK VINA RESULT:      -8.6      0.000      0.000
REMARK  Name = 
REMARK  8 active torsions:
REMARK  status: ('A' for Active; 'I' for Inactive)
REMARK    1  A    between atoms: C_1  and  O_2
REMARK    2  A    between atoms: O_2  and  C_3
REMARK    3  A    between atoms: C_6  and  C_7
REMARK    4  A    between atoms: C_8  and  C_9
REMARK    5  A    between atoms: C_9  and  C_10
REMARK    6  A    between atoms: C_10  and  S_11
REMARK    7  A    between atoms: S_11  and  C_14
REMARK    8  A    between atoms: N_22  and  C_23
REMARK                            x       y       z     vdW  Elec       q    Type
REMARK                         _______ _______ _______ _____ _____    ______ ____
ROOT
ATOM      1  C   UNL     1       2.343   6.554  17.965  0.00  0.00    +0.000 C 
ATOM      2  C   UNL     1       2.361   8.043  18.512  0.00  0.00    +0.000 C 
ATOM      3  C   UNL     1       2.062   7.411  19.869  0.00  0.00    +0.000 C 
ATOM      4  O   UNL     1       1.971   7.869  20.979  0.00  0.00    +0.000 OA
ATOM      5  N   UNL     1       1.891   6.180  19.325  0.00  0.00    +0.000 N 
ENDROOT
BRANCH   1   9
ATOM      6  C   UNL     1       6.233   5.051  16.365  0.00  0.00    +0.000 A 
ATOM      7  C   UNL     1       6.065   6.388  16.646  0.00  0.00    +0.000 A 
ATOM      8  C   UNL     1       4.862   6.826  17.189  0.00  0.00    +0.000 A 
ATOM      9  C   UNL     1       3.770   5.983  17.472  0.00  0.00    +0.000 A 
ATOM     10  C   UNL     1       4.002   4.617  17.237  0.00  0.00    +0.000 A 
ATOM     11  C   UNL     1       5.205   4.160  16.673  0.00  0.00    +0.000 A 
BRANCH   6  13
ATOM     12  C   UNL     1       7.360   4.801  14.324  0.00  0.00    +0.000 C 
ATOM     13  O   UNL     1       7.405   4.741  15.739  0.00  0.00    +0.000 OA
ENDBRANCH   6  13
ENDBRANCH   1   9
BRANCH   5  14
ATOM     14  C   UNL     1       1.716   4.938  19.959  0.00  0.00    +0.000 A 
ATOM     15  C   UNL     1       2.347   4.710  21.189  0.00  0.00    +0.000 A 
ATOM     16  C   UNL     1       2.338   3.451  21.790  0.00  0.00    +0.000 A 
ATOM     17  C   UNL     1       1.703   2.385  21.166  0.00  0.00    +0.000 A 
ATOM     18  C   UNL     1       1.045   2.594  19.955  0.00  0.00    +0.000 A 
ATOM     19  C   UNL     1       1.023   3.871  19.369  0.00  0.00    +0.000 A 
ENDBRANCH   5  14
BRANCH   2  20
ATOM     20  C   UNL     1       1.283   9.015  18.039  0.00  0.00    +0.000 C 
BRANCH  20  21
ATOM     21  C   UNL     1       1.406  10.374  18.736  0.00  0.00    +0.000 C 
BRANCH  21  22
ATOM     22  S   UNL     1      -0.180  11.205  18.773  0.00  0.00    +0.000 S 
ATOM     23  O   UNL     1       0.031  12.596  18.427  0.00  0.00    +0.000 OA
ATOM     24  O   UNL     1      -1.129  10.397  18.043  0.00  0.00    +0.000 OA
BRANCH  22  25
ATOM     25  C   UNL     1      -0.655  11.162  20.496  0.00  0.00    +0.000 A 
ATOM     26  C   UNL     1      -0.227  10.100  21.300  0.00  0.00    +0.000 A 
ATOM     27  C   UNL     1      -0.597  10.060  22.644  0.00  0.00    +0.000 A 
ATOM     28  C   UNL     1      -1.376  11.084  23.184  0.00  0.00    +0.000 A 
ATOM     29  C   UNL     1      -1.767  12.162  22.389  0.00  0.00    +0.000 A 
ATOM     30  C   UNL     1      -1.399  12.212  21.043  0.00  0.00    +0.000 A 
ENDBRANCH  22  25
ENDBRANCH  21  22
ENDBRANCH  20  21
ENDBRANCH   2  20
TORSDOF 7
ENDMDL
MODEL 2
REMARK VINA RESULT:      -8.6      2.760      8.567
REMARK  Name = 
REMARK  8 active torsions:
REMARK  status: ('A' for Active; 'I' for Inactive)
REMARK    1  A    between atoms: C_1  and  O_2
REMARK    2  A    between atoms: O_2  and  C_3
REMARK    3  A    between atoms: C_6  and  C_7
REMARK    4  A    between atoms: C_8  and  C_9
REMARK    5  A    between atoms: C_9  and  C_10
REMARK    6  A    between atoms: C_10  and  S_11
REMARK    7  A    between atoms: S_11  and  C_14
REMARK    8  A    between atoms: N_22  and  C_23
REMARK                            x       y       z     vdW  Elec       q    Type
REMARK                         _______ _______ _______ _____ _____    ______ ____
ROOT
ATOM      1  C   UNL     1       3.775   6.260  18.631  0.00  0.00    +0.000 C 
ATOM      2  C   UNL     1       4.110   6.091  17.089  0.00  0.00    +0.000 C 
ATOM      3  C   UNL     1       3.501   4.700  17.242  0.00  0.00    +0.000 C 
ATOM      4  O   UNL     1       3.266   3.821  16.452  0.00  0.00    +0.000 OA
ATOM      5  N   UNL     1       3.391   4.830  18.588  0.00  0.00    +0.000 N 
ENDROOT
BRANCH   1   9
ATOM      6  C   UNL     1       0.752   9.406  19.586  0.00  0.00    +0.000 A 
ATOM      7  C   UNL     1       1.226   9.261  18.301  0.00  0.00    +0.000 A 
ATOM      8  C   UNL     1       2.129   8.244  18.018  0.00  0.00    +0.000 A 
ATOM      9  C   UNL     1       2.618   7.331  18.972  0.00  0.00    +0.000 A 
ATOM     10  C   UNL     1       2.062   7.466  20.256  0.00  0.00    +0.000 A 
ATOM     11  C   UNL     1       1.160   8.499  20.564  0.00  0.00    +0.000 A 
BRANCH   6  13
ATOM     12  C   UNL     1      -0.262  10.841  21.139  0.00  0.00    +0.000 C 
ATOM     13  O   UNL     1      -0.045  10.495  19.782  0.00  0.00    +0.000 OA
ENDBRANCH   6  13
ENDBRANCH   1   9
BRANCH   5  14
ATOM     14  C   UNL     1       2.760   3.988  19.520  0.00  0.00    +0.000 A 
ATOM     15  C   UNL     1       1.361   3.987  19.595  0.00  0.00    +0.000 A 
ATOM     16  C   UNL     1       0.686   3.293  20.598  0.00  0.00    +0.000 A 
ATOM     17  C   UNL     1       1.399   2.589  21.561  0.00  0.00    +0.000 A 
ATOM     18  C   UNL     1       2.790   2.553  21.492  0.00  0.00    +0.000 A 
ATOM     19  C   UNL     1       3.468   3.222  20.458  0.00  0.00    +0.000 A 
ENDBRANCH   5  14
BRANCH   2  20
ATOM     20  C   UNL     1       5.571   6.074  16.650  0.00  0.00    +0.000 C 
BRANCH  20  21
ATOM     21  C   UNL     1       5.699   5.986  15.125  0.00  0.00    +0.000 C 
BRANCH  21  22
ATOM     22  S   UNL     1       6.996   4.838  14.671  0.00  0.00    +0.000 S 
ATOM     23  O   UNL     1       8.109   5.600  14.142  0.00  0.00    +0.000 OA
ATOM     24  O   UNL     1       7.186   3.915  15.766  0.00  0.00    +0.000 OA
BRANCH  22  25
ATOM     25  C   UNL     1       6.302   3.912  13.308  0.00  0.00    +0.000 A 
ATOM     26  C   UNL     1       4.926   3.974  13.066  0.00  0.00    +0.000 A 
ATOM     27  C   UNL     1       4.379   3.252  12.005  0.00  0.00    +0.000 A 
ATOM     28  C   UNL     1       5.205   2.487  11.182  0.00  0.00    +0.000 A 
ATOM     29  C   UNL     1       6.583   2.460  11.401  0.00  0.00    +0.000 A 
ATOM     30  C   UNL     1       7.140   3.182  12.458  0.00  0.00    +0.000 A 
ENDBRANCH  22  25
ENDBRANCH  21  22
ENDBRANCH  20  21
ENDBRANCH   2  20
TORSDOF 7
ENDMDL
MODEL 3
REMARK VINA RESULT:      -8.6      2.425      8.340
REMARK  Name = 
REMARK  8 active torsions:
REMARK  status: ('A' for Active; 'I' for Inactive)
REMARK    1  A    between atoms: C_1  and  O_2
REMARK    2  A    between atoms: O_2  and  C_3
REMARK    3  A    between atoms: C_6  and  C_7
REMARK    4  A    between atoms: C_8  and  C_9
REMARK    5  A    between atoms: C_9  and  C_10
REMARK    6  A    between atoms: C_10  and  S_11
REMARK    7  A    between atoms: S_11  and  C_14
REMARK    8  A    between atoms: N_22  and  C_23
REMARK                            x       y       z     vdW  Elec       q    Type
REMARK                         _______ _______ _______ _____ _____    ______ ____
ROOT
ATOM      1  C   UNL     1       3.344   6.692  19.111  0.00  0.00    +0.000 C 
ATOM      2  C   UNL     1       3.569   6.583  17.544  0.00  0.00    +0.000 C 
ATOM      3  C   UNL     1       3.001   5.174  17.691  0.00  0.00    +0.000 C 
ATOM      4  O   UNL     1       2.727   4.317  16.890  0.00  0.00    +0.000 OA
ATOM      5  N   UNL     1       2.987   5.257  19.045  0.00  0.00    +0.000 N 
ENDROOT
BRANCH   1   9
ATOM      6  C   UNL     1       0.342   9.728  20.418  0.00  0.00    +0.000 A 
ATOM      7  C   UNL     1       0.812   9.725  19.124  0.00  0.00    +0.000 A 
ATOM      8  C   UNL     1       1.709   8.741  18.727  0.00  0.00    +0.000 A 
ATOM      9  C   UNL     1       2.194   7.725  19.573  0.00  0.00    +0.000 A 
ATOM     10  C   UNL     1       1.641   7.719  20.864  0.00  0.00    +0.000 A 
ATOM     11  C   UNL     1       0.746   8.716  21.288  0.00  0.00    +0.000 A 
BRANCH   6  13
ATOM     12  C   UNL     1      -0.788  10.898  22.108  0.00  0.00    +0.000 C 
ATOM     13  O   UNL     1      -0.449  10.794  20.736  0.00  0.00    +0.000 OA
ENDBRANCH   6  13
ENDBRANCH   1   9
BRANCH   5  14
ATOM     14  C   UNL     1       2.442   4.370  19.990  0.00  0.00    +0.000 A 
ATOM     15  C   UNL     1       3.309   3.606  20.782  0.00  0.00    +0.000 A 
ATOM     16  C   UNL     1       2.832   2.602  21.624  0.00  0.00    +0.000 A 
ATOM     17  C   UNL     1       1.471   2.330  21.685  0.00  0.00    +0.000 A 
ATOM     18  C   UNL     1       0.586   3.094  20.926  0.00  0.00    +0.000 A 
ATOM     19  C   UNL     1       1.064   4.131  20.107  0.00  0.00    +0.000 A 
ENDBRANCH   5  14
BRANCH   2  20
ATOM     20  C   UNL     1       4.995   6.614  17.000  0.00  0.00    +0.000 C 
BRANCH  20  21
ATOM     21  C   UNL     1       5.629   5.219  17.006  0.00  0.00    +0.000 C 
BRANCH  21  22
ATOM     22  S   UNL     1       7.275   5.276  16.303  0.00  0.00    +0.000 S 
ATOM     23  O   UNL     1       7.712   6.657  16.289  0.00  0.00    +0.000 OA
ATOM     24  O   UNL     1       8.073   4.254  16.939  0.00  0.00    +0.000 OA
BRANCH  22  25
ATOM     25  C   UNL     1       7.040   4.786  14.600  0.00  0.00    +0.000 A 
ATOM     26  C   UNL     1       7.860   5.335  13.608  0.00  0.00    +0.000 A 
ATOM     27  C   UNL     1       7.679   4.958  12.278  0.00  0.00    +0.000 A 
ATOM     28  C   UNL     1       6.697   4.026  11.944  0.00  0.00    +0.000 A 
ATOM     29  C   UNL     1       5.909   3.448  12.940  0.00  0.00    +0.000 A 
ATOM     30  C   UNL     1       6.085   3.818  14.276  0.00  0.00    +0.000 A 
ENDBRANCH  22  25
ENDBRANCH  21  22
ENDBRANCH  20  21
ENDBRANCH   2  20
TORSDOF 7
ENDMDL
MODEL 4
REMARK VINA RESULT:      -8.5      2.738      8.417
REMARK  Name = 
REMARK  8 active torsions:
REMARK  status: ('A' for Active; 'I' for Inactive)
REMARK    1  A    between atoms: C_1  and  O_2
REMARK    2  A    between atoms: O_2  and  C_3
REMARK    3  A    between atoms: C_6  and  C_7
REMARK    4  A    between atoms: C_8  and  C_9
REMARK    5  A    between atoms: C_9  and  C_10
REMARK    6  A    between atoms: C_10  and  S_11
REMARK    7  A    between atoms: S_11  and  C_14
REMARK    8  A    between atoms: N_22  and  C_23
REMARK                            x       y       z     vdW  Elec       q    Type
REMARK                         _______ _______ _______ _____ _____    ______ ____
ROOT
ATOM      1  C   UNL     1       3.706   6.368  18.663  0.00  0.00    +0.000 C 
ATOM      2  C   UNL     1       4.081   6.048  17.154  0.00  0.00    +0.000 C 
ATOM      3  C   UNL     1       3.441   4.688  17.420  0.00  0.00    +0.000 C 
ATOM      4  O   UNL     1       3.211   3.742  16.710  0.00  0.00    +0.000 OA
ATOM      5  N   UNL     1       3.295   4.948  18.743  0.00  0.00    +0.000 N 
ENDROOT
BRANCH   1   9
ATOM      6  C   UNL     1       0.722   9.640  19.238  0.00  0.00    +0.000 A 
ATOM      7  C   UNL     1       1.270   9.407  17.997  0.00  0.00    +0.000 A 
ATOM      8  C   UNL     1       2.160   8.353  17.831  0.00  0.00    +0.000 A 
ATOM      9  C   UNL     1       2.562   7.486  18.867  0.00  0.00    +0.000 A 
ATOM     10  C   UNL     1       1.930   7.711  20.102  0.00  0.00    +0.000 A 
ATOM     11  C   UNL     1       1.041   8.783  20.291  0.00  0.00    +0.000 A 
BRANCH   6  13
ATOM     12  C   UNL     1       0.525  11.930  18.769  0.00  0.00    +0.000 C 
ATOM     13  O   UNL     1      -0.055  10.759  19.319  0.00  0.00    +0.000 OA
ENDBRANCH   6  13
ENDBRANCH   1   9
BRANCH   5  14
ATOM     14  C   UNL     1       2.622   4.209  19.731  0.00  0.00    +0.000 A 
ATOM     15  C   UNL     1       3.372   3.494  20.674  0.00  0.00    +0.000 A 
ATOM     16  C   UNL     1       2.766   2.623  21.579  0.00  0.00    +0.000 A 
ATOM     17  C   UNL     1       1.389   2.438  21.554  0.00  0.00    +0.000 A 
ATOM     18  C   UNL     1       0.618   3.159  20.643  0.00  0.00    +0.000 A 
ATOM     19  C   UNL     1       1.226   4.064  19.757  0.00  0.00    +0.000 A 
ENDBRANCH   5  14
BRANCH   2  20
ATOM     20  C   UNL     1       5.554   5.965  16.763  0.00  0.00    +0.000 C 
BRANCH  20  21
ATOM     21  C   UNL     1       5.736   6.017  15.242  0.00  0.00    +0.000 C 
BRANCH  21  22
ATOM     22  S   UNL     1       7.022   4.884  14.725  0.00  0.00    +0.000 S 
ATOM     23  O   UNL     1       8.113   5.660  14.174  0.00  0.00    +0.000 OA
ATOM     24  O   UNL     1       7.251   3.943  15.797  0.00  0.00    +0.000 OA
BRANCH  22  25
ATOM     25  C   UNL     1       6.288   3.979  13.369  0.00  0.00    +0.000 A 
ATOM     26  C   UNL     1       7.116   3.301  12.468  0.00  0.00    +0.000 A 
ATOM     27  C   UNL     1       6.549   2.596  11.407  0.00  0.00    +0.000 A 
ATOM     28  C   UNL     1       5.162   2.554  11.258  0.00  0.00    +0.000 A 
ATOM     29  C   UNL     1       4.337   3.197  12.183  0.00  0.00    +0.000 A 
ATOM     30  C   UNL     1       4.896   3.903  13.250  0.00  0.00    +0.000 A 
ENDBRANCH  22  25
ENDBRANCH  21  22
ENDBRANCH  20  21
ENDBRANCH   2  20
TORSDOF 7
ENDMDL
MODEL 5
REMARK VINA RESULT:      -8.5      2.501      8.233
REMARK  Name = 
REMARK  8 active torsions:
REMARK  status: ('A' for Active; 'I' for Inactive)
REMARK    1  A    between atoms: C_1  and  O_2
REMARK    2  A    between atoms: O_2  and  C_3
REMARK    3  A    between atoms: C_6  and  C_7
REMARK    4  A    between atoms: C_8  and  C_9
REMARK    5  A    between atoms: C_9  and  C_10
REMARK    6  A    between atoms: C_10  and  S_11
REMARK    7  A    between atoms: S_11  and  C_14
REMARK    8  A    between atoms: N_22  and  C_23
REMARK                            x       y       z     vdW  Elec       q    Type
REMARK                         _______ _______ _______ _____ _____    ______ ____
ROOT
ATOM      1  C   UNL     1       3.333   6.390  18.785  0.00  0.00    +0.000 C 
ATOM      2  C   UNL     1       3.359   6.202  17.209  0.00  0.00    +0.000 C 
ATOM      3  C   UNL     1       2.778   4.819  17.496  0.00  0.00    +0.000 C 
ATOM      4  O   UNL     1       2.385   3.935  16.778  0.00  0.00    +0.000 OA
ATOM      5  N   UNL     1       2.935   4.965  18.835  0.00  0.00    +0.000 N 
ENDROOT
BRANCH   1   9
ATOM      6  C   UNL     1       0.594   9.573  20.306  0.00  0.00    +0.000 A 
ATOM      7  C   UNL     1       0.930   9.522  18.972  0.00  0.00    +0.000 A 
ATOM      8  C   UNL     1       1.745   8.494  18.512  0.00  0.00    +0.000 A 
ATOM      9  C   UNL     1       2.275   7.479  19.332  0.00  0.00    +0.000 A 
ATOM     10  C   UNL     1       1.856   7.524  20.672  0.00  0.00    +0.000 A 
ATOM     11  C   UNL     1       1.046   8.566  21.157  0.00  0.00    +0.000 A 
BRANCH   6  13
ATOM     12  C   UNL     1      -0.350  11.612  19.634  0.00  0.00    +0.000 C 
ATOM     13  O   UNL     1      -0.120  10.676  20.673  0.00  0.00    +0.000 OA
ENDBRANCH   6  13
ENDBRANCH   1   9
BRANCH   5  14
ATOM     14  C   UNL     1       2.490   4.141  19.883  0.00  0.00    +0.000 A 
ATOM     15  C   UNL     1       3.431   3.400  20.610  0.00  0.00    +0.000 A 
ATOM     16  C   UNL     1       3.040   2.452  21.554  0.00  0.00    +0.000 A 
ATOM     17  C   UNL     1       1.691   2.213  21.787  0.00  0.00    +0.000 A 
ATOM     18  C   UNL     1       0.736   2.956  21.095  0.00  0.00    +0.000 A 
ATOM     19  C   UNL     1       1.132   3.938  20.171  0.00  0.00    +0.000 A 
ENDBRANCH   5  14
BRANCH   2  20
ATOM     20  C   UNL     1       4.706   6.163  16.493  0.00  0.00    +0.000 C 
BRANCH  20  21
ATOM     21  C   UNL     1       5.608   5.057  17.051  0.00  0.00    +0.000 C 
BRANCH  21  22
ATOM     22  S   UNL     1       7.257   5.188  16.367  0.00  0.00    +0.000 S 
ATOM     23  O   UNL     1       7.645   6.584  16.388  0.00  0.00    +0.000 OA
ATOM     24  O   UNL     1       8.085   4.181  16.987  0.00  0.00    +0.000 OA
BRANCH  22  25
ATOM     25  C   UNL     1       7.055   4.729  14.650  0.00  0.00    +0.000 A 
ATOM     26  C   UNL     1       6.047   3.826  14.296  0.00  0.00    +0.000 A 
ATOM     27  C   UNL     1       5.887   3.463  12.959  0.00  0.00    +0.000 A 
ATOM     28  C   UNL     1       6.717   4.012  11.981  0.00  0.00    +0.000 A 
ATOM     29  C   UNL     1       7.694   4.945  12.333  0.00  0.00    +0.000 A 
ATOM     30  C   UNL     1       7.860   5.317  13.669  0.00  0.00    +0.000 A 
ENDBRANCH  22  25
ENDBRANCH  21  22
ENDBRANCH  20  21
ENDBRANCH   2  20
TORSDOF 7
ENDMDL
MODEL 6
REMARK VINA RESULT:      -8.5      0.340      1.290
REMARK  Name = 
REMARK  8 active torsions:
REMARK  status: ('A' for Active; 'I' for Inactive)
REMARK    1  A    between atoms: C_1  and  O_2
REMARK    2  A    between atoms: O_2  and  C_3
REMARK    3  A    between atoms: C_6  and  C_7
REMARK    4  A    between atoms: C_8  and  C_9
REMARK    5  A    between atoms: C_9  and  C_10
REMARK    6  A    between atoms: C_10  and  S_11
REMARK    7  A    between atoms: S_11  and  C_14
REMARK    8  A    between atoms: N_22  and  C_23
REMARK                            x       y       z     vdW  Elec       q    Type
REMARK                         _______ _______ _______ _____ _____    ______ ____
ROOT
ATOM      1  C   UNL     1       2.463   6.617  17.902  0.00  0.00    +0.000 C 
ATOM      2  C   UNL     1       2.404   8.095  18.475  0.00  0.00    +0.000 C 
ATOM      3  C   UNL     1       2.146   7.424  19.822  0.00  0.00    +0.000 C 
ATOM      4  O   UNL     1       2.035   7.856  20.941  0.00  0.00    +0.000 OA
ATOM      5  N   UNL     1       2.039   6.196  19.256  0.00  0.00    +0.000 N 
ENDROOT
BRANCH   1   9
ATOM      6  C   UNL     1       6.372   5.188  16.282  0.00  0.00    +0.000 A 
ATOM      7  C   UNL     1       5.833   6.380  15.852  0.00  0.00    +0.000 A 
ATOM      8  C   UNL     1       4.640   6.828  16.406  0.00  0.00    +0.000 A 
ATOM      9  C   UNL     1       3.915   6.133  17.393  0.00  0.00    +0.000 A 
ATOM     10  C   UNL     1       4.530   4.957  17.856  0.00  0.00    +0.000 A 
ATOM     11  C   UNL     1       5.728   4.480  17.296  0.00  0.00    +0.000 A 
BRANCH   6  13
ATOM     12  C   UNL     1       7.379   4.849  14.191  0.00  0.00    +0.000 C 
ATOM     13  O   UNL     1       7.486   4.787  15.603  0.00  0.00    +0.000 OA
ENDBRANCH   6  13
ENDBRANCH   1   9
BRANCH   5  14
ATOM     14  C   UNL     1       1.934   4.935  19.869  0.00  0.00    +0.000 A 
ATOM     15  C   UNL     1       1.184   3.934  19.238  0.00  0.00    +0.000 A 
ATOM     16  C   UNL     1       0.916   2.718  19.867  0.00  0.00    +0.000 A 
ATOM     17  C   UNL     1       1.385   2.479  21.152  0.00  0.00    +0.000 A 
ATOM     18  C   UNL     1       2.156   3.449  21.790  0.00  0.00    +0.000 A 
ATOM     19  C   UNL     1       2.457   4.659  21.141  0.00  0.00    +0.000 A 
ENDBRANCH   5  14
BRANCH   2  20
ATOM     20  C   UNL     1       1.272   9.016  18.024  0.00  0.00    +0.000 C 
BRANCH  20  21
ATOM     21  C   UNL     1       1.383  10.401  18.671  0.00  0.00    +0.000 C 
BRANCH  21  22
ATOM     22  S   UNL     1      -0.223  11.188  18.742  0.00  0.00    +0.000 S 
ATOM     23  O   UNL     1      -0.058  12.584  18.392  0.00  0.00    +0.000 OA
ATOM     24  O   UNL     1      -1.167  10.355  18.034  0.00  0.00    +0.000 OA
BRANCH  22  25
ATOM     25  C   UNL     1      -0.660  11.134  20.475  0.00  0.00    +0.000 A 
ATOM     26  C   UNL     1      -1.510  12.113  21.000  0.00  0.00    +0.000 A 
ATOM     27  C   UNL     1      -1.852  12.076  22.352  0.00  0.00    +0.000 A 
ATOM     28  C   UNL     1      -1.360  11.058  23.169  0.00  0.00    +0.000 A 
ATOM     29  C   UNL     1      -0.546  10.059  22.633  0.00  0.00    +0.000 A 
ATOM     30  C   UNL     1      -0.201  10.086  21.280  0.00  0.00    +0.000 A 
ENDBRANCH  22  25
ENDBRANCH  21  22
ENDBRANCH  20  21
ENDBRANCH   2  20
TORSDOF 7
ENDMDL
MODEL 7
REMARK VINA RESULT:      -8.5      1.835      2.604
REMARK  Name = 
REMARK  8 active torsions:
REMARK  status: ('A' for Active; 'I' for Inactive)
REMARK    1  A    between atoms: C_1  and  O_2
REMARK    2  A    between atoms: O_2  and  C_3
REMARK    3  A    between atoms: C_6  and  C_7
REMARK    4  A    between atoms: C_8  and  C_9
REMARK    5  A    between atoms: C_9  and  C_10
REMARK    6  A    between atoms: C_10  and  S_11
REMARK    7  A    between atoms: S_11  and  C_14
REMARK    8  A    between atoms: N_22  and  C_23
REMARK                            x       y       z     vdW  Elec       q    Type
REMARK                         _______ _______ _______ _____ _____    ______ ____
ROOT
ATOM      1  C   UNL     1       2.489   6.243  17.838  0.00  0.00    +0.000 C 
ATOM      2  C   UNL     1       2.345   7.730  18.374  0.00  0.00    +0.000 C 
ATOM      3  C   UNL     1       2.241   7.084  19.753  0.00  0.00    +0.000 C 
ATOM      4  O   UNL     1       2.174   7.542  20.865  0.00  0.00    +0.000 OA
ATOM      5  N   UNL     1       2.199   5.833  19.230  0.00  0.00    +0.000 N 
ENDROOT
BRANCH   1   9
ATOM      6  C   UNL     1       6.439   5.327  15.965  0.00  0.00    +0.000 A 
ATOM      7  C   UNL     1       6.222   6.542  16.575  0.00  0.00    +0.000 A 
ATOM      8  C   UNL     1       5.001   6.787  17.194  0.00  0.00    +0.000 A 
ATOM      9  C   UNL     1       3.938   5.865  17.237  0.00  0.00    +0.000 A 
ATOM     10  C   UNL     1       4.220   4.613  16.664  0.00  0.00    +0.000 A 
ATOM     11  C   UNL     1       5.442   4.354  16.020  0.00  0.00    +0.000 A 
BRANCH   6  13
ATOM     12  C   UNL     1       7.509   4.990  13.905  0.00  0.00    +0.000 C 
ATOM     13  O   UNL     1       7.625   5.227  15.298  0.00  0.00    +0.000 OA
ENDBRANCH   6  13
ENDBRANCH   1   9
BRANCH   5  14
ATOM     14  C   UNL     1       2.246   4.589  19.883  0.00  0.00    +0.000 A 
ATOM     15  C   UNL     1       1.077   4.087  20.471  0.00  0.00    +0.000 A 
ATOM     16  C   UNL     1       1.095   2.938  21.261  0.00  0.00    +0.000 A 
ATOM     17  C   UNL     1       2.290   2.268  21.491  0.00  0.00    +0.000 A 
ATOM     18  C   UNL     1       3.461   2.732  20.895  0.00  0.00    +0.000 A 
ATOM     19  C   UNL     1       3.435   3.868  20.068  0.00  0.00    +0.000 A 
ENDBRANCH   5  14
BRANCH   2  20
ATOM     20  C   UNL     1       1.110   8.537  17.982  0.00  0.00    +0.000 C 
BRANCH  20  21
ATOM     21  C   UNL     1       1.290  10.027  18.296  0.00  0.00    +0.000 C 
BRANCH  21  22
ATOM     22  S   UNL     1       0.009  10.590  19.414  0.00  0.00    +0.000 S 
ATOM     23  O   UNL     1      -0.212   9.556  20.405  0.00  0.00    +0.000 OA
ATOM     24  O   UNL     1       0.321  11.942  19.813  0.00  0.00    +0.000 OA
BRANCH  22  25
ATOM     25  C   UNL     1      -1.459  10.660  18.396  0.00  0.00    +0.000 A 
ATOM     26  C   UNL     1      -2.500  11.524  18.751  0.00  0.00    +0.000 A 
ATOM     27  C   UNL     1      -3.648  11.581  17.962  0.00  0.00    +0.000 A 
ATOM     28  C   UNL     1      -3.748  10.791  16.817  0.00  0.00    +0.000 A 
ATOM     29  C   UNL     1      -2.691   9.960  16.443  0.00  0.00    +0.000 A 
ATOM     30  C   UNL     1      -1.536   9.899  17.225  0.00  0.00    +0.000 A 
ENDBRANCH  22  25
ENDBRANCH  21  22
ENDBRANCH  20  21
ENDBRANCH   2  20
TORSDOF 7
ENDMDL
MODEL 8
REMARK VINA RESULT:      -8.2      1.832      2.530
REMARK  Name = 
REMARK  8 active torsions:
REMARK  status: ('A' for Active; 'I' for Inactive)
REMARK    1  A    between atoms: C_1  and  O_2
REMARK    2  A    between atoms: O_2  and  C_3
REMARK    3  A    between atoms: C_6  and  C_7
REMARK    4  A    between atoms: C_8  and  C_9
REMARK    5  A    between atoms: C_9  and  C_10
REMARK    6  A    between atoms: C_10  and  S_11
REMARK    7  A    between atoms: S_11  and  C_14
REMARK    8  A    between atoms: N_22  and  C_23
REMARK                            x       y       z     vdW  Elec       q    Type
REMARK                         _______ _______ _______ _____ _____    ______ ____
ROOT
ATOM      1  C   UNL     1       2.470   6.469  17.853  0.00  0.00    +0.000 C 
ATOM      2  C   UNL     1       2.458   7.970  18.369  0.00  0.00    +0.000 C 
ATOM      3  C   UNL     1       2.215   7.358  19.746  0.00  0.00    +0.000 C 
ATOM      4  O   UNL     1       2.140   7.835  20.850  0.00  0.00    +0.000 OA
ATOM      5  N   UNL     1       2.066   6.111  19.232  0.00  0.00    +0.000 N 
ENDROOT
BRANCH   1   9
ATOM      6  C   UNL     1       6.366   5.066  16.180  0.00  0.00    +0.000 A 
ATOM      7  C   UNL     1       6.191   6.387  16.524  0.00  0.00    +0.000 A 
ATOM      8  C   UNL     1       4.986   6.792  17.088  0.00  0.00    +0.000 A 
ATOM      9  C   UNL     1       3.899   5.931  17.333  0.00  0.00    +0.000 A 
ATOM     10  C   UNL     1       4.138   4.579  17.033  0.00  0.00    +0.000 A 
ATOM     11  C   UNL     1       5.344   4.156  16.447  0.00  0.00    +0.000 A 
BRANCH   6  13
ATOM     12  C   UNL     1       7.475   4.855  14.124  0.00  0.00    +0.000 C 
ATOM     13  O   UNL     1       7.539   4.793  15.539  0.00  0.00    +0.000 OA
ENDBRANCH   6  13
ENDBRANCH   1   9
BRANCH   5  14
ATOM     14  C   UNL     1       1.946   4.878  19.896  0.00  0.00    +0.000 A 
ATOM     15  C   UNL     1       1.108   3.895  19.354  0.00  0.00    +0.000 A 
ATOM     16  C   UNL     1       0.828   2.715  20.044  0.00  0.00    +0.000 A 
ATOM     17  C   UNL     1       1.375   2.496  21.302  0.00  0.00    +0.000 A 
ATOM     18  C   UNL     1       2.233   3.448  21.850  0.00  0.00    +0.000 A 
ATOM     19  C   UNL     1       2.544   4.619  21.138  0.00  0.00    +0.000 A 
ENDBRANCH   5  14
BRANCH   2  20
ATOM     20  C   UNL     1       1.339   8.899  17.907  0.00  0.00    +0.000 C 
BRANCH  20  21
ATOM     21  C   UNL     1       1.686  10.369  18.163  0.00  0.00    +0.000 C 
BRANCH  21  22
ATOM     22  S   UNL     1       0.402  11.157  19.130  0.00  0.00    +0.000 S 
ATOM     23  O   UNL     1      -0.864  10.940  18.461  0.00  0.00    +0.000 OA
ATOM     24  O   UNL     1       0.583  10.780  20.512  0.00  0.00    +0.000 OA
BRANCH  22  25
ATOM     25  C   UNL     1       0.768  12.903  19.001  0.00  0.00    +0.000 A 
ATOM     26  C   UNL     1       2.100  13.320  18.907  0.00  0.00    +0.000 A 
ATOM     27  C   UNL     1       2.390  14.680  18.808  0.00  0.00    +0.000 A 
ATOM     28  C   UNL     1       1.356  15.616  18.788  0.00  0.00    +0.000 A 
ATOM     29  C   UNL     1       0.027  15.194  18.840  0.00  0.00    +0.000 A 
ATOM     30  C   UNL     1      -0.274  13.833  18.936  0.00  0.00    +0.000 A 
ENDBRANCH  22  25
ENDBRANCH  21  22
ENDBRANCH  20  21
ENDBRANCH   2  20
TORSDOF 7
ENDMDL
MODEL 9
REMARK VINA RESULT:      -8.2      1.904      2.449
REMARK  Name = 
REMARK  8 active torsions:
REMARK  status: ('A' for Active; 'I' for Inactive)
REMARK    1  A    between atoms: C_1  and  O_2
REMARK    2  A    between atoms: O_2  and  C_3
REMARK    3  A    between atoms: C_6  and  C_7
REMARK    4  A    between atoms: C_8  and  C_9
REMARK    5  A    between atoms: C_9  and  C_10
REMARK    6  A    between atoms: C_10  and  S_11
REMARK    7  A    between atoms: S_11  and  C_14
REMARK    8  A    between atoms: N_22  and  C_23
REMARK                            x       y       z     vdW  Elec       q    Type
REMARK                         _______ _______ _______ _____ _____    ______ ____
ROOT
ATOM      1  C   UNL     1       2.384   6.635  18.000  0.00  0.00    +0.000 C 
ATOM      2  C   UNL     1       2.445   8.113  18.573  0.00  0.00    +0.000 C 
ATOM      3  C   UNL     1       2.123   7.467  19.918  0.00  0.00    +0.000 C 
ATOM      4  O   UNL     1       2.042   7.907  21.036  0.00  0.00    +0.000 OA
ATOM      5  N   UNL     1       1.917   6.251  19.352  0.00  0.00    +0.000 N 
ENDROOT
BRANCH   1   9
ATOM      6  C   UNL     1       6.232   5.043  16.384  0.00  0.00    +0.000 A 
ATOM      7  C   UNL     1       6.102   6.381  16.683  0.00  0.00    +0.000 A 
ATOM      8  C   UNL     1       4.911   6.845  17.231  0.00  0.00    +0.000 A 
ATOM      9  C   UNL     1       3.795   6.030  17.501  0.00  0.00    +0.000 A 
ATOM     10  C   UNL     1       3.988   4.662  17.247  0.00  0.00    +0.000 A 
ATOM     11  C   UNL     1       5.178   4.178  16.678  0.00  0.00    +0.000 A 
BRANCH   6  13
ATOM     12  C   UNL     1       7.346   4.763  14.339  0.00  0.00    +0.000 C 
ATOM     13  O   UNL     1       7.395   4.709  15.755  0.00  0.00    +0.000 OA
ENDBRANCH   6  13
ENDBRANCH   1   9
BRANCH   5  14
ATOM     14  C   UNL     1       1.703   5.004  19.964  0.00  0.00    +0.000 A 
ATOM     15  C   UNL     1       2.324   4.735  21.190  0.00  0.00    +0.000 A 
ATOM     16  C   UNL     1       2.275   3.467  21.769  0.00  0.00    +0.000 A 
ATOM     17  C   UNL     1       1.609   2.431  21.125  0.00  0.00    +0.000 A 
ATOM     18  C   UNL     1       0.961   2.681  19.917  0.00  0.00    +0.000 A 
ATOM     19  C   UNL     1       0.979   3.968  19.354  0.00  0.00    +0.000 A 
ENDBRANCH   5  14
BRANCH   2  20
ATOM     20  C   UNL     1       1.398   9.125  18.115  0.00  0.00    +0.000 C 
BRANCH  20  21
ATOM     21  C   UNL     1       0.207   9.177  19.077  0.00  0.00    +0.000 C 
BRANCH  21  22
ATOM     22  S   UNL     1      -0.418  10.849  19.211  0.00  0.00    +0.000 S 
ATOM     23  O   UNL     1      -0.867  11.056  20.573  0.00  0.00    +0.000 OA
ATOM     24  O   UNL     1       0.544  11.740  18.606  0.00  0.00    +0.000 OA
BRANCH  22  25
ATOM     25  C   UNL     1      -1.875  10.855  18.175  0.00  0.00    +0.000 A 
ATOM     26  C   UNL     1      -1.910  10.044  17.036  0.00  0.00    +0.000 A 
ATOM     27  C   UNL     1      -3.043  10.047  16.223  0.00  0.00    +0.000 A 
ATOM     28  C   UNL     1      -4.140  10.842  16.556  0.00  0.00    +0.000 A 
ATOM     29  C   UNL     1      -4.118  11.618  17.716  0.00  0.00    +0.000 A 
ATOM     30  C   UNL     1      -2.989  11.619  18.538  0.00  0.00    +0.000 A 
ENDBRANCH  22  25
ENDBRANCH  21  22
ENDBRANCH  20  21
ENDBRANCH   2  20
TORSDOF 7
ENDMDL
