MODEL 1
REMARK VINA RESULT:      -7.3      0.000      0.000
REMARK  Name = 
REMARK  6 active torsions:
REMARK  status: ('A' for Active; 'I' for Inactive)
REMARK    1  A    between atoms: C_1  and  C_2
REMARK    2  A    between atoms: C_4  and  N_5
REMARK    3  A    between atoms: N_5  and  C_6
REMARK    4  A    between atoms: C_6  and  C_7
REMARK    5  A    between atoms: C_7  and  N_8
REMARK    6  A    between atoms: N_8  and  C_9
REMARK                            x       y       z     vdW  Elec       q    Type
REMARK                         _______ _______ _______ _____ _____    ______ ____
ROOT
ATOM      1  N   UNL     1       3.046   2.596  21.232  0.00  0.00    +0.000 N 
ATOM      2  H   UNL     1       3.168   3.408  21.847  0.00  0.00    +0.000 HD
ENDROOT
BRANCH   1   3
ATOM      3  C   UNL     1       2.137   2.940  20.183  0.00  0.00    +0.000 A 
ATOM      4  C   UNL     1       1.354   1.971  19.551  0.00  0.00    +0.000 A 
ATOM      5  C   UNL     1       0.737   2.303  18.363  0.00  0.00    +0.000 A 
ATOM      6  N   UNL     1       0.894   3.488  17.747  0.00  0.00    +0.000 NA
ATOM      7  C   UNL     1       1.578   4.443  18.401  0.00  0.00    +0.000 A 
ATOM      8  C   UNL     1       1.937   5.597  17.730  0.00  0.00    +0.000 A 
ATOM      9  C   UNL     1       2.649   6.602  18.383  0.00  0.00    +0.000 A 
ATOM     10 CL   UNL     1       3.522   7.763  17.462  0.00  0.00    +0.000 Cl
ATOM     11  C   UNL     1       2.796   6.582  19.760  0.00  0.00    +0.000 A 
ATOM     12  C   UNL     1       2.529   5.397  20.427  0.00  0.00    +0.000 A 
ATOM     13  C   UNL     1       2.062   4.268  19.706  0.00  0.00    +0.000 A 
ENDBRANCH   1   3
BRANCH   1  14
ATOM     14  C   UNL     1       4.354   2.127  20.724  0.00  0.00    +0.000 C 
BRANCH  14  15
ATOM     15  C   UNL     1       4.736   2.671  19.331  0.00  0.00    +0.000 C 
BRANCH  15  16
ATOM     16  N   UNL     1       5.623   3.832  19.501  0.00  0.00    +0.000 N 
ATOM     17  H   UNL     1       5.285   4.455  20.237  0.00  0.00    +0.000 HD
BRANCH  16  21
ATOM     18  C   UNL     1       7.652   7.813  17.483  0.00  0.00    +0.000 C 
ATOM     19  C   UNL     1       6.881   6.531  17.389  0.00  0.00    +0.000 A 
ATOM     20  C   UNL     1       6.609   5.771  18.514  0.00  0.00    +0.000 A 
ATOM     21  C   UNL     1       5.895   4.594  18.350  0.00  0.00    +0.000 A 
ATOM     22  N   UNL     1       5.496   4.171  17.144  0.00  0.00    +0.000 NA
ATOM     23  C   UNL     1       5.824   4.969  16.126  0.00  0.00    +0.000 A 
ATOM     24 CL   UNL     1       5.322   4.461  14.572  0.00  0.00    +0.000 Cl
ATOM     25  N   UNL     1       6.494   6.140  16.170  0.00  0.00    +0.000 NA
ENDBRANCH  16  21
ENDBRANCH  15  16
ENDBRANCH  14  15
ENDBRANCH   1  14
TORSDOF 5
ENDMDL
MODEL 2
REMARK VINA RESULT:      -7.1      4.330      6.651
REMARK  Name = 
REMARK  6 active torsions:
REMARK  status: ('A' for Active; 'I' for Inactive)
REMARK    1  A    between atoms: C_1  and  C_2
REMARK    2  A    between atoms: C_4  and  N_5
REMARK    3  A    between atoms: N_5  and  C_6
REMARK    4  A    between atoms: C_6  and  C_7
REMARK    5  A    between atoms: C_7  and  N_8
REMARK    6  A    between atoms: N_8  and  C_9
REMARK                            x       y       z     vdW  Elec       q    Type
REMARK                         _______ _______ _______ _____ _____    ______ ____
ROOT
ATOM      1  N   UNL     1       6.478   7.296  17.140  0.00  0.00    +0.000 N 
ATOM      2  H   UNL     1       6.433   7.849  16.278  0.00  0.00    +0.000 HD
ENDROOT
BRANCH   1   3
ATOM      3  C   UNL     1       6.305   5.914  16.817  0.00  0.00    +0.000 A 
ATOM      4  C   UNL     1       7.036   5.309  15.792  0.00  0.00    +0.000 A 
ATOM      5  C   UNL     1       6.617   4.080  15.327  0.00  0.00    +0.000 A 
ATOM      6  N   UNL     1       5.508   3.457  15.765  0.00  0.00    +0.000 NA
ATOM      7  C   UNL     1       4.859   4.002  16.808  0.00  0.00    +0.000 A 
ATOM      8  C   UNL     1       3.614   3.516  17.160  0.00  0.00    +0.000 A 
ATOM      9  C   UNL     1       2.918   4.065  18.235  0.00  0.00    +0.000 A 
ATOM     10 CL   UNL     1       1.217   3.834  18.355  0.00  0.00    +0.000 Cl
ATOM     11  C   UNL     1       3.547   4.926  19.118  0.00  0.00    +0.000 A 
ATOM     12  C   UNL     1       4.751   5.493  18.728  0.00  0.00    +0.000 A 
ATOM     13  C   UNL     1       5.331   5.138  17.483  0.00  0.00    +0.000 A 
ENDBRANCH   1   3
BRANCH   1  14
ATOM     14  C   UNL     1       7.744   7.560  17.861  0.00  0.00    +0.000 C 
BRANCH  14  15
ATOM     15  C   UNL     1       8.218   9.029  17.812  0.00  0.00    +0.000 C 
BRANCH  15  16
ATOM     16  N   UNL     1       8.959   9.329  19.047  0.00  0.00    +0.000 N 
ATOM     17  H   UNL     1       8.409   9.100  19.877  0.00  0.00    +0.000 HD
BRANCH  16  21
ATOM     18  C   UNL     1      11.172  13.206  17.018  0.00  0.00    +0.000 C 
ATOM     19  C   UNL     1      10.537  12.506  18.183  0.00  0.00    +0.000 A 
ATOM     20  C   UNL     1      10.038  11.220  18.063  0.00  0.00    +0.000 A 
ATOM     21  C   UNL     1       9.459  10.637  19.181  0.00  0.00    +0.000 A 
ATOM     22  N   UNL     1       9.350  11.293  20.343  0.00  0.00    +0.000 NA
ATOM     23  C   UNL     1       9.848  12.531  20.345  0.00  0.00    +0.000 A 
ATOM     24 CL   UNL     1       9.731  13.393  21.817  0.00  0.00    +0.000 Cl
ATOM     25  N   UNL     1      10.448  13.187  19.330  0.00  0.00    +0.000 NA
ENDBRANCH  16  21
ENDBRANCH  15  16
ENDBRANCH  14  15
ENDBRANCH   1  14
TORSDOF 5
ENDMDL
MODEL 3
REMARK VINA RESULT:      -7.1      3.142      4.231
REMARK  Name = 
REMARK  6 active torsions:
REMARK  status: ('A' for Active; 'I' for Inactive)
REMARK    1  A    between atoms: C_1  and  C_2
REMARK    2  A    between atoms: C_4  and  N_5
REMARK    3  A    between atoms: N_5  and  C_6
REMARK    4  A    between atoms: C_6  and  C_7
REMARK    5  A    between atoms: C_7  and  N_8
REMARK    6  A    between atoms: N_8  and  C_9
REMARK                            x       y       z     vdW  Elec       q    Type
REMARK                         _______ _______ _______ _____ _____    ______ ____
ROOT
ATOM      1  N   UNL     1       3.004   6.162  20.233  0.00  0.00    +0.000 N 
ATOM      2  H   UNL     1       3.905   6.510  20.575  0.00  0.00    +0.000 HD
ENDROOT
BRANCH   1   3
ATOM      3  C   UNL     1       2.373   7.185  19.458  0.00  0.00    +0.000 A 
ATOM      4  C   UNL     1       2.816   7.503  18.173  0.00  0.00    +0.000 A 
ATOM      5  C   UNL     1       2.380   8.681  17.603  0.00  0.00    +0.000 A 
ATOM      6  N   UNL     1       1.598   9.571  18.240  0.00  0.00    +0.000 NA
ATOM      7  C   UNL     1       1.106   9.220  19.441  0.00  0.00    +0.000 A 
ATOM      8  C   UNL     1       0.471  10.172  20.216  0.00  0.00    +0.000 A 
ATOM      9  C   UNL     1      -0.046   9.835  21.466  0.00  0.00    +0.000 A 
ATOM     10 CL   UNL     1      -0.360  11.074  22.618  0.00  0.00    +0.000 Cl
ATOM     11  C   UNL     1      -0.156   8.510  21.852  0.00  0.00    +0.000 A 
ATOM     12  C   UNL     1       0.558   7.562  21.135  0.00  0.00    +0.000 A 
ATOM     13  C   UNL     1       1.323   7.954  20.006  0.00  0.00    +0.000 A 
ENDBRANCH   1   3
BRANCH   1  14
ATOM     14  C   UNL     1       3.188   4.903  19.475  0.00  0.00    +0.000 C 
BRANCH  14  15
ATOM     15  C   UNL     1       4.572   4.243  19.651  0.00  0.00    +0.000 C 
BRANCH  15  16
ATOM     16  N   UNL     1       5.008   3.703  18.354  0.00  0.00    +0.000 N 
ATOM     17  H   UNL     1       5.472   2.799  18.462  0.00  0.00    +0.000 HD
BRANCH  16  21
ATOM     18  C   UNL     1       6.953   4.739  13.974  0.00  0.00    +0.000 C 
ATOM     19  C   UNL     1       6.756   5.023  15.433  0.00  0.00    +0.000 A 
ATOM     20  C   UNL     1       5.959   4.211  16.222  0.00  0.00    +0.000 A 
ATOM     21  C   UNL     1       5.818   4.537  17.562  0.00  0.00    +0.000 A 
ATOM     22  N   UNL     1       6.404   5.619  18.091  0.00  0.00    +0.000 NA
ATOM     23  C   UNL     1       7.136   6.341  17.240  0.00  0.00    +0.000 A 
ATOM     24 CL   UNL     1       7.903   7.726  17.888  0.00  0.00    +0.000 Cl
ATOM     25  N   UNL     1       7.358   6.108  15.930  0.00  0.00    +0.000 NA
ENDBRANCH  16  21
ENDBRANCH  15  16
ENDBRANCH  14  15
ENDBRANCH   1  14
TORSDOF 5
ENDMDL
MODEL 4
REMARK VINA RESULT:      -7.1      2.868      4.629
REMARK  Name = 
REMARK  6 active torsions:
REMARK  status: ('A' for Active; 'I' for Inactive)
REMARK    1  A    between atoms: C_1  and  C_2
REMARK    2  A    between atoms: C_4  and  N_5
REMARK    3  A    between atoms: N_5  and  C_6
REMARK    4  A    between atoms: C_6  and  C_7
REMARK    5  A    between atoms: C_7  and  N_8
REMARK    6  A    between atoms: N_8  and  C_9
REMARK                            x       y       z     vdW  Elec       q    Type
REMARK                         _______ _______ _______ _____ _____    ______ ____
ROOT
ATOM      1  N   UNL     1       4.769   6.258  17.004  0.00  0.00    +0.000 N 
ATOM      2  H   UNL     1       4.570   5.439  16.420  0.00  0.00    +0.000 HD
ENDROOT
BRANCH   1   3
ATOM      3  C   UNL     1       3.610   6.570  17.780  0.00  0.00    +0.000 A 
ATOM      4  C   UNL     1       3.151   7.883  17.908  0.00  0.00    +0.000 A 
ATOM      5  C   UNL     1       2.231   8.160  18.897  0.00  0.00    +0.000 A 
ATOM      6  N   UNL     1       1.793   7.248  19.785  0.00  0.00    +0.000 NA
ATOM      7  C   UNL     1       2.171   5.971  19.602  0.00  0.00    +0.000 A 
ATOM      8  C   UNL     1       1.917   5.042  20.593  0.00  0.00    +0.000 A 
ATOM      9  C   UNL     1       2.301   3.712  20.430  0.00  0.00    +0.000 A 
ATOM     10 CL   UNL     1       2.457   2.697  21.810  0.00  0.00    +0.000 Cl
ATOM     11  C   UNL     1       2.715   3.242  19.195  0.00  0.00    +0.000 A 
ATOM     12  C   UNL     1       3.065   4.172  18.228  0.00  0.00    +0.000 A 
ATOM     13  C   UNL     1       2.935   5.559  18.499  0.00  0.00    +0.000 A 
ENDBRANCH   1   3
BRANCH   1  14
ATOM     14  C   UNL     1       5.969   6.023  17.838  0.00  0.00    +0.000 C 
BRANCH  14  15
ATOM     15  C   UNL     1       7.000   5.051  17.223  0.00  0.00    +0.000 C 
BRANCH  15  16
ATOM     16  N   UNL     1       6.298   4.127  16.318  0.00  0.00    +0.000 N 
ATOM     17  H   UNL     1       6.426   3.155  16.605  0.00  0.00    +0.000 HD
BRANCH  16  21
ATOM     18  C   UNL     1       5.364   2.782  11.696  0.00  0.00    +0.000 C 
ATOM     19  C   UNL     1       6.132   3.572  12.714  0.00  0.00    +0.000 A 
ATOM     20  C   UNL     1       5.848   3.474  14.065  0.00  0.00    +0.000 A 
ATOM     21  C   UNL     1       6.595   4.238  14.948  0.00  0.00    +0.000 A 
ATOM     22  N   UNL     1       7.550   5.076  14.523  0.00  0.00    +0.000 NA
ATOM     23  C   UNL     1       7.732   5.106  13.201  0.00  0.00    +0.000 A 
ATOM     24 CL   UNL     1       8.950   6.161  12.628  0.00  0.00    +0.000 Cl
ATOM     25  N   UNL     1       7.082   4.395  12.257  0.00  0.00    +0.000 NA
ENDBRANCH  16  21
ENDBRANCH  15  16
ENDBRANCH  14  15
ENDBRANCH   1  14
TORSDOF 5
ENDMDL
MODEL 5
REMARK VINA RESULT:      -7.0      2.431      3.352
REMARK  Name = 
REMARK  6 active torsions:
REMARK  status: ('A' for Active; 'I' for Inactive)
REMARK    1  A    between atoms: C_1  and  C_2
REMARK    2  A    between atoms: C_4  and  N_5
REMARK    3  A    between atoms: N_5  and  C_6
REMARK    4  A    between atoms: C_6  and  C_7
REMARK    5  A    between atoms: C_7  and  N_8
REMARK    6  A    between atoms: N_8  and  C_9
REMARK                            x       y       z     vdW  Elec       q    Type
REMARK                         _______ _______ _______ _____ _____    ______ ____
ROOT
ATOM      1  N   UNL     1       3.674   5.694  20.073  0.00  0.00    +0.000 N 
ATOM      2  H   UNL     1       4.687   5.769  19.934  0.00  0.00    +0.000 HD
ENDROOT
BRANCH   1   3
ATOM      3  C   UNL     1       3.014   6.592  19.178  0.00  0.00    +0.000 A 
ATOM      4  C   UNL     1       3.427   6.730  17.850  0.00  0.00    +0.000 A 
ATOM      5  C   UNL     1       2.963   7.812  17.131  0.00  0.00    +0.000 A 
ATOM      6  N   UNL     1       2.183   8.776  17.654  0.00  0.00    +0.000 NA
ATOM      7  C   UNL     1       1.720   8.592  18.903  0.00  0.00    +0.000 A 
ATOM      8  C   UNL     1       1.089   9.636  19.551  0.00  0.00    +0.000 A 
ATOM      9  C   UNL     1       0.603   9.474  20.847  0.00  0.00    +0.000 A 
ATOM     10 CL   UNL     1       0.296  10.859  21.821  0.00  0.00    +0.000 Cl
ATOM     11  C   UNL     1       0.518   8.214  21.417  0.00  0.00    +0.000 A 
ATOM     12  C   UNL     1       1.230   7.182  20.825  0.00  0.00    +0.000 A 
ATOM     13  C   UNL     1       1.966   7.420  19.636  0.00  0.00    +0.000 A 
ENDBRANCH   1   3
BRANCH   1  14
ATOM     14  C   UNL     1       3.230   4.292  19.908  0.00  0.00    +0.000 C 
BRANCH  14  15
ATOM     15  C   UNL     1       3.957   3.514  18.790  0.00  0.00    +0.000 C 
BRANCH  15  16
ATOM     16  N   UNL     1       5.408   3.654  18.982  0.00  0.00    +0.000 N 
ATOM     17  H   UNL     1       5.633   3.950  19.934  0.00  0.00    +0.000 HD
BRANCH  16  21
ATOM     18  C   UNL     1       8.203   7.606  18.198  0.00  0.00    +0.000 C 
ATOM     19  C   UNL     1       7.439   6.411  17.713  0.00  0.00    +0.000 A 
ATOM     20  C   UNL     1       6.769   5.580  18.595  0.00  0.00    +0.000 A 
ATOM     21  C   UNL     1       6.087   4.489  18.076  0.00  0.00    +0.000 A 
ATOM     22  N   UNL     1       6.089   4.214  16.766  0.00  0.00    +0.000 NA
ATOM     23  C   UNL     1       6.779   5.068  16.007  0.00  0.00    +0.000 A 
ATOM     24 CL   UNL     1       6.794   4.748  14.327  0.00  0.00    +0.000 Cl
ATOM     25  N   UNL     1       7.457   6.166  16.399  0.00  0.00    +0.000 NA
ENDBRANCH  16  21
ENDBRANCH  15  16
ENDBRANCH  14  15
ENDBRANCH   1  14
TORSDOF 5
ENDMDL
MODEL 6
REMARK VINA RESULT:      -7.0      2.339      3.178
REMARK  Name = 
REMARK  6 active torsions:
REMARK  status: ('A' for Active; 'I' for Inactive)
REMARK    1  A    between atoms: C_1  and  C_2
REMARK    2  A    between atoms: C_4  and  N_5
REMARK    3  A    between atoms: N_5  and  C_6
REMARK    4  A    between atoms: C_6  and  C_7
REMARK    5  A    between atoms: C_7  and  N_8
REMARK    6  A    between atoms: N_8  and  C_9
REMARK                            x       y       z     vdW  Elec       q    Type
REMARK                         _______ _______ _______ _____ _____    ______ ____
ROOT
ATOM      1  N   UNL     1       3.021   3.721  17.312  0.00  0.00    +0.000 N 
ATOM      2  H   UNL     1       2.356   2.942  17.271  0.00  0.00    +0.000 HD
ENDROOT
BRANCH   1   3
ATOM      3  C   UNL     1       2.900   4.371  18.580  0.00  0.00    +0.000 A 
ATOM      4  C   UNL     1       2.667   3.644  19.750  0.00  0.00    +0.000 A 
ATOM      5  C   UNL     1       2.259   4.330  20.875  0.00  0.00    +0.000 A 
ATOM      6  N   UNL     1       2.016   5.654  20.893  0.00  0.00    +0.000 NA
ATOM      7  C   UNL     1       2.324   6.358  19.791  0.00  0.00    +0.000 A 
ATOM      8  C   UNL     1       1.908   7.672  19.689  0.00  0.00    +0.000 A 
ATOM      9  C   UNL     1       2.211   8.424  18.556  0.00  0.00    +0.000 A 
ATOM     10 CL   UNL     1       1.292   9.834  18.198  0.00  0.00    +0.000 Cl
ATOM     11  C   UNL     1       3.132   7.965  17.628  0.00  0.00    +0.000 A 
ATOM     12  C   UNL     1       3.480   6.623  17.666  0.00  0.00    +0.000 A 
ATOM     13  C   UNL     1       2.942   5.779  18.671  0.00  0.00    +0.000 A 
ENDBRANCH   1   3
BRANCH   1  14
ATOM     14  C   UNL     1       4.397   3.244  17.043  0.00  0.00    +0.000 C 
BRANCH  14  15
ATOM     15  C   UNL     1       5.190   4.103  16.034  0.00  0.00    +0.000 C 
BRANCH  15  16
ATOM     16  N   UNL     1       6.624   3.996  16.344  0.00  0.00    +0.000 N 
ATOM     17  H   UNL     1       6.868   3.056  16.661  0.00  0.00    +0.000 HD
BRANCH  16  21
ATOM     18  C   UNL     1       7.684   8.658  17.433  0.00  0.00    +0.000 C 
ATOM     19  C   UNL     1       7.655   7.196  17.767  0.00  0.00    +0.000 A 
ATOM     20  C   UNL     1       7.143   6.266  16.879  0.00  0.00    +0.000 A 
ATOM     21  C   UNL     1       7.144   4.932  17.257  0.00  0.00    +0.000 A 
ATOM     22  N   UNL     1       7.594   4.537  18.455  0.00  0.00    +0.000 NA
ATOM     23  C   UNL     1       8.050   5.516  19.240  0.00  0.00    +0.000 A 
ATOM     24 CL   UNL     1       8.640   5.043  20.775  0.00  0.00    +0.000 Cl
ATOM     25  N   UNL     1       8.117   6.835  18.970  0.00  0.00    +0.000 NA
ENDBRANCH  16  21
ENDBRANCH  15  16
ENDBRANCH  14  15
ENDBRANCH   1  14
TORSDOF 5
ENDMDL
MODEL 7
REMARK VINA RESULT:      -7.0      2.158      3.207
REMARK  Name = 
REMARK  6 active torsions:
REMARK  status: ('A' for Active; 'I' for Inactive)
REMARK    1  A    between atoms: C_1  and  C_2
REMARK    2  A    between atoms: C_4  and  N_5
REMARK    3  A    between atoms: N_5  and  C_6
REMARK    4  A    between atoms: C_6  and  C_7
REMARK    5  A    between atoms: C_7  and  N_8
REMARK    6  A    between atoms: N_8  and  C_9
REMARK                            x       y       z     vdW  Elec       q    Type
REMARK                         _______ _______ _______ _____ _____    ______ ____
ROOT
ATOM      1  N   UNL     1       2.282   4.423  17.519  0.00  0.00    +0.000 N 
ATOM      2  H   UNL     1       1.361   4.533  17.082  0.00  0.00    +0.000 HD
ENDROOT
BRANCH   1   3
ATOM      3  C   UNL     1       2.280   5.094  18.781  0.00  0.00    +0.000 A 
ATOM      4  C   UNL     1       2.110   4.394  19.978  0.00  0.00    +0.000 A 
ATOM      5  C   UNL     1       1.814   5.112  21.118  0.00  0.00    +0.000 A 
ATOM      6  N   UNL     1       1.620   6.443  21.132  0.00  0.00    +0.000 NA
ATOM      7  C   UNL     1       1.870   7.119  19.997  0.00  0.00    +0.000 A 
ATOM      8  C   UNL     1       1.495   8.446  19.904  0.00  0.00    +0.000 A 
ATOM      9  C   UNL     1       1.738   9.170  18.739  0.00  0.00    +0.000 A 
ATOM     10 CL   UNL     1       0.846  10.608  18.427  0.00  0.00    +0.000 Cl
ATOM     11  C   UNL     1       2.569   8.663  17.753  0.00  0.00    +0.000 A 
ATOM     12  C   UNL     1       2.870   7.310  17.787  0.00  0.00    +0.000 A 
ATOM     13  C   UNL     1       2.380   6.502  18.845  0.00  0.00    +0.000 A 
ENDBRANCH   1   3
BRANCH   1  14
ATOM     14  C   UNL     1       2.633   2.990  17.635  0.00  0.00    +0.000 C 
BRANCH  14  15
ATOM     15  C   UNL     1       4.086   2.650  17.237  0.00  0.00    +0.000 C 
BRANCH  15  16
ATOM     16  N   UNL     1       5.002   3.483  18.031  0.00  0.00    +0.000 N 
ATOM     17  H   UNL     1       4.501   4.007  18.751  0.00  0.00    +0.000 HD
BRANCH  16  21
ATOM     18  C   UNL     1       7.124   4.759  13.799  0.00  0.00    +0.000 C 
ATOM     19  C   UNL     1       6.853   4.971  15.259  0.00  0.00    +0.000 A 
ATOM     20  C   UNL     1       6.039   4.108  15.972  0.00  0.00    +0.000 A 
ATOM     21  C   UNL     1       5.830   4.369  17.317  0.00  0.00    +0.000 A 
ATOM     22  N   UNL     1       6.366   5.436  17.922  0.00  0.00    +0.000 NA
ATOM     23  C   UNL     1       7.121   6.211  17.140  0.00  0.00    +0.000 A 
ATOM     24 CL   UNL     1       7.827   7.579  17.885  0.00  0.00    +0.000 Cl
ATOM     25  N   UNL     1       7.408   6.044  15.833  0.00  0.00    +0.000 NA
ENDBRANCH  16  21
ENDBRANCH  15  16
ENDBRANCH  14  15
ENDBRANCH   1  14
TORSDOF 5
ENDMDL
MODEL 8
REMARK VINA RESULT:      -6.9      3.313      4.285
REMARK  Name = 
REMARK  6 active torsions:
REMARK  status: ('A' for Active; 'I' for Inactive)
REMARK    1  A    between atoms: C_1  and  C_2
REMARK    2  A    between atoms: C_4  and  N_5
REMARK    3  A    between atoms: N_5  and  C_6
REMARK    4  A    between atoms: C_6  and  C_7
REMARK    5  A    between atoms: C_7  and  N_8
REMARK    6  A    between atoms: N_8  and  C_9
REMARK                            x       y       z     vdW  Elec       q    Type
REMARK                         _______ _______ _______ _____ _____    ______ ____
ROOT
ATOM      1  N   UNL     1       2.865   6.794  20.098  0.00  0.00    +0.000 N 
ATOM      2  H   UNL     1       3.815   7.142  20.263  0.00  0.00    +0.000 HD
ENDROOT
BRANCH   1   3
ATOM      3  C   UNL     1       2.109   7.804  19.426  0.00  0.00    +0.000 A 
ATOM      4  C   UNL     1       2.444   8.227  18.137  0.00  0.00    +0.000 A 
ATOM      5  C   UNL     1       1.884   9.396  17.667  0.00  0.00    +0.000 A 
ATOM      6  N   UNL     1       1.078  10.185  18.402  0.00  0.00    +0.000 NA
ATOM      7  C   UNL     1       0.692   9.729  19.606  0.00  0.00    +0.000 A 
ATOM      8  C   UNL     1       0.037  10.583  20.474  0.00  0.00    +0.000 A 
ATOM      9  C   UNL     1      -0.371  10.138  21.729  0.00  0.00    +0.000 A 
ATOM     10 CL   UNL     1      -0.706  11.281  22.971  0.00  0.00    +0.000 Cl
ATOM     11  C   UNL     1      -0.355   8.788  22.040  0.00  0.00    +0.000 A 
ATOM     12  C   UNL     1       0.382   7.941  21.227  0.00  0.00    +0.000 A 
ATOM     13  C   UNL     1       1.041   8.456  20.081  0.00  0.00    +0.000 A 
ENDBRANCH   1   3
BRANCH   1  14
ATOM     14  C   UNL     1       2.902   5.516  19.351  0.00  0.00    +0.000 C 
BRANCH  14  15
ATOM     15  C   UNL     1       4.152   4.650  19.621  0.00  0.00    +0.000 C 
BRANCH  15  16
ATOM     16  N   UNL     1       4.577   4.026  18.358  0.00  0.00    +0.000 N 
ATOM     17  H   UNL     1       4.926   3.078  18.509  0.00  0.00    +0.000 HD
BRANCH  16  21
ATOM     18  C   UNL     1       7.985   7.541  18.080  0.00  0.00    +0.000 C 
ATOM     19  C   UNL     1       7.161   6.447  17.469  0.00  0.00    +0.000 A 
ATOM     20  C   UNL     1       6.237   5.738  18.218  0.00  0.00    +0.000 A 
ATOM     21  C   UNL     1       5.515   4.737  17.587  0.00  0.00    +0.000 A 
ATOM     22  N   UNL     1       5.710   4.430  16.298  0.00  0.00    +0.000 NA
ATOM     23  C   UNL     1       6.635   5.163  15.674  0.00  0.00    +0.000 A 
ATOM     24 CL   UNL     1       6.903   4.799  14.024  0.00  0.00    +0.000 Cl
ATOM     25  N   UNL     1       7.378   6.168  16.179  0.00  0.00    +0.000 NA
ENDBRANCH  16  21
ENDBRANCH  15  16
ENDBRANCH  14  15
ENDBRANCH   1  14
TORSDOF 5
ENDMDL
MODEL 9
REMARK VINA RESULT:      -6.9      3.323      4.306
REMARK  Name = 
REMARK  6 active torsions:
REMARK  status: ('A' for Active; 'I' for Inactive)
REMARK    1  A    between atoms: C_1  and  C_2
REMARK    2  A    between atoms: C_4  and  N_5
REMARK    3  A    between atoms: N_5  and  C_6
REMARK    4  A    between atoms: C_6  and  C_7
REMARK    5  A    between atoms: C_7  and  N_8
REMARK    6  A    between atoms: N_8  and  C_9
REMARK                            x       y       z     vdW  Elec       q    Type
REMARK                         _______ _______ _______ _____ _____    ______ ____
ROOT
ATOM      1  N   UNL     1       2.346   6.720  20.657  0.00  0.00    +0.000 N 
ATOM      2  H   UNL     1       3.368   6.768  20.734  0.00  0.00    +0.000 HD
ENDROOT
BRANCH   1   3
ATOM      3  C   UNL     1       1.910   7.666  19.678  0.00  0.00    +0.000 A 
ATOM      4  C   UNL     1       2.392   7.633  18.367  0.00  0.00    +0.000 A 
ATOM      5  C   UNL     1       2.177   8.733  17.564  0.00  0.00    +0.000 A 
ATOM      6  N   UNL     1       1.581   9.862  17.989  0.00  0.00    +0.000 NA
ATOM      7  C   UNL     1       1.044   9.855  19.221  0.00  0.00    +0.000 A 
ATOM      8  C   UNL     1       0.605  11.043  19.775  0.00  0.00    +0.000 A 
ATOM      9  C   UNL     1       0.047  11.064  21.051  0.00  0.00    +0.000 A 
ATOM     10 CL   UNL     1      -0.020  12.545  21.926  0.00  0.00    +0.000 Cl
ATOM     11  C   UNL     1      -0.305   9.886  21.689  0.00  0.00    +0.000 A 
ATOM     12  C   UNL     1       0.213   8.699  21.195  0.00  0.00    +0.000 A 
ATOM     13  C   UNL     1       1.027   8.710  20.033  0.00  0.00    +0.000 A 
ENDBRANCH   1   3
BRANCH   1  14
ATOM     14  C   UNL     1       1.913   5.339  20.350  0.00  0.00    +0.000 C 
BRANCH  14  15
ATOM     15  C   UNL     1       3.062   4.312  20.247  0.00  0.00    +0.000 C 
BRANCH  15  16
ATOM     16  N   UNL     1       3.221   3.918  18.838  0.00  0.00    +0.000 N 
ATOM     17  H   UNL     1       3.028   2.924  18.704  0.00  0.00    +0.000 HD
BRANCH  16  21
ATOM     18  C   UNL     1       7.731   5.806  19.214  0.00  0.00    +0.000 C 
ATOM     19  C   UNL     1       6.633   5.150  18.430  0.00  0.00    +0.000 A 
ATOM     20  C   UNL     1       5.418   4.838  19.016  0.00  0.00    +0.000 A 
ATOM     21  C   UNL     1       4.452   4.228  18.231  0.00  0.00    +0.000 A 
ATOM     22  N   UNL     1       4.677   3.916  16.949  0.00  0.00    +0.000 NA
ATOM     23  C   UNL     1       5.885   4.246  16.488  0.00  0.00    +0.000 A 
ATOM     24 CL   UNL     1       6.201   3.866  14.850  0.00  0.00    +0.000 Cl
ATOM     25  N   UNL     1       6.889   4.856  17.151  0.00  0.00    +0.000 NA
ENDBRANCH  16  21
ENDBRANCH  15  16
ENDBRANCH  14  15
ENDBRANCH   1  14
TORSDOF 5
ENDMDL
