MODEL 1
REMARK VINA RESULT:      -9.2      0.000      0.000
REMARK  Name = 
REMARK  7 active torsions:
REMARK  status: ('A' for Active; 'I' for Inactive)
REMARK    1  A    between atoms: C_2  and  O_3
REMARK    2  A    between atoms: C_2  and  C_21
REMARK    3  A    between atoms: O_3  and  C_4
REMARK    4  A    between atoms: C_4  and  C_5
REMARK    5  A    between atoms: C_5  and  C_13
REMARK    6  A    between atoms: C_6  and  C_7
REMARK    7  A    between atoms: C_13  and  C_15
REMARK                            x       y       z     vdW  Elec       q    Type
REMARK                         _______ _______ _______ _____ _____    ______ ____
ROOT
ATOM      1  C   UNL     1       3.755   4.983  17.794  0.00  0.00    +0.000 C 
ATOM      2  C   UNL     1       2.564   4.347  17.875  0.00  0.00    +0.000 C 
ENDROOT
BRANCH   2   3
ATOM      3  C   UNL     1       2.092   2.941  18.194  0.00  0.00    +0.000 C 
ATOM      4  C   UNL     1       3.124   2.232  19.104  0.00  0.00    +0.000 C 
ATOM      5  C   UNL     1       3.104   2.770  20.535  0.00  0.00    +0.000 C 
ATOM      6  C   UNL     1       1.704   2.748  21.143  0.00  0.00    +0.000 C 
ATOM      7  C   UNL     1       0.629   3.324  20.220  0.00  0.00    +0.000 C 
ATOM      8  C   UNL     1       0.711   2.739  18.815  0.00  0.00    +0.000 C 
ENDBRANCH   2   3
BRANCH   1   9
ATOM      9  C   UNL     1       3.703   6.480  17.565  0.00  0.00    +0.000 C 
ATOM     10  O   UNL     1       4.435   7.012  16.736  0.00  0.00    +0.000 OA
BRANCH   9  11
ATOM     11  C   UNL     1       2.725   7.325  18.342  0.00  0.00    +0.000 A 
ATOM     12  C   UNL     1       2.115   8.465  17.796  0.00  0.00    +0.000 A 
ATOM     13  C   UNL     1       1.341   9.304  18.602  0.00  0.00    +0.000 A 
ATOM     14  C   UNL     1       1.120   8.976  19.936  0.00  0.00    +0.000 A 
ATOM     15  C   UNL     1       1.663   7.804  20.467  0.00  0.00    +0.000 A 
ATOM     16  C   UNL     1       2.470   6.986  19.669  0.00  0.00    +0.000 A 
ENDBRANCH   9  11
ENDBRANCH   1   9
BRANCH   1  17
ATOM     17  C   UNL     1       5.161   4.440  17.838  0.00  0.00    +0.000 C 
BRANCH  17  18
ATOM     18  O   UNL     1       5.582   3.961  16.545  0.00  0.00    +0.000 OA
BRANCH  18  20
ATOM     19  O   UNL     1       7.738   4.702  16.789  0.00  0.00    +0.000 OA
ATOM     20  C   UNL     1       6.791   4.367  16.095  0.00  0.00    +0.000 C 
BRANCH  20  21
ATOM     21  C   UNL     1       6.797   4.436  14.605  0.00  0.00    +0.000 A 
ATOM     22  C   UNL     1       5.940   3.576  13.902  0.00  0.00    +0.000 A 
ATOM     23  C   UNL     1       6.025   3.473  12.512  0.00  0.00    +0.000 A 
ATOM     24  C   UNL     1       6.952   4.243  11.812  0.00  0.00    +0.000 A 
ATOM     25  C   UNL     1       7.753   5.159  12.495  0.00  0.00    +0.000 A 
ATOM     26  C   UNL     1       7.671   5.264  13.887  0.00  0.00    +0.000 A 
ENDBRANCH  20  21
ENDBRANCH  18  20
ENDBRANCH  17  18
ENDBRANCH   1  17
TORSDOF 7
ENDMDL
MODEL 2
REMARK VINA RESULT:      -9.0      2.383      5.847
REMARK  Name = 
REMARK  7 active torsions:
REMARK  status: ('A' for Active; 'I' for Inactive)
REMARK    1  A    between atoms: C_2  and  O_3
REMARK    2  A    between atoms: C_2  and  C_21
REMARK    3  A    between atoms: O_3  and  C_4
REMARK    4  A    between atoms: C_4  and  C_5
REMARK    5  A    between atoms: C_5  and  C_13
REMARK    6  A    between atoms: C_6  and  C_7
REMARK    7  A    between atoms: C_13  and  C_15
REMARK                            x       y       z     vdW  Elec       q    Type
REMARK                         _______ _______ _______ _____ _____    ______ ____
ROOT
ATOM      1  C   UNL     1       4.427   5.434  18.281  0.00  0.00    +0.000 C 
ATOM      2  C   UNL     1       5.235   5.802  17.262  0.00  0.00    +0.000 C 
ENDROOT
BRANCH   2   3
ATOM      3  C   UNL     1       6.694   5.602  16.892  0.00  0.00    +0.000 C 
ATOM      4  C   UNL     1       7.303   6.942  16.415  0.00  0.00    +0.000 C 
ATOM      5  C   UNL     1       7.531   7.922  17.566  0.00  0.00    +0.000 C 
ATOM      6  C   UNL     1       8.341   7.303  18.703  0.00  0.00    +0.000 C 
ATOM      7  C   UNL     1       7.848   5.917  19.120  0.00  0.00    +0.000 C 
ATOM      8  C   UNL     1       7.649   4.997  17.919  0.00  0.00    +0.000 C 
ENDBRANCH   2   3
BRANCH   1   9
ATOM      9  C   UNL     1       2.957   5.772  18.129  0.00  0.00    +0.000 C 
ATOM     10  O   UNL     1       2.202   5.018  17.525  0.00  0.00    +0.000 OA
BRANCH   9  11
ATOM     11  C   UNL     1       2.409   7.033  18.750  0.00  0.00    +0.000 A 
ATOM     12  C   UNL     1       2.058   7.112  20.107  0.00  0.00    +0.000 A 
ATOM     13  C   UNL     1       1.408   8.246  20.600  0.00  0.00    +0.000 A 
ATOM     14  C   UNL     1       1.164   9.328  19.760  0.00  0.00    +0.000 A 
ATOM     15  C   UNL     1       1.577   9.285  18.427  0.00  0.00    +0.000 A 
ATOM     16  C   UNL     1       2.193   8.134  17.925  0.00  0.00    +0.000 A 
ENDBRANCH   9  11
ENDBRANCH   1   9
BRANCH   1  17
ATOM     17  C   UNL     1       4.749   4.777  19.600  0.00  0.00    +0.000 C 
BRANCH  17  18
ATOM     18  O   UNL     1       5.192   3.418  19.418  0.00  0.00    +0.000 OA
BRANCH  18  20
ATOM     19  O   UNL     1       5.172   1.581  20.790  0.00  0.00    +0.000 OA
ATOM     20  C   UNL     1       4.599   2.465  20.171  0.00  0.00    +0.000 C 
BRANCH  20  21
ATOM     21  C   UNL     1       3.114   2.578  20.084  0.00  0.00    +0.000 A 
ATOM     22  C   UNL     1       2.467   1.951  19.010  0.00  0.00    +0.000 A 
ATOM     23  C   UNL     1       1.106   2.165  18.781  0.00  0.00    +0.000 A 
ATOM     24  C   UNL     1       0.378   2.990  19.635  0.00  0.00    +0.000 A 
ATOM     25  C   UNL     1       0.995   3.553  20.752  0.00  0.00    +0.000 A 
ATOM     26  C   UNL     1       2.358   3.342  20.985  0.00  0.00    +0.000 A 
ENDBRANCH  20  21
ENDBRANCH  18  20
ENDBRANCH  17  18
ENDBRANCH   1  17
TORSDOF 7
ENDMDL
MODEL 3
REMARK VINA RESULT:      -8.7      2.517      6.812
REMARK  Name = 
REMARK  7 active torsions:
REMARK  status: ('A' for Active; 'I' for Inactive)
REMARK    1  A    between atoms: C_2  and  O_3
REMARK    2  A    between atoms: C_2  and  C_21
REMARK    3  A    between atoms: O_3  and  C_4
REMARK    4  A    between atoms: C_4  and  C_5
REMARK    5  A    between atoms: C_5  and  C_13
REMARK    6  A    between atoms: C_6  and  C_7
REMARK    7  A    between atoms: C_13  and  C_15
REMARK                            x       y       z     vdW  Elec       q    Type
REMARK                         _______ _______ _______ _____ _____    ______ ____
ROOT
ATOM      1  C   UNL     1       3.443   5.629  17.670  0.00  0.00    +0.000 C 
ATOM      2  C   UNL     1       2.818   4.661  18.376  0.00  0.00    +0.000 C 
ENDROOT
BRANCH   2   3
ATOM      3  C   UNL     1       1.476   4.500  19.067  0.00  0.00    +0.000 C 
ATOM      4  C   UNL     1       0.986   3.039  18.932  0.00  0.00    +0.000 C 
ATOM      5  C   UNL     1       1.774   2.076  19.821  0.00  0.00    +0.000 C 
ATOM      6  C   UNL     1       1.809   2.531  21.278  0.00  0.00    +0.000 C 
ATOM      7  C   UNL     1       2.165   4.008  21.449  0.00  0.00    +0.000 C 
ATOM      8  C   UNL     1       1.337   4.903  20.533  0.00  0.00    +0.000 C 
ENDBRANCH   2   3
BRANCH   1   9
ATOM      9  C   UNL     1       4.773   5.254  17.046  0.00  0.00    +0.000 C 
ATOM     10  O   UNL     1       4.820   4.503  16.078  0.00  0.00    +0.000 OA
BRANCH   9  11
ATOM     11  C   UNL     1       6.052   5.831  17.602  0.00  0.00    +0.000 A 
ATOM     12  C   UNL     1       6.723   5.259  18.695  0.00  0.00    +0.000 A 
ATOM     13  C   UNL     1       7.811   5.915  19.273  0.00  0.00    +0.000 A 
ATOM     14  C   UNL     1       8.275   7.108  18.727  0.00  0.00    +0.000 A 
ATOM     15  C   UNL     1       7.658   7.644  17.595  0.00  0.00    +0.000 A 
ATOM     16  C   UNL     1       6.544   7.006  17.040  0.00  0.00    +0.000 A 
ENDBRANCH   9  11
ENDBRANCH   1   9
BRANCH   1  17
ATOM     17  C   UNL     1       3.065   7.069  17.433  0.00  0.00    +0.000 C 
BRANCH  17  18
ATOM     18  O   UNL     1       2.590   7.695  18.642  0.00  0.00    +0.000 OA
BRANCH  18  20
ATOM     19  O   UNL     1       1.868   9.572  17.540  0.00  0.00    +0.000 OA
ATOM     20  C   UNL     1       1.871   8.832  18.512  0.00  0.00    +0.000 C 
BRANCH  20  21
ATOM     21  C   UNL     1       1.123   9.124  19.770  0.00  0.00    +0.000 A 
ATOM     22  C   UNL     1       0.203  10.183  19.759  0.00  0.00    +0.000 A 
ATOM     23  C   UNL     1      -0.397  10.611  20.945  0.00  0.00    +0.000 A 
ATOM     24  C   UNL     1      -0.098   9.971  22.147  0.00  0.00    +0.000 A 
ATOM     25  C   UNL     1       0.754   8.866  22.154  0.00  0.00    +0.000 A 
ATOM     26  C   UNL     1       1.357   8.435  20.969  0.00  0.00    +0.000 A 
ENDBRANCH  20  21
ENDBRANCH  18  20
ENDBRANCH  17  18
ENDBRANCH   1  17
TORSDOF 7
ENDMDL
MODEL 4
REMARK VINA RESULT:      -8.6      0.755      1.268
REMARK  Name = 
REMARK  7 active torsions:
REMARK  status: ('A' for Active; 'I' for Inactive)
REMARK    1  A    between atoms: C_2  and  O_3
REMARK    2  A    between atoms: C_2  and  C_21
REMARK    3  A    between atoms: O_3  and  C_4
REMARK    4  A    between atoms: C_4  and  C_5
REMARK    5  A    between atoms: C_5  and  C_13
REMARK    6  A    between atoms: C_6  and  C_7
REMARK    7  A    between atoms: C_13  and  C_15
REMARK                            x       y       z     vdW  Elec       q    Type
REMARK                         _______ _______ _______ _____ _____    ______ ____
ROOT
ATOM      1  C   UNL     1       4.006   5.224  18.219  0.00  0.00    +0.000 C 
ATOM      2  C   UNL     1       3.003   4.326  18.102  0.00  0.00    +0.000 C 
ENDROOT
BRANCH   2   3
ATOM      3  C   UNL     1       2.764   2.887  18.523  0.00  0.00    +0.000 C 
ATOM      4  C   UNL     1       3.453   2.616  19.882  0.00  0.00    +0.000 C 
ATOM      5  C   UNL     1       2.720   3.279  21.048  0.00  0.00    +0.000 C 
ATOM      6  C   UNL     1       1.237   2.920  21.081  0.00  0.00    +0.000 C 
ATOM      7  C   UNL     1       0.546   3.052  19.724  0.00  0.00    +0.000 C 
ATOM      8  C   UNL     1       1.333   2.363  18.614  0.00  0.00    +0.000 C 
ENDBRANCH   2   3
BRANCH   1   9
ATOM      9  C   UNL     1       3.710   6.630  17.736  0.00  0.00    +0.000 C 
ATOM     10  O   UNL     1       4.184   7.042  16.683  0.00  0.00    +0.000 OA
BRANCH   9  11
ATOM     11  C   UNL     1       2.801   7.525  18.542  0.00  0.00    +0.000 A 
ATOM     12  C   UNL     1       2.387   7.200  19.844  0.00  0.00    +0.000 A 
ATOM     13  C   UNL     1       1.422   7.978  20.488  0.00  0.00    +0.000 A 
ATOM     14  C   UNL     1       0.916   9.115  19.867  0.00  0.00    +0.000 A 
ATOM     15  C   UNL     1       1.379   9.485  18.603  0.00  0.00    +0.000 A 
ATOM     16  C   UNL     1       2.316   8.685  17.942  0.00  0.00    +0.000 A 
ENDBRANCH   9  11
ENDBRANCH   1   9
BRANCH   1  17
ATOM     17  C   UNL     1       5.422   5.054  18.709  0.00  0.00    +0.000 C 
BRANCH  17  18
ATOM     18  O   UNL     1       6.243   4.387  17.730  0.00  0.00    +0.000 OA
BRANCH  18  20
ATOM     19  O   UNL     1       7.768   6.044  17.301  0.00  0.00    +0.000 OA
ATOM     20  C   UNL     1       7.011   5.161  16.931  0.00  0.00    +0.000 C 
BRANCH  20  21
ATOM     21  C   UNL     1       6.750   4.850  15.494  0.00  0.00    +0.000 A 
ATOM     22  C   UNL     1       5.672   4.006  15.189  0.00  0.00    +0.000 A 
ATOM     23  C   UNL     1       5.484   3.543  13.885  0.00  0.00    +0.000 A 
ATOM     24  C   UNL     1       6.358   3.937  12.873  0.00  0.00    +0.000 A 
ATOM     25  C   UNL     1       7.384   4.840  13.153  0.00  0.00    +0.000 A 
ATOM     26  C   UNL     1       7.577   5.304  14.458  0.00  0.00    +0.000 A 
ENDBRANCH  20  21
ENDBRANCH  18  20
ENDBRANCH  17  18
ENDBRANCH   1  17
TORSDOF 7
ENDMDL
MODEL 5
REMARK VINA RESULT:      -8.6      2.583      6.717
REMARK  Name = 
REMARK  7 active torsions:
REMARK  status: ('A' for Active; 'I' for Inactive)
REMARK    1  A    between atoms: C_2  and  O_3
REMARK    2  A    between atoms: C_2  and  C_21
REMARK    3  A    between atoms: O_3  and  C_4
REMARK    4  A    between atoms: C_4  and  C_5
REMARK    5  A    between atoms: C_5  and  C_13
REMARK    6  A    between atoms: C_6  and  C_7
REMARK    7  A    between atoms: C_13  and  C_15
REMARK                            x       y       z     vdW  Elec       q    Type
REMARK                         _______ _______ _______ _____ _____    ______ ____
ROOT
ATOM      1  C   UNL     1       3.292   5.627  17.692  0.00  0.00    +0.000 C 
ATOM      2  C   UNL     1       2.729   4.641  18.427  0.00  0.00    +0.000 C 
ENDROOT
BRANCH   2   3
ATOM      3  C   UNL     1       1.390   4.405  19.103  0.00  0.00    +0.000 C 
ATOM      4  C   UNL     1       0.969   2.926  18.934  0.00  0.00    +0.000 C 
ATOM      5  C   UNL     1       1.794   1.982  19.810  0.00  0.00    +0.000 C 
ATOM      6  C   UNL     1       1.797   2.407  21.277  0.00  0.00    +0.000 C 
ATOM      7  C   UNL     1       2.084   3.896  21.480  0.00  0.00    +0.000 C 
ATOM      8  C   UNL     1       1.222   4.771  20.576  0.00  0.00    +0.000 C 
ENDBRANCH   2   3
BRANCH   1   9
ATOM      9  C   UNL     1       4.658   5.331  17.105  0.00  0.00    +0.000 C 
ATOM     10  O   UNL     1       4.774   4.588  16.137  0.00  0.00    +0.000 OA
BRANCH   9  11
ATOM     11  C   UNL     1       5.885   5.978  17.698  0.00  0.00    +0.000 A 
ATOM     12  C   UNL     1       6.452   7.146  17.165  0.00  0.00    +0.000 A 
ATOM     13  C   UNL     1       7.675   7.617  17.648  0.00  0.00    +0.000 A 
ATOM     14  C   UNL     1       8.305   6.965  18.703  0.00  0.00    +0.000 A 
ATOM     15  C   UNL     1       7.709   5.844  19.287  0.00  0.00    +0.000 A 
ATOM     16  C   UNL     1       6.504   5.351  18.777  0.00  0.00    +0.000 A 
ENDBRANCH   9  11
ENDBRANCH   1   9
BRANCH   1  17
ATOM     17  C   UNL     1       2.809   7.023  17.392  0.00  0.00    +0.000 C 
BRANCH  17  18
ATOM     18  O   UNL     1       2.516   7.751  18.602  0.00  0.00    +0.000 OA
BRANCH  18  20
ATOM     19  O   UNL     1       1.880   9.657  17.497  0.00  0.00    +0.000 OA
ATOM     20  C   UNL     1       1.863   8.928  18.476  0.00  0.00    +0.000 C 
BRANCH  20  21
ATOM     21  C   UNL     1       1.165   9.277  19.749  0.00  0.00    +0.000 A 
ATOM     22  C   UNL     1       1.285   8.390  20.830  0.00  0.00    +0.000 A 
ATOM     23  C   UNL     1       0.520   8.575  21.983  0.00  0.00    +0.000 A 
ATOM     24  C   UNL     1      -0.355   9.656  22.074  0.00  0.00    +0.000 A 
ATOM     25  C   UNL     1      -0.420  10.587  21.036  0.00  0.00    +0.000 A 
ATOM     26  C   UNL     1       0.344  10.405  19.879  0.00  0.00    +0.000 A 
ENDBRANCH  20  21
ENDBRANCH  18  20
ENDBRANCH  17  18
ENDBRANCH   1  17
TORSDOF 7
ENDMDL
MODEL 6
REMARK VINA RESULT:      -8.5      2.212      3.242
REMARK  Name = 
REMARK  7 active torsions:
REMARK  status: ('A' for Active; 'I' for Inactive)
REMARK    1  A    between atoms: C_2  and  O_3
REMARK    2  A    between atoms: C_2  and  C_21
REMARK    3  A    between atoms: O_3  and  C_4
REMARK    4  A    between atoms: C_4  and  C_5
REMARK    5  A    between atoms: C_5  and  C_13
REMARK    6  A    between atoms: C_6  and  C_7
REMARK    7  A    between atoms: C_13  and  C_15
REMARK                            x       y       z     vdW  Elec       q    Type
REMARK                         _______ _______ _______ _____ _____    ______ ____
ROOT
ATOM      1  C   UNL     1       4.150   4.614  17.059  0.00  0.00    +0.000 C 
ATOM      2  C   UNL     1       3.172   4.133  17.858  0.00  0.00    +0.000 C 
ENDROOT
BRANCH   2   3
ATOM      3  C   UNL     1       2.527   2.782  18.110  0.00  0.00    +0.000 C 
ATOM      4  C   UNL     1       3.366   1.982  19.135  0.00  0.00    +0.000 C 
ATOM      5  C   UNL     1       3.225   2.529  20.556  0.00  0.00    +0.000 C 
ATOM      6  C   UNL     1       1.765   2.650  20.989  0.00  0.00    +0.000 C 
ATOM      7  C   UNL     1       0.874   3.323  19.944  0.00  0.00    +0.000 C 
ATOM      8  C   UNL     1       1.068   2.722  18.557  0.00  0.00    +0.000 C 
ENDBRANCH   2   3
BRANCH   1   9
ATOM      9  C   UNL     1       4.542   6.063  17.272  0.00  0.00    +0.000 C 
ATOM     10  O   UNL     1       3.725   6.962  17.104  0.00  0.00    +0.000 OA
BRANCH   9  11
ATOM     11  C   UNL     1       5.940   6.404  17.724  0.00  0.00    +0.000 A 
ATOM     12  C   UNL     1       6.633   5.636  18.673  0.00  0.00    +0.000 A 
ATOM     13  C   UNL     1       7.859   6.079  19.176  0.00  0.00    +0.000 A 
ATOM     14  C   UNL     1       8.428   7.251  18.690  0.00  0.00    +0.000 A 
ATOM     15  C   UNL     1       7.779   7.981  17.692  0.00  0.00    +0.000 A 
ATOM     16  C   UNL     1       6.533   7.558  17.217  0.00  0.00    +0.000 A 
ENDBRANCH   9  11
ENDBRANCH   1   9
BRANCH   1  17
ATOM     17  C   UNL     1       4.901   3.960  15.927  0.00  0.00    +0.000 C 
BRANCH  17  18
ATOM     18  O   UNL     1       5.235   4.911  14.895  0.00  0.00    +0.000 OA
BRANCH  18  20
ATOM     19  O   UNL     1       7.472   5.264  14.542  0.00  0.00    +0.000 OA
ATOM     20  C   UNL     1       6.409   4.740  14.248  0.00  0.00    +0.000 C 
BRANCH  20  21
ATOM     21  C   UNL     1       6.222   3.873  13.047  0.00  0.00    +0.000 A 
ATOM     22  C   UNL     1       4.917   3.678  12.573  0.00  0.00    +0.000 A 
ATOM     23  C   UNL     1       4.664   2.745  11.564  0.00  0.00    +0.000 A 
ATOM     24  C   UNL     1       5.715   2.017  11.009  0.00  0.00    +0.000 A 
ATOM     25  C   UNL     1       7.025   2.264  11.419  0.00  0.00    +0.000 A 
ATOM     26  C   UNL     1       7.283   3.196  12.429  0.00  0.00    +0.000 A 
ENDBRANCH  20  21
ENDBRANCH  18  20
ENDBRANCH  17  18
ENDBRANCH   1  17
TORSDOF 7
ENDMDL
MODEL 7
REMARK VINA RESULT:      -8.5      0.952      1.448
REMARK  Name = 
REMARK  7 active torsions:
REMARK  status: ('A' for Active; 'I' for Inactive)
REMARK    1  A    between atoms: C_2  and  O_3
REMARK    2  A    between atoms: C_2  and  C_21
REMARK    3  A    between atoms: O_3  and  C_4
REMARK    4  A    between atoms: C_4  and  C_5
REMARK    5  A    between atoms: C_5  and  C_13
REMARK    6  A    between atoms: C_6  and  C_7
REMARK    7  A    between atoms: C_13  and  C_15
REMARK                            x       y       z     vdW  Elec       q    Type
REMARK                         _______ _______ _______ _____ _____    ______ ____
ROOT
ATOM      1  C   UNL     1       3.479   6.186  17.926  0.00  0.00    +0.000 C 
ATOM      2  C   UNL     1       2.621   5.168  18.158  0.00  0.00    +0.000 C 
ENDROOT
BRANCH   2   3
ATOM      3  C   UNL     1       2.733   3.679  18.427  0.00  0.00    +0.000 C 
ATOM      4  C   UNL     1       3.463   3.440  19.770  0.00  0.00    +0.000 C 
ATOM      5  C   UNL     1       2.591   3.786  20.977  0.00  0.00    +0.000 C 
ATOM      6  C   UNL     1       1.237   3.082  20.934  0.00  0.00    +0.000 C 
ATOM      7  C   UNL     1       0.537   3.185  19.579  0.00  0.00    +0.000 C 
ATOM      8  C   UNL     1       1.468   2.822  18.427  0.00  0.00    +0.000 C 
ENDBRANCH   2   3
BRANCH   1   9
ATOM      9  C   UNL     1       2.873   7.573  17.846  0.00  0.00    +0.000 C 
ATOM     10  O   UNL     1       3.002   8.255  16.836  0.00  0.00    +0.000 OA
BRANCH   9  11
ATOM     11  C   UNL     1       2.078   8.112  19.010  0.00  0.00    +0.000 A 
ATOM     12  C   UNL     1       1.995   7.441  20.240  0.00  0.00    +0.000 A 
ATOM     13  C   UNL     1       1.122   7.895  21.231  0.00  0.00    +0.000 A 
ATOM     14  C   UNL     1       0.379   9.053  21.026  0.00  0.00    +0.000 A 
ATOM     15  C   UNL     1       0.512   9.767  19.833  0.00  0.00    +0.000 A 
ATOM     16  C   UNL     1       1.357   9.290  18.826  0.00  0.00    +0.000 A 
ENDBRANCH   9  11
ENDBRANCH   1   9
BRANCH   1  17
ATOM     17  C   UNL     1       4.965   6.176  17.671  0.00  0.00    +0.000 C 
BRANCH  17  18
ATOM     18  O   UNL     1       5.316   5.243  16.629  0.00  0.00    +0.000 OA
BRANCH  18  20
ATOM     19  O   UNL     1       7.556   5.724  16.707  0.00  0.00    +0.000 OA
ATOM     20  C   UNL     1       6.565   5.321  16.118  0.00  0.00    +0.000 C 
BRANCH  20  21
ATOM     21  C   UNL     1       6.567   4.922  14.680  0.00  0.00    +0.000 A 
ATOM     22  C   UNL     1       5.561   4.050  14.237  0.00  0.00    +0.000 A 
ATOM     23  C   UNL     1       5.612   3.508  12.952  0.00  0.00    +0.000 A 
ATOM     24  C   UNL     1       6.655   3.848  12.093  0.00  0.00    +0.000 A 
ATOM     25  C   UNL     1       7.615   4.776  12.497  0.00  0.00    +0.000 A 
ATOM     26  C   UNL     1       7.569   5.321  13.784  0.00  0.00    +0.000 A 
ENDBRANCH  20  21
ENDBRANCH  18  20
ENDBRANCH  17  18
ENDBRANCH   1  17
TORSDOF 7
ENDMDL
MODEL 8
REMARK VINA RESULT:      -8.4      2.284      6.175
REMARK  Name = 
REMARK  7 active torsions:
REMARK  status: ('A' for Active; 'I' for Inactive)
REMARK    1  A    between atoms: C_2  and  O_3
REMARK    2  A    between atoms: C_2  and  C_21
REMARK    3  A    between atoms: O_3  and  C_4
REMARK    4  A    between atoms: C_4  and  C_5
REMARK    5  A    between atoms: C_5  and  C_13
REMARK    6  A    between atoms: C_6  and  C_7
REMARK    7  A    between atoms: C_13  and  C_15
REMARK                            x       y       z     vdW  Elec       q    Type
REMARK                         _______ _______ _______ _____ _____    ______ ____
ROOT
ATOM      1  C   UNL     1       3.821   4.184  17.730  0.00  0.00    +0.000 C 
ATOM      2  C   UNL     1       3.913   3.015  18.401  0.00  0.00    +0.000 C 
ENDROOT
BRANCH   2   3
ATOM      3  C   UNL     1       3.000   2.182  19.282  0.00  0.00    +0.000 C 
ATOM      4  C   UNL     1       3.131   2.638  20.755  0.00  0.00    +0.000 C 
ATOM      5  C   UNL     1       2.460   3.988  21.008  0.00  0.00    +0.000 C 
ATOM      6  C   UNL     1       1.009   4.013  20.534  0.00  0.00    +0.000 C 
ATOM      7  C   UNL     1       0.818   3.448  19.126  0.00  0.00    +0.000 C 
ATOM      8  C   UNL     1       1.511   2.101  18.952  0.00  0.00    +0.000 C 
ENDBRANCH   2   3
BRANCH   1   9
ATOM      9  C   UNL     1       4.998   4.547  16.846  0.00  0.00    +0.000 C 
ATOM     10  O   UNL     1       5.031   4.195  15.672  0.00  0.00    +0.000 OA
BRANCH   9  11
ATOM     11  C   UNL     1       6.130   5.373  17.406  0.00  0.00    +0.000 A 
ATOM     12  C   UNL     1       6.906   4.946  18.495  0.00  0.00    +0.000 A 
ATOM     13  C   UNL     1       7.836   5.811  19.078  0.00  0.00    +0.000 A 
ATOM     14  C   UNL     1       8.042   7.076  18.538  0.00  0.00    +0.000 A 
ATOM     15  C   UNL     1       7.326   7.480  17.409  0.00  0.00    +0.000 A 
ATOM     16  C   UNL     1       6.368   6.628  16.850  0.00  0.00    +0.000 A 
ENDBRANCH   9  11
ENDBRANCH   1   9
BRANCH   1  17
ATOM     17  C   UNL     1       2.748   5.244  17.749  0.00  0.00    +0.000 C 
BRANCH  17  18
ATOM     18  O   UNL     1       3.126   6.362  18.578  0.00  0.00    +0.000 OA
BRANCH  18  20
ATOM     19  O   UNL     1       3.135   8.150  17.143  0.00  0.00    +0.000 OA
ATOM     20  C   UNL     1       2.759   7.595  18.163  0.00  0.00    +0.000 C 
BRANCH  20  21
ATOM     21  C   UNL     1       1.877   8.245  19.176  0.00  0.00    +0.000 A 
ATOM     22  C   UNL     1       1.236   9.441  18.820  0.00  0.00    +0.000 A 
ATOM     23  C   UNL     1       0.539  10.182  19.777  0.00  0.00    +0.000 A 
ATOM     24  C   UNL     1       0.460   9.723  21.091  0.00  0.00    +0.000 A 
ATOM     25  C   UNL     1       1.026   8.495  21.434  0.00  0.00    +0.000 A 
ATOM     26  C   UNL     1       1.725   7.751  20.479  0.00  0.00    +0.000 A 
ENDBRANCH  20  21
ENDBRANCH  18  20
ENDBRANCH  17  18
ENDBRANCH   1  17
TORSDOF 7
ENDMDL
MODEL 9
REMARK VINA RESULT:      -8.4      1.047      1.938
REMARK  Name = 
REMARK  7 active torsions:
REMARK  status: ('A' for Active; 'I' for Inactive)
REMARK    1  A    between atoms: C_2  and  O_3
REMARK    2  A    between atoms: C_2  and  C_21
REMARK    3  A    between atoms: O_3  and  C_4
REMARK    4  A    between atoms: C_4  and  C_5
REMARK    5  A    between atoms: C_5  and  C_13
REMARK    6  A    between atoms: C_6  and  C_7
REMARK    7  A    between atoms: C_13  and  C_15
REMARK                            x       y       z     vdW  Elec       q    Type
REMARK                         _______ _______ _______ _____ _____    ______ ____
ROOT
ATOM      1  C   UNL     1       3.220   6.625  17.821  0.00  0.00    +0.000 C 
ATOM      2  C   UNL     1       2.418   5.579  18.124  0.00  0.00    +0.000 C 
ENDROOT
BRANCH   2   3
ATOM      3  C   UNL     1       2.586   4.079  18.286  0.00  0.00    +0.000 C 
ATOM      4  C   UNL     1       3.480   3.780  19.513  0.00  0.00    +0.000 C 
ATOM      5  C   UNL     1       2.757   4.034  20.836  0.00  0.00    +0.000 C 
ATOM      6  C   UNL     1       1.419   3.302  20.916  0.00  0.00    +0.000 C 
ATOM      7  C   UNL     1       0.557   3.468  19.664  0.00  0.00    +0.000 C 
ATOM      8  C   UNL     1       1.345   3.194  18.388  0.00  0.00    +0.000 C 
ENDBRANCH   2   3
BRANCH   1   9
ATOM      9  C   UNL     1       2.593   8.002  17.916  0.00  0.00    +0.000 C 
ATOM     10  O   UNL     1       2.690   8.798  16.988  0.00  0.00    +0.000 OA
BRANCH   9  11
ATOM     11  C   UNL     1       1.819   8.391  19.151  0.00  0.00    +0.000 A 
ATOM     12  C   UNL     1       1.892   7.658  20.346  0.00  0.00    +0.000 A 
ATOM     13  C   UNL     1       1.038   7.962  21.410  0.00  0.00    +0.000 A 
ATOM     14  C   UNL     1       0.158   9.035  21.310  0.00  0.00    +0.000 A 
ATOM     15  C   UNL     1       0.133   9.814  20.152  0.00  0.00    +0.000 A 
ATOM     16  C   UNL     1       0.960   9.484  19.073  0.00  0.00    +0.000 A 
ENDBRANCH   9  11
ENDBRANCH   1   9
BRANCH   1  17
ATOM     17  C   UNL     1       4.649   6.657  17.341  0.00  0.00    +0.000 C 
BRANCH  17  18
ATOM     18  O   UNL     1       4.828   5.846  16.162  0.00  0.00    +0.000 OA
BRANCH  18  20
ATOM     19  O   UNL     1       6.258   4.396  17.215  0.00  0.00    +0.000 OA
ATOM     20  C   UNL     1       5.781   4.889  16.205  0.00  0.00    +0.000 C 
BRANCH  20  21
ATOM     21  C   UNL     1       6.252   4.559  14.827  0.00  0.00    +0.000 A 
ATOM     22  C   UNL     1       7.393   5.217  14.345  0.00  0.00    +0.000 A 
ATOM     23  C   UNL     1       7.778   5.078  13.010  0.00  0.00    +0.000 A 
ATOM     24  C   UNL     1       7.039   4.265  12.153  0.00  0.00    +0.000 A 
ATOM     25  C   UNL     1       5.951   3.544  12.645  0.00  0.00    +0.000 A 
ATOM     26  C   UNL     1       5.561   3.681  13.981  0.00  0.00    +0.000 A 
ENDBRANCH  20  21
ENDBRANCH  18  20
ENDBRANCH  17  18
ENDBRANCH   1  17
TORSDOF 7
ENDMDL
