MODEL 1
REMARK VINA RESULT:      -8.5      0.000      0.000
REMARK  Name = 
REMARK  12 active torsions:
REMARK  status: ('A' for Active; 'I' for Inactive)
REMARK    1  A    between atoms: C_1  and  C_2
REMARK    2  A    between atoms: C_2  and  C_3
REMARK    3  A    between atoms: C_3  and  N_4
REMARK    4  A    between atoms: C_7  and  N_8
REMARK    5  A    between atoms: C_10  and  N_11
REMARK    6  A    between atoms: N_11  and  C_12
REMARK    7  A    between atoms: C_12  and  C_13
REMARK    8  A    between atoms: N_25  and  C_26
REMARK    9  A    between atoms: C_26  and  C_27
REMARK   10  A    between atoms: C_29  and  C_30
REMARK   11  A    between atoms: N_32  and  C_33
REMARK   12  A    between atoms: C_33  and  C_34
REMARK                            x       y       z     vdW  Elec       q    Type
REMARK                         _______ _______ _______ _____ _____    ______ ____
ROOT
ATOM      1  N   UNL     1      -1.704  11.851  20.386  0.00  0.00    +0.000 NA
ATOM      2  C   UNL     1      -0.773  10.687  20.480  0.00  0.00    +0.000 C 
ATOM      3  C   UNL     1       0.406  11.031  19.560  0.00  0.00    +0.000 C 
ATOM      4  C   UNL     1      -0.318  11.601  18.351  0.00  0.00    +0.000 C 
ATOM      5  C   UNL     1      -1.592  12.243  18.926  0.00  0.00    +0.000 C 
ENDROOT
BRANCH   1   9
ATOM      6  N   UNL     1      -3.533  13.368  23.390  0.00  0.00    +0.000 NA
ATOM      7  C   UNL     1      -2.617  12.215  23.431  0.00  0.00    +0.000 C 
ATOM      8  C   UNL     1      -1.251  12.494  22.801  0.00  0.00    +0.000 C 
ATOM      9  C   UNL     1      -1.334  12.955  21.328  0.00  0.00    +0.000 C 
ATOM     10  C   UNL     1      -2.284  14.173  21.346  0.00  0.00    +0.000 C 
ATOM     11  C   UNL     1      -3.633  13.903  22.016  0.00  0.00    +0.000 C 
BRANCH   6  12
ATOM     12  C   UNL     1      -4.894  12.982  23.834  0.00  0.00    +0.000 C 
BRANCH  12  14
ATOM     13  C   UNL     1      -7.340  13.546  24.073  0.00  0.00    +0.000 C 
ATOM     14  C   UNL     1      -5.981  14.037  23.590  0.00  0.00    +0.000 C 
ENDBRANCH  12  14
ENDBRANCH   6  12
ENDBRANCH   1   9
BRANCH   5  15
ATOM     15  C   UNL     1      -2.809  11.726  18.124  0.00  0.00    +0.000 C 
ATOM     16  O   UNL     1      -3.904  11.523  18.632  0.00  0.00    +0.000 OA
ATOM     17  N   UNL     1      -2.535  11.522  16.786  0.00  0.00    +0.000 N 
ATOM     18  H   UNL     1      -1.559  11.663  16.524  0.00  0.00    +0.000 HD
BRANCH  17  19
ATOM     19  C   UNL     1      -3.489  11.003  15.842  0.00  0.00    +0.000 C 
ATOM     20  C   UNL     1      -2.815  10.129  14.802  0.00  0.00    +0.000 C 
ENDBRANCH  17  19
ENDBRANCH   5  15
BRANCH   3  21
ATOM     21  N   UNL     1       1.303   9.910  19.275  0.00  0.00    +0.000 NA
ATOM     22  H   UNL     1       2.271  10.225  19.210  0.00  0.00    +0.000 HD
BRANCH  21  23
ATOM     23  C   UNL     1       1.221   8.880  20.315  0.00  0.00    +0.000 C 
BRANCH  23  24
ATOM     24  C   UNL     1       1.815   7.566  19.869  0.00  0.00    +0.000 A 
ATOM     25  C   UNL     1       1.634   6.408  20.632  0.00  0.00    +0.000 A 
ATOM     26  C   UNL     1       2.272   5.206  20.304  0.00  0.00    +0.000 A 
ATOM     27  C   UNL     1       3.118   5.187  19.183  0.00  0.00    +0.000 A 
ATOM     28  C   UNL     1       3.283   6.309  18.371  0.00  0.00    +0.000 A 
ATOM     29  C   UNL     1       2.621   7.509  18.719  0.00  0.00    +0.000 A 
ATOM     30  C   UNL     1       4.171   5.952  17.310  0.00  0.00    +0.000 A 
ATOM     31  C   UNL     1       4.688   6.652  16.198  0.00  0.00    +0.000 A 
ATOM     32  C   UNL     1       5.587   6.018  15.336  0.00  0.00    +0.000 A 
ATOM     33  C   UNL     1       5.979   4.704  15.570  0.00  0.00    +0.000 A 
ATOM     34  C   UNL     1       5.479   3.988  16.663  0.00  0.00    +0.000 A 
ATOM     35  C   UNL     1       4.572   4.633  17.521  0.00  0.00    +0.000 A 
ATOM     36  N   UNL     1       3.937   4.197  18.672  0.00  0.00    +0.000 N 
BRANCH  36  37
ATOM     37  C   UNL     1       4.206   2.924  19.323  0.00  0.00    +0.000 C 
ATOM     38  C   UNL     1       3.303   1.800  18.848  0.00  0.00    +0.000 C 
ENDBRANCH  36  37
ENDBRANCH  23  24
ENDBRANCH  21  23
ENDBRANCH   3  21
TORSDOF 9
ENDMDL
MODEL 2
REMARK VINA RESULT:      -8.3      1.196      2.722
REMARK  Name = 
REMARK  12 active torsions:
REMARK  status: ('A' for Active; 'I' for Inactive)
REMARK    1  A    between atoms: C_1  and  C_2
REMARK    2  A    between atoms: C_2  and  C_3
REMARK    3  A    between atoms: C_3  and  N_4
REMARK    4  A    between atoms: C_7  and  N_8
REMARK    5  A    between atoms: C_10  and  N_11
REMARK    6  A    between atoms: N_11  and  C_12
REMARK    7  A    between atoms: C_12  and  C_13
REMARK    8  A    between atoms: N_25  and  C_26
REMARK    9  A    between atoms: C_26  and  C_27
REMARK   10  A    between atoms: C_29  and  C_30
REMARK   11  A    between atoms: N_32  and  C_33
REMARK   12  A    between atoms: C_33  and  C_34
REMARK                            x       y       z     vdW  Elec       q    Type
REMARK                         _______ _______ _______ _____ _____    ______ ____
ROOT
ATOM      1  N   UNL     1      -1.130  11.487  20.619  0.00  0.00    +0.000 NA
ATOM      2  C   UNL     1      -0.092  10.567  20.062  0.00  0.00    +0.000 C 
ATOM      3  C   UNL     1       0.815  11.451  19.196  0.00  0.00    +0.000 C 
ATOM      4  C   UNL     1      -0.210  12.310  18.473  0.00  0.00    +0.000 C 
ATOM      5  C   UNL     1      -1.381  12.434  19.462  0.00  0.00    +0.000 C 
ENDROOT
BRANCH   1   9
ATOM      6  N   UNL     1      -2.981  13.673  23.161  0.00  0.00    +0.000 NA
ATOM      7  C   UNL     1      -2.860  12.206  23.213  0.00  0.00    +0.000 C 
ATOM      8  C   UNL     1      -1.415  11.706  23.133  0.00  0.00    +0.000 C 
ATOM      9  C   UNL     1      -0.669  12.179  21.864  0.00  0.00    +0.000 C 
ATOM     10  C   UNL     1      -0.808  13.718  21.872  0.00  0.00    +0.000 C 
ATOM     11  C   UNL     1      -2.250  14.214  21.996  0.00  0.00    +0.000 C 
BRANCH   6  12
ATOM     12  C   UNL     1      -4.400  14.085  23.046  0.00  0.00    +0.000 C 
BRANCH  12  14
ATOM     13  C   UNL     1      -6.416  12.785  22.266  0.00  0.00    +0.000 C 
ATOM     14  C   UNL     1      -5.424  12.999  23.403  0.00  0.00    +0.000 C 
ENDBRANCH  12  14
ENDBRANCH   6  12
ENDBRANCH   1   9
BRANCH   5  15
ATOM     15  C   UNL     1      -2.689  12.064  18.725  0.00  0.00    +0.000 C 
ATOM     16  O   UNL     1      -3.780  12.027  19.280  0.00  0.00    +0.000 OA
ATOM     17  N   UNL     1      -2.501  11.788  17.385  0.00  0.00    +0.000 N 
ATOM     18  H   UNL     1      -1.528  11.786  17.082  0.00  0.00    +0.000 HD
BRANCH  17  19
ATOM     19  C   UNL     1      -3.556  11.376  16.496  0.00  0.00    +0.000 C 
ATOM     20  C   UNL     1      -3.005  10.630  15.296  0.00  0.00    +0.000 C 
ENDBRANCH  17  19
ENDBRANCH   5  15
BRANCH   3  21
ATOM     21  N   UNL     1       1.732  10.712  18.325  0.00  0.00    +0.000 NA
ATOM     22  H   UNL     1       2.620  10.540  18.795  0.00  0.00    +0.000 HD
BRANCH  21  23
ATOM     23  C   UNL     1       1.165   9.424  17.919  0.00  0.00    +0.000 C 
BRANCH  23  24
ATOM     24  C   UNL     1       2.132   8.283  18.118  0.00  0.00    +0.000 A 
ATOM     25  C   UNL     1       3.287   8.184  17.335  0.00  0.00    +0.000 A 
ATOM     26  C   UNL     1       4.137   7.075  17.418  0.00  0.00    +0.000 A 
ATOM     27  C   UNL     1       3.799   6.044  18.310  0.00  0.00    +0.000 A 
ATOM     28  C   UNL     1       2.683   6.131  19.142  0.00  0.00    +0.000 A 
ATOM     29  C   UNL     1       1.845   7.266  19.045  0.00  0.00    +0.000 A 
ATOM     30  C   UNL     1       2.641   4.948  19.941  0.00  0.00    +0.000 A 
ATOM     31  C   UNL     1       1.770   4.488  20.953  0.00  0.00    +0.000 A 
ATOM     32  C   UNL     1       1.984   3.235  21.536  0.00  0.00    +0.000 A 
ATOM     33  C   UNL     1       3.045   2.438  21.121  0.00  0.00    +0.000 A 
ATOM     34  C   UNL     1       3.924   2.872  20.124  0.00  0.00    +0.000 A 
ATOM     35  C   UNL     1       3.704   4.135  19.547  0.00  0.00    +0.000 A 
ATOM     36  N   UNL     1       4.379   4.811  18.544  0.00  0.00    +0.000 N 
BRANCH  36  37
ATOM     37  C   UNL     1       5.461   4.239  17.756  0.00  0.00    +0.000 C 
ATOM     38  C   UNL     1       6.827   4.796  18.114  0.00  0.00    +0.000 C 
ENDBRANCH  36  37
ENDBRANCH  23  24
ENDBRANCH  21  23
ENDBRANCH   3  21
TORSDOF 9
ENDMDL
MODEL 3
REMARK VINA RESULT:      -8.3      1.187      1.329
REMARK  Name = 
REMARK  12 active torsions:
REMARK  status: ('A' for Active; 'I' for Inactive)
REMARK    1  A    between atoms: C_1  and  C_2
REMARK    2  A    between atoms: C_2  and  C_3
REMARK    3  A    between atoms: C_3  and  N_4
REMARK    4  A    between atoms: C_7  and  N_8
REMARK    5  A    between atoms: C_10  and  N_11
REMARK    6  A    between atoms: N_11  and  C_12
REMARK    7  A    between atoms: C_12  and  C_13
REMARK    8  A    between atoms: N_25  and  C_26
REMARK    9  A    between atoms: C_26  and  C_27
REMARK   10  A    between atoms: C_29  and  C_30
REMARK   11  A    between atoms: N_32  and  C_33
REMARK   12  A    between atoms: C_33  and  C_34
REMARK                            x       y       z     vdW  Elec       q    Type
REMARK                         _______ _______ _______ _____ _____    ______ ____
ROOT
ATOM      1  N   UNL     1      -1.692  11.773  20.264  0.00  0.00    +0.000 NA
ATOM      2  C   UNL     1      -0.741  10.661  20.566  0.00  0.00    +0.000 C 
ATOM      3  C   UNL     1       0.570  11.042  19.867  0.00  0.00    +0.000 C 
ATOM      4  C   UNL     1       0.057  11.545  18.527  0.00  0.00    +0.000 C 
ATOM      5  C   UNL     1      -1.329  12.134  18.837  0.00  0.00    +0.000 C 
ENDROOT
BRANCH   1   9
ATOM      6  N   UNL     1      -4.269  13.677  22.361  0.00  0.00    +0.000 NA
ATOM      7  C   UNL     1      -3.549  12.461  22.777  0.00  0.00    +0.000 C 
ATOM      8  C   UNL     1      -2.028  12.575  22.650  0.00  0.00    +0.000 C 
ATOM      9  C   UNL     1      -1.553  12.917  21.220  0.00  0.00    +0.000 C 
ATOM     10  C   UNL     1      -2.318  14.206  20.845  0.00  0.00    +0.000 C 
ATOM     11  C   UNL     1      -3.835  14.103  21.014  0.00  0.00    +0.000 C 
BRANCH   6  12
ATOM     12  C   UNL     1      -5.732  13.442  22.321  0.00  0.00    +0.000 C 
BRANCH  12  14
ATOM     13  C   UNL     1      -7.629  11.978  21.532  0.00  0.00    +0.000 C 
ATOM     14  C   UNL     1      -6.199  12.432  21.263  0.00  0.00    +0.000 C 
ENDBRANCH  12  14
ENDBRANCH   6  12
ENDBRANCH   1   9
BRANCH   5  15
ATOM     15  C   UNL     1      -2.352  11.535  17.843  0.00  0.00    +0.000 C 
ATOM     16  O   UNL     1      -2.045  10.723  16.980  0.00  0.00    +0.000 OA
ATOM     17  N   UNL     1      -3.637  12.005  18.032  0.00  0.00    +0.000 N 
ATOM     18  H   UNL     1      -3.725  12.734  18.740  0.00  0.00    +0.000 HD
BRANCH  17  19
ATOM     19  C   UNL     1      -4.755  11.633  17.206  0.00  0.00    +0.000 C 
ATOM     20  C   UNL     1      -5.945  12.542  17.450  0.00  0.00    +0.000 C 
ENDBRANCH  17  19
ENDBRANCH   5  15
BRANCH   3  21
ATOM     21  N   UNL     1       1.555   9.961  19.790  0.00  0.00    +0.000 NA
ATOM     22  H   UNL     1       2.473  10.283  20.096  0.00  0.00    +0.000 HD
BRANCH  21  23
ATOM     23  C   UNL     1       1.165   8.819  20.621  0.00  0.00    +0.000 C 
BRANCH  23  24
ATOM     24  C   UNL     1       1.717   7.516  20.100  0.00  0.00    +0.000 A 
ATOM     25  C   UNL     1       1.496   6.321  20.794  0.00  0.00    +0.000 A 
ATOM     26  C   UNL     1       2.096   5.120  20.397  0.00  0.00    +0.000 A 
ATOM     27  C   UNL     1       2.945   5.139  19.278  0.00  0.00    +0.000 A 
ATOM     28  C   UNL     1       3.148   6.301  18.533  0.00  0.00    +0.000 A 
ATOM     29  C   UNL     1       2.524   7.499  18.949  0.00  0.00    +0.000 A 
ATOM     30  C   UNL     1       4.027   5.978  17.454  0.00  0.00    +0.000 A 
ATOM     31  C   UNL     1       4.570   6.724  16.385  0.00  0.00    +0.000 A 
ATOM     32  C   UNL     1       5.451   6.112  15.489  0.00  0.00    +0.000 A 
ATOM     33  C   UNL     1       5.800   4.775  15.647  0.00  0.00    +0.000 A 
ATOM     34  C   UNL     1       5.274   4.013  16.695  0.00  0.00    +0.000 A 
ATOM     35  C   UNL     1       4.385   4.636  17.588  0.00  0.00    +0.000 A 
ATOM     36  N   UNL     1       3.733   4.155  18.711  0.00  0.00    +0.000 N 
BRANCH  36  37
ATOM     37  C   UNL     1       3.958   2.838  19.287  0.00  0.00    +0.000 C 
ATOM     38  C   UNL     1       3.026   1.772  18.741  0.00  0.00    +0.000 C 
ENDBRANCH  36  37
ENDBRANCH  23  24
ENDBRANCH  21  23
ENDBRANCH   3  21
TORSDOF 9
ENDMDL
MODEL 4
REMARK VINA RESULT:      -8.2      1.217      2.620
REMARK  Name = 
REMARK  12 active torsions:
REMARK  status: ('A' for Active; 'I' for Inactive)
REMARK    1  A    between atoms: C_1  and  C_2
REMARK    2  A    between atoms: C_2  and  C_3
REMARK    3  A    between atoms: C_3  and  N_4
REMARK    4  A    between atoms: C_7  and  N_8
REMARK    5  A    between atoms: C_10  and  N_11
REMARK    6  A    between atoms: N_11  and  C_12
REMARK    7  A    between atoms: C_12  and  C_13
REMARK    8  A    between atoms: N_25  and  C_26
REMARK    9  A    between atoms: C_26  and  C_27
REMARK   10  A    between atoms: C_29  and  C_30
REMARK   11  A    between atoms: N_32  and  C_33
REMARK   12  A    between atoms: C_33  and  C_34
REMARK                            x       y       z     vdW  Elec       q    Type
REMARK                         _______ _______ _______ _____ _____    ______ ____
ROOT
ATOM      1  N   UNL     1      -1.436  11.776  20.340  0.00  0.00    +0.000 NA
ATOM      2  C   UNL     1      -0.711  10.483  20.525  0.00  0.00    +0.000 C 
ATOM      3  C   UNL     1       0.546  10.589  19.652  0.00  0.00    +0.000 C 
ATOM      4  C   UNL     1      -0.024  11.211  18.387  0.00  0.00    +0.000 C 
ATOM      5  C   UNL     1      -1.199  12.075  18.873  0.00  0.00    +0.000 C 
ENDROOT
BRANCH   1   9
ATOM      6  N   UNL     1      -3.255  14.440  22.404  0.00  0.00    +0.000 NA
ATOM      7  C   UNL     1      -2.935  13.074  22.851  0.00  0.00    +0.000 C 
ATOM      8  C   UNL     1      -1.456  12.710  22.702  0.00  0.00    +0.000 C 
ATOM      9  C   UNL     1      -0.930  12.848  21.255  0.00  0.00    +0.000 C 
ATOM     10  C   UNL     1      -1.271  14.299  20.846  0.00  0.00    +0.000 C 
ATOM     11  C   UNL     1      -2.742  14.673  21.037  0.00  0.00    +0.000 C 
BRANCH   6  12
ATOM     12  C   UNL     1      -4.720  14.665  22.389  0.00  0.00    +0.000 C 
BRANCH  12  14
ATOM     13  C   UNL     1      -4.649  16.198  24.391  0.00  0.00    +0.000 C 
ATOM     14  C   UNL     1      -5.341  14.999  23.753  0.00  0.00    +0.000 C 
ENDBRANCH  12  14
ENDBRANCH   6  12
ENDBRANCH   1   9
BRANCH   5  15
ATOM     15  C   UNL     1      -2.449  11.724  18.033  0.00  0.00    +0.000 C 
ATOM     16  O   UNL     1      -3.572  11.634  18.514  0.00  0.00    +0.000 OA
ATOM     17  N   UNL     1      -2.171  11.528  16.695  0.00  0.00    +0.000 N 
ATOM     18  H   UNL     1      -1.180  11.562  16.455  0.00  0.00    +0.000 HD
BRANCH  17  19
ATOM     19  C   UNL     1      -3.157  11.147  15.718  0.00  0.00    +0.000 C 
ATOM     20  C   UNL     1      -2.883   9.760  15.170  0.00  0.00    +0.000 C 
ENDBRANCH  17  19
ENDBRANCH   5  15
BRANCH   3  21
ATOM     21  N   UNL     1       1.260   9.326  19.456  0.00  0.00    +0.000 NA
ATOM     22  H   UNL     1       0.626   8.532  19.544  0.00  0.00    +0.000 HD
BRANCH  21  23
ATOM     23  C   UNL     1       1.894   9.267  18.136  0.00  0.00    +0.000 C 
BRANCH  23  24
ATOM     24  C   UNL     1       2.704   8.009  17.944  0.00  0.00    +0.000 A 
ATOM     25  C   UNL     1       3.929   8.046  17.270  0.00  0.00    +0.000 A 
ATOM     26  C   UNL     1       4.640   6.878  16.975  0.00  0.00    +0.000 A 
ATOM     27  C   UNL     1       4.089   5.647  17.368  0.00  0.00    +0.000 A 
ATOM     28  C   UNL     1       2.895   5.575  18.086  0.00  0.00    +0.000 A 
ATOM     29  C   UNL     1       2.200   6.770  18.379  0.00  0.00    +0.000 A 
ATOM     30  C   UNL     1       2.632   4.197  18.355  0.00  0.00    +0.000 A 
ATOM     31  C   UNL     1       1.600   3.521  19.043  0.00  0.00    +0.000 A 
ATOM     32  C   UNL     1       1.608   2.124  19.106  0.00  0.00    +0.000 A 
ATOM     33  C   UNL     1       2.622   1.397  18.491  0.00  0.00    +0.000 A 
ATOM     34  C   UNL     1       3.657   2.043  17.807  0.00  0.00    +0.000 A 
ATOM     35  C   UNL     1       3.643   3.448  17.753  0.00  0.00    +0.000 A 
ATOM     36  N   UNL     1       4.503   4.347  17.145  0.00  0.00    +0.000 N 
BRANCH  36  37
ATOM     37  C   UNL     1       5.607   3.964  16.276  0.00  0.00    +0.000 C 
ATOM     38  C   UNL     1       5.358   4.276  14.812  0.00  0.00    +0.000 C 
ENDBRANCH  36  37
ENDBRANCH  23  24
ENDBRANCH  21  23
ENDBRANCH   3  21
TORSDOF 9
ENDMDL
MODEL 5
REMARK VINA RESULT:      -8.1      2.772     11.141
REMARK  Name = 
REMARK  12 active torsions:
REMARK  status: ('A' for Active; 'I' for Inactive)
REMARK    1  A    between atoms: C_1  and  C_2
REMARK    2  A    between atoms: C_2  and  C_3
REMARK    3  A    between atoms: C_3  and  N_4
REMARK    4  A    between atoms: C_7  and  N_8
REMARK    5  A    between atoms: C_10  and  N_11
REMARK    6  A    between atoms: N_11  and  C_12
REMARK    7  A    between atoms: C_12  and  C_13
REMARK    8  A    between atoms: N_25  and  C_26
REMARK    9  A    between atoms: C_26  and  C_27
REMARK   10  A    between atoms: C_29  and  C_30
REMARK   11  A    between atoms: N_32  and  C_33
REMARK   12  A    between atoms: C_33  and  C_34
REMARK                            x       y       z     vdW  Elec       q    Type
REMARK                         _______ _______ _______ _____ _____    ______ ____
ROOT
ATOM      1  N   UNL     1       4.596   5.374  18.242  0.00  0.00    +0.000 NA
ATOM      2  C   UNL     1       3.617   6.120  17.396  0.00  0.00    +0.000 C 
ATOM      3  C   UNL     1       3.069   7.237  18.292  0.00  0.00    +0.000 C 
ATOM      4  C   UNL     1       2.854   6.491  19.599  0.00  0.00    +0.000 C 
ATOM      5  C   UNL     1       3.934   5.396  19.605  0.00  0.00    +0.000 C 
ENDROOT
BRANCH   1   9
ATOM      6  N   UNL     1       7.324   5.516  15.558  0.00  0.00    +0.000 NA
ATOM      7  C   UNL     1       6.221   6.479  15.717  0.00  0.00    +0.000 C 
ATOM      8  C   UNL     1       6.120   7.071  17.124  0.00  0.00    +0.000 C 
ATOM      9  C   UNL     1       5.955   6.004  18.231  0.00  0.00    +0.000 C 
ATOM     10  C   UNL     1       7.145   5.038  18.032  0.00  0.00    +0.000 C 
ATOM     11  C   UNL     1       7.267   4.482  16.612  0.00  0.00    +0.000 C 
BRANCH   6  12
ATOM     12  C   UNL     1       7.251   4.837  14.242  0.00  0.00    +0.000 C 
BRANCH  12  14
ATOM     13  C   UNL     1       5.931   3.477  12.578  0.00  0.00    +0.000 C 
ATOM     14  C   UNL     1       5.972   4.024  14.000  0.00  0.00    +0.000 C 
ENDBRANCH  12  14
ENDBRANCH   6  12
ENDBRANCH   1   9
BRANCH   5  15
ATOM     15  C   UNL     1       3.258   4.039  19.909  0.00  0.00    +0.000 C 
ATOM     16  O   UNL     1       3.844   2.968  19.819  0.00  0.00    +0.000 OA
ATOM     17  N   UNL     1       1.937   4.161  20.295  0.00  0.00    +0.000 N 
ATOM     18  H   UNL     1       1.566   5.109  20.252  0.00  0.00    +0.000 HD
BRANCH  17  19
ATOM     19  C   UNL     1       1.082   3.041  20.587  0.00  0.00    +0.000 C 
ATOM     20  C   UNL     1       1.345   2.496  21.978  0.00  0.00    +0.000 C 
ENDBRANCH  17  19
ENDBRANCH   5  15
BRANCH   3  21
ATOM     21  N   UNL     1       1.885   7.917  17.763  0.00  0.00    +0.000 NA
ATOM     22  H   UNL     1       1.031   7.450  18.066  0.00  0.00    +0.000 HD
BRANCH  21  23
ATOM     23  C   UNL     1       1.828   9.314  18.201  0.00  0.00    +0.000 C 
BRANCH  23  24
ATOM     24  C   UNL     1       0.412   9.810  18.357  0.00  0.00    +0.000 A 
ATOM     25  C   UNL     1      -0.565   9.484  17.410  0.00  0.00    +0.000 A 
ATOM     26  C   UNL     1      -1.853  10.027  17.468  0.00  0.00    +0.000 A 
ATOM     27  C   UNL     1      -2.150  10.926  18.506  0.00  0.00    +0.000 A 
ATOM     28  C   UNL     1      -1.217  11.234  19.497  0.00  0.00    +0.000 A 
ATOM     29  C   UNL     1       0.075  10.665  19.420  0.00  0.00    +0.000 A 
ATOM     30  C   UNL     1      -1.836  12.141  20.411  0.00  0.00    +0.000 A 
ATOM     31  C   UNL     1      -1.401  12.776  21.594  0.00  0.00    +0.000 A 
ATOM     32  C   UNL     1      -2.255  13.658  22.263  0.00  0.00    +0.000 A 
ATOM     33  C   UNL     1      -3.528  13.917  21.765  0.00  0.00    +0.000 A 
ATOM     34  C   UNL     1      -3.984  13.298  20.597  0.00  0.00    +0.000 A 
ATOM     35  C   UNL     1      -3.120  12.409  19.935  0.00  0.00    +0.000 A 
ATOM     36  N   UNL     1      -3.279  11.678  18.770  0.00  0.00    +0.000 N 
BRANCH  36  37
ATOM     37  C   UNL     1      -4.425  11.796  17.880  0.00  0.00    +0.000 C 
ATOM     38  C   UNL     1      -5.602  10.933  18.294  0.00  0.00    +0.000 C 
ENDBRANCH  36  37
ENDBRANCH  23  24
ENDBRANCH  21  23
ENDBRANCH   3  21
TORSDOF 9
ENDMDL
MODEL 6
REMARK VINA RESULT:      -8.1      2.708     11.088
REMARK  Name = 
REMARK  12 active torsions:
REMARK  status: ('A' for Active; 'I' for Inactive)
REMARK    1  A    between atoms: C_1  and  C_2
REMARK    2  A    between atoms: C_2  and  C_3
REMARK    3  A    between atoms: C_3  and  N_4
REMARK    4  A    between atoms: C_7  and  N_8
REMARK    5  A    between atoms: C_10  and  N_11
REMARK    6  A    between atoms: N_11  and  C_12
REMARK    7  A    between atoms: C_12  and  C_13
REMARK    8  A    between atoms: N_25  and  C_26
REMARK    9  A    between atoms: C_26  and  C_27
REMARK   10  A    between atoms: C_29  and  C_30
REMARK   11  A    between atoms: N_32  and  C_33
REMARK   12  A    between atoms: C_33  and  C_34
REMARK                            x       y       z     vdW  Elec       q    Type
REMARK                         _______ _______ _______ _____ _____    ______ ____
ROOT
ATOM      1  N   UNL     1       4.036   5.645  17.921  0.00  0.00    +0.000 NA
ATOM      2  C   UNL     1       2.851   6.541  17.762  0.00  0.00    +0.000 C 
ATOM      3  C   UNL     1       2.712   7.277  19.100  0.00  0.00    +0.000 C 
ATOM      4  C   UNL     1       2.948   6.145  20.087  0.00  0.00    +0.000 C 
ATOM      5  C   UNL     1       3.910   5.189  19.361  0.00  0.00    +0.000 C 
ENDROOT
BRANCH   1   9
ATOM      6  N   UNL     1       6.681   5.116  15.203  0.00  0.00    +0.000 NA
ATOM      7  C   UNL     1       5.492   5.978  15.092  0.00  0.00    +0.000 C 
ATOM      8  C   UNL     1       5.363   6.995  16.228  0.00  0.00    +0.000 C 
ATOM      9  C   UNL     1       5.326   6.349  17.632  0.00  0.00    +0.000 C 
ATOM     10  C   UNL     1       6.600   5.477  17.702  0.00  0.00    +0.000 C 
ATOM     11  C   UNL     1       6.748   4.492  16.541  0.00  0.00    +0.000 C 
BRANCH   6  12
ATOM     12  C   UNL     1       6.649   4.032  14.191  0.00  0.00    +0.000 C 
BRANCH  12  14
ATOM     13  C   UNL     1       5.441   3.326  12.093  0.00  0.00    +0.000 C 
ATOM     14  C   UNL     1       5.282   3.797  13.534  0.00  0.00    +0.000 C 
ENDBRANCH  12  14
ENDBRANCH   6  12
ENDBRANCH   1   9
BRANCH   5  15
ATOM     15  C   UNL     1       3.329   3.757  19.434  0.00  0.00    +0.000 C 
ATOM     16  O   UNL     1       3.944   2.769  19.054  0.00  0.00    +0.000 OA
ATOM     17  N   UNL     1       2.058   3.710  19.973  0.00  0.00    +0.000 N 
ATOM     18  H   UNL     1       1.646   4.620  20.175  0.00  0.00    +0.000 HD
BRANCH  17  19
ATOM     19  C   UNL     1       1.289   2.500  20.105  0.00  0.00    +0.000 C 
ATOM     20  C   UNL     1       0.576   2.158  18.811  0.00  0.00    +0.000 C 
ENDBRANCH  17  19
ENDBRANCH   5  15
BRANCH   3  21
ATOM     21  N   UNL     1       1.447   7.996  19.271  0.00  0.00    +0.000 NA
ATOM     22  H   UNL     1       1.308   8.260  20.245  0.00  0.00    +0.000 HD
BRANCH  21  23
ATOM     23  C   UNL     1       1.406   9.210  18.451  0.00  0.00    +0.000 C 
BRANCH  23  24
ATOM     24  C   UNL     1       0.408  10.217  18.967  0.00  0.00    +0.000 A 
ATOM     25  C   UNL     1       0.697  10.993  20.095  0.00  0.00    +0.000 A 
ATOM     26  C   UNL     1      -0.256  11.845  20.662  0.00  0.00    +0.000 A 
ATOM     27  C   UNL     1      -1.531  11.903  20.075  0.00  0.00    +0.000 A 
ATOM     28  C   UNL     1      -1.838  11.182  18.920  0.00  0.00    +0.000 A 
ATOM     29  C   UNL     1      -0.855  10.334  18.362  0.00  0.00    +0.000 A 
ATOM     30  C   UNL     1      -3.189  11.484  18.566  0.00  0.00    +0.000 A 
ATOM     31  C   UNL     1      -4.030  11.075  17.508  0.00  0.00    +0.000 A 
ATOM     32  C   UNL     1      -5.350  11.533  17.455  0.00  0.00    +0.000 A 
ATOM     33  C   UNL     1      -5.840  12.384  18.440  0.00  0.00    +0.000 A 
ATOM     34  C   UNL     1      -5.025  12.807  19.496  0.00  0.00    +0.000 A 
ATOM     35  C   UNL     1      -3.699  12.345  19.538  0.00  0.00    +0.000 A 
ATOM     36  N   UNL     1      -2.683  12.568  20.452  0.00  0.00    +0.000 N 
BRANCH  36  37
ATOM     37  C   UNL     1      -2.852  13.290  21.704  0.00  0.00    +0.000 C 
ATOM     38  C   UNL     1      -3.235  12.395  22.869  0.00  0.00    +0.000 C 
ENDBRANCH  36  37
ENDBRANCH  23  24
ENDBRANCH  21  23
ENDBRANCH   3  21
TORSDOF 9
ENDMDL
MODEL 7
REMARK VINA RESULT:      -8.0      1.365      2.651
REMARK  Name = 
REMARK  12 active torsions:
REMARK  status: ('A' for Active; 'I' for Inactive)
REMARK    1  A    between atoms: C_1  and  C_2
REMARK    2  A    between atoms: C_2  and  C_3
REMARK    3  A    between atoms: C_3  and  N_4
REMARK    4  A    between atoms: C_7  and  N_8
REMARK    5  A    between atoms: C_10  and  N_11
REMARK    6  A    between atoms: N_11  and  C_12
REMARK    7  A    between atoms: C_12  and  C_13
REMARK    8  A    between atoms: N_25  and  C_26
REMARK    9  A    between atoms: C_26  and  C_27
REMARK   10  A    between atoms: C_29  and  C_30
REMARK   11  A    between atoms: N_32  and  C_33
REMARK   12  A    between atoms: C_33  and  C_34
REMARK                            x       y       z     vdW  Elec       q    Type
REMARK                         _______ _______ _______ _____ _____    ______ ____
ROOT
ATOM      1  N   UNL     1      -1.600  11.608  20.429  0.00  0.00    +0.000 NA
ATOM      2  C   UNL     1      -0.512  10.594  20.570  0.00  0.00    +0.000 C 
ATOM      3  C   UNL     1       0.601  11.052  19.619  0.00  0.00    +0.000 C 
ATOM      4  C   UNL     1      -0.203  11.449  18.391  0.00  0.00    +0.000 C 
ATOM      5  C   UNL     1      -1.552  11.934  18.949  0.00  0.00    +0.000 C 
ENDROOT
BRANCH   1   9
ATOM      6  N   UNL     1      -3.906  13.417  22.894  0.00  0.00    +0.000 NA
ATOM      7  C   UNL     1      -3.032  12.275  23.211  0.00  0.00    +0.000 C 
ATOM      8  C   UNL     1      -1.571  12.491  22.810  0.00  0.00    +0.000 C 
ATOM      9  C   UNL     1      -1.384  12.802  21.308  0.00  0.00    +0.000 C 
ATOM     10  C   UNL     1      -2.302  14.015  21.035  0.00  0.00    +0.000 C 
ATOM     11  C   UNL     1      -3.752  13.812  21.477  0.00  0.00    +0.000 C 
BRANCH   6  12
ATOM     12  C   UNL     1      -5.331  13.076  23.124  0.00  0.00    +0.000 C 
BRANCH  12  14
ATOM     13  C   UNL     1      -6.376  15.279  23.769  0.00  0.00    +0.000 C 
ATOM     14  C   UNL     1      -6.333  14.168  22.727  0.00  0.00    +0.000 C 
ENDBRANCH  12  14
ENDBRANCH   6  12
ENDBRANCH   1   9
BRANCH   5  15
ATOM     15  C   UNL     1      -2.688  11.209  18.191  0.00  0.00    +0.000 C 
ATOM     16  O   UNL     1      -2.590  10.057  17.787  0.00  0.00    +0.000 OA
ATOM     17  N   UNL     1      -3.817  11.987  18.023  0.00  0.00    +0.000 N 
ATOM     18  H   UNL     1      -3.723  12.950  18.346  0.00  0.00    +0.000 HD
BRANCH  17  19
ATOM     19  C   UNL     1      -4.990  11.554  17.311  0.00  0.00    +0.000 C 
ATOM     20  C   UNL     1      -6.009  10.940  18.251  0.00  0.00    +0.000 C 
ENDBRANCH  17  19
ENDBRANCH   5  15
BRANCH   3  21
ATOM     21  N   UNL     1       1.646  10.054  19.380  0.00  0.00    +0.000 NA
ATOM     22  H   UNL     1       1.679   9.373  20.139  0.00  0.00    +0.000 HD
BRANCH  21  23
ATOM     23  C   UNL     1       1.426   9.336  18.122  0.00  0.00    +0.000 C 
BRANCH  23  24
ATOM     24  C   UNL     1       2.312   8.122  17.992  0.00  0.00    +0.000 A 
ATOM     25  C   UNL     1       3.596   8.233  17.446  0.00  0.00    +0.000 A 
ATOM     26  C   UNL     1       4.390   7.107  17.205  0.00  0.00    +0.000 A 
ATOM     27  C   UNL     1       3.863   5.843  17.517  0.00  0.00    +0.000 A 
ATOM     28  C   UNL     1       2.608   5.698  18.108  0.00  0.00    +0.000 A 
ATOM     29  C   UNL     1       1.829   6.852  18.350  0.00  0.00    +0.000 A 
ATOM     30  C   UNL     1       2.387   4.303  18.324  0.00  0.00    +0.000 A 
ATOM     31  C   UNL     1       1.325   3.563  18.890  0.00  0.00    +0.000 A 
ATOM     32  C   UNL     1       1.395   2.168  18.928  0.00  0.00    +0.000 A 
ATOM     33  C   UNL     1       2.501   1.504  18.407  0.00  0.00    +0.000 A 
ATOM     34  C   UNL     1       3.566   2.214  17.845  0.00  0.00    +0.000 A 
ATOM     35  C   UNL     1       3.489   3.617  17.815  0.00  0.00    +0.000 A 
ATOM     36  N   UNL     1       4.361   4.569  17.314  0.00  0.00    +0.000 N 
BRANCH  36  37
ATOM     37  C   UNL     1       5.564   4.259  16.556  0.00  0.00    +0.000 C 
ATOM     38  C   UNL     1       5.377   4.371  15.054  0.00  0.00    +0.000 C 
ENDBRANCH  36  37
ENDBRANCH  23  24
ENDBRANCH  21  23
ENDBRANCH   3  21
TORSDOF 9
ENDMDL
MODEL 8
REMARK VINA RESULT:      -8.0      1.490      1.792
REMARK  Name = 
REMARK  12 active torsions:
REMARK  status: ('A' for Active; 'I' for Inactive)
REMARK    1  A    between atoms: C_1  and  C_2
REMARK    2  A    between atoms: C_2  and  C_3
REMARK    3  A    between atoms: C_3  and  N_4
REMARK    4  A    between atoms: C_7  and  N_8
REMARK    5  A    between atoms: C_10  and  N_11
REMARK    6  A    between atoms: N_11  and  C_12
REMARK    7  A    between atoms: C_12  and  C_13
REMARK    8  A    between atoms: N_25  and  C_26
REMARK    9  A    between atoms: C_26  and  C_27
REMARK   10  A    between atoms: C_29  and  C_30
REMARK   11  A    between atoms: N_32  and  C_33
REMARK   12  A    between atoms: C_33  and  C_34
REMARK                            x       y       z     vdW  Elec       q    Type
REMARK                         _______ _______ _______ _____ _____    ______ ____
ROOT
ATOM      1  N   UNL     1      -1.033  10.890  21.207  0.00  0.00    +0.000 NA
ATOM      2  C   UNL     1      -0.376   9.620  21.642  0.00  0.00    +0.000 C 
ATOM      3  C   UNL     1       1.107   9.784  21.287  0.00  0.00    +0.000 C 
ATOM      4  C   UNL     1       1.014  10.405  19.902  0.00  0.00    +0.000 C 
ATOM      5  C   UNL     1      -0.290  11.220  19.927  0.00  0.00    +0.000 C 
ENDROOT
BRANCH   1   9
ATOM      6  N   UNL     1      -3.397  13.754  22.145  0.00  0.00    +0.000 NA
ATOM      7  C   UNL     1      -3.433  12.390  22.700  0.00  0.00    +0.000 C 
ATOM      8  C   UNL     1      -2.092  11.924  23.271  0.00  0.00    +0.000 C 
ATOM      9  C   UNL     1      -0.937  11.966  22.244  0.00  0.00    +0.000 C 
ATOM     10  C   UNL     1      -0.931  13.417  21.712  0.00  0.00    +0.000 C 
ATOM     11  C   UNL     1      -2.284  13.894  21.182  0.00  0.00    +0.000 C 
BRANCH   6  12
ATOM     12  C   UNL     1      -4.660  14.073  21.437  0.00  0.00    +0.000 C 
BRANCH  12  14
ATOM     13  C   UNL     1      -7.048  13.469  20.895  0.00  0.00    +0.000 C 
ATOM     14  C   UNL     1      -5.740  12.986  21.512  0.00  0.00    +0.000 C 
ENDBRANCH  12  14
ENDBRANCH   6  12
ENDBRANCH   1   9
BRANCH   5  15
ATOM     15  C   UNL     1      -1.134  10.838  18.689  0.00  0.00    +0.000 C 
ATOM     16  O   UNL     1      -0.803   9.960  17.902  0.00  0.00    +0.000 OA
ATOM     17  N   UNL     1      -2.292  11.580  18.567  0.00  0.00    +0.000 N 
ATOM     18  H   UNL     1      -2.396  12.325  19.255  0.00  0.00    +0.000 HD
BRANCH  17  19
ATOM     19  C   UNL     1      -3.220  11.443  17.475  0.00  0.00    +0.000 C 
ATOM     20  C   UNL     1      -4.359  10.508  17.835  0.00  0.00    +0.000 C 
ENDBRANCH  17  19
ENDBRANCH   5  15
BRANCH   3  21
ATOM     21  N   UNL     1       1.891   8.550  21.363  0.00  0.00    +0.000 NA
ATOM     22  H   UNL     1       2.470   8.538  22.202  0.00  0.00    +0.000 HD
BRANCH  21  23
ATOM     23  C   UNL     1       1.027   7.366  21.380  0.00  0.00    +0.000 C 
BRANCH  23  24
ATOM     24  C   UNL     1       1.486   6.307  20.409  0.00  0.00    +0.000 A 
ATOM     25  C   UNL     1       1.068   4.980  20.552  0.00  0.00    +0.000 A 
ATOM     26  C   UNL     1       1.573   3.959  19.739  0.00  0.00    +0.000 A 
ATOM     27  C   UNL     1       2.529   4.296  18.766  0.00  0.00    +0.000 A 
ATOM     28  C   UNL     1       2.932   5.616  18.560  0.00  0.00    +0.000 A 
ATOM     29  C   UNL     1       2.400   6.629  19.390  0.00  0.00    +0.000 A 
ATOM     30  C   UNL     1       3.876   5.621  17.489  0.00  0.00    +0.000 A 
ATOM     31  C   UNL     1       4.602   6.643  16.838  0.00  0.00    +0.000 A 
ATOM     32  C   UNL     1       5.499   6.314  15.818  0.00  0.00    +0.000 A 
ATOM     33  C   UNL     1       5.684   4.988  15.444  0.00  0.00    +0.000 A 
ATOM     34  C   UNL     1       4.975   3.958  16.070  0.00  0.00    +0.000 A 
ATOM     35  C   UNL     1       4.072   4.298  17.092  0.00  0.00    +0.000 A 
ATOM     36  N   UNL     1       3.261   3.512  17.892  0.00  0.00    +0.000 N 
BRANCH  36  37
ATOM     37  C   UNL     1       3.283   2.057  17.903  0.00  0.00    +0.000 C 
ATOM     38  C   UNL     1       4.120   1.475  19.027  0.00  0.00    +0.000 C 
ENDBRANCH  36  37
ENDBRANCH  23  24
ENDBRANCH  21  23
ENDBRANCH   3  21
TORSDOF 9
ENDMDL
MODEL 9
REMARK VINA RESULT:      -8.0      1.494      2.900
REMARK  Name = 
REMARK  12 active torsions:
REMARK  status: ('A' for Active; 'I' for Inactive)
REMARK    1  A    between atoms: C_1  and  C_2
REMARK    2  A    between atoms: C_2  and  C_3
REMARK    3  A    between atoms: C_3  and  N_4
REMARK    4  A    between atoms: C_7  and  N_8
REMARK    5  A    between atoms: C_10  and  N_11
REMARK    6  A    between atoms: N_11  and  C_12
REMARK    7  A    between atoms: C_12  and  C_13
REMARK    8  A    between atoms: N_25  and  C_26
REMARK    9  A    between atoms: C_26  and  C_27
REMARK   10  A    between atoms: C_29  and  C_30
REMARK   11  A    between atoms: N_32  and  C_33
REMARK   12  A    between atoms: C_33  and  C_34
REMARK                            x       y       z     vdW  Elec       q    Type
REMARK                         _______ _______ _______ _____ _____    ______ ____
ROOT
ATOM      1  N   UNL     1      -1.646  11.725  20.580  0.00  0.00    +0.000 NA
ATOM      2  C   UNL     1      -0.441  10.855  20.429  0.00  0.00    +0.000 C 
ATOM      3  C   UNL     1       0.480  11.597  19.452  0.00  0.00    +0.000 C 
ATOM      4  C   UNL     1      -0.516  12.068  18.405  0.00  0.00    +0.000 C 
ATOM      5  C   UNL     1      -1.827  12.278  19.180  0.00  0.00    +0.000 C 
ENDROOT
BRANCH   1   9
ATOM      6  N   UNL     1      -4.144  13.928  22.472  0.00  0.00    +0.000 NA
ATOM      7  C   UNL     1      -3.682  12.593  22.890  0.00  0.00    +0.000 C 
ATOM      8  C   UNL     1      -2.159  12.463  22.956  0.00  0.00    +0.000 C 
ATOM      9  C   UNL     1      -1.455  12.787  21.618  0.00  0.00    +0.000 C 
ATOM     10  C   UNL     1      -1.955  14.200  21.239  0.00  0.00    +0.000 C 
ATOM     11  C   UNL     1      -3.478  14.337  21.217  0.00  0.00    +0.000 C 
BRANCH   6  12
ATOM     12  C   UNL     1      -5.608  13.936  22.240  0.00  0.00    +0.000 C 
BRANCH  12  14
ATOM     13  C   UNL     1      -7.525  12.887  20.981  0.00  0.00    +0.000 C 
ATOM     14  C   UNL     1      -6.181  12.638  21.654  0.00  0.00    +0.000 C 
ENDBRANCH  12  14
ENDBRANCH   6  12
ENDBRANCH   1   9
BRANCH   5  15
ATOM     15  C   UNL     1      -2.962  11.533  18.439  0.00  0.00    +0.000 C 
ATOM     16  O   UNL     1      -2.768  10.541  17.748  0.00  0.00    +0.000 OA
ATOM     17  N   UNL     1      -4.208  12.096  18.641  0.00  0.00    +0.000 N 
ATOM     18  H   UNL     1      -4.203  12.962  19.179  0.00  0.00    +0.000 HD
BRANCH  17  19
ATOM     19  C   UNL     1      -5.414  11.612  18.023  0.00  0.00    +0.000 C 
ATOM     20  C   UNL     1      -6.163  12.733  17.328  0.00  0.00    +0.000 C 
ENDBRANCH  17  19
ENDBRANCH   5  15
BRANCH   3  21
ATOM     21  N   UNL     1       1.592  10.796  18.937  0.00  0.00    +0.000 NA
ATOM     22  H   UNL     1       2.201  10.488  19.694  0.00  0.00    +0.000 HD
BRANCH  21  23
ATOM     23  C   UNL     1       1.113   9.612  18.218  0.00  0.00    +0.000 C 
BRANCH  23  24
ATOM     24  C   UNL     1       2.066   8.448  18.330  0.00  0.00    +0.000 A 
ATOM     25  C   UNL     1       3.184   8.361  17.494  0.00  0.00    +0.000 A 
ATOM     26  C   UNL     1       4.015   7.235  17.496  0.00  0.00    +0.000 A 
ATOM     27  C   UNL     1       3.696   6.174  18.361  0.00  0.00    +0.000 A 
ATOM     28  C   UNL     1       2.619   6.248  19.244  0.00  0.00    +0.000 A 
ATOM     29  C   UNL     1       1.800   7.400  19.228  0.00  0.00    +0.000 A 
ATOM     30  C   UNL     1       2.589   5.034  19.996  0.00  0.00    +0.000 A 
ATOM     31  C   UNL     1       1.754   4.550  21.026  0.00  0.00    +0.000 A 
ATOM     32  C   UNL     1       1.968   3.271  21.550  0.00  0.00    +0.000 A 
ATOM     33  C   UNL     1       2.995   2.473  21.059  0.00  0.00    +0.000 A 
ATOM     34  C   UNL     1       3.839   2.931  20.041  0.00  0.00    +0.000 A 
ATOM     35  C   UNL     1       3.619   4.220  19.525  0.00  0.00    +0.000 A 
ATOM     36  N   UNL     1       4.263   4.923  18.521  0.00  0.00    +0.000 N 
BRANCH  36  37
ATOM     37  C   UNL     1       5.299   4.365  17.665  0.00  0.00    +0.000 C 
ATOM     38  C   UNL     1       4.772   3.848  16.339  0.00  0.00    +0.000 C 
ENDBRANCH  36  37
ENDBRANCH  23  24
ENDBRANCH  21  23
ENDBRANCH   3  21
TORSDOF 9
ENDMDL
