MODEL 1
REMARK VINA RESULT:      -7.8      0.000      0.000
REMARK  Name = 
REMARK  2 active torsions:
REMARK  status: ('A' for Active; 'I' for Inactive)
REMARK    1  A    between atoms: C_2  and  C_10
REMARK    2  A    between atoms: N_3  and  C_4
REMARK                            x       y       z     vdW  Elec       q    Type
REMARK                         _______ _______ _______ _____ _____    ______ ____
ROOT
ATOM      1  C   UNL     1       0.928  11.086  18.830  0.00  0.00    +0.000 C 
ATOM      2  C   UNL     1       1.068  10.828  20.335  0.00  0.00    +0.000 C 
ATOM      3  C   UNL     1       0.890   9.345  20.681  0.00  0.00    +0.000 C 
ATOM      4  C   UNL     1       1.640   8.417  19.761  0.00  0.00    +0.000 A 
ATOM      5  N   UNL     1       1.733   7.126  20.157  0.00  0.00    +0.000 NA
ATOM      6  C   UNL     1       2.338   6.245  19.336  0.00  0.00    +0.000 A 
ATOM      7  N   UNL     1       2.357   4.903  19.680  0.00  0.00    +0.000 N 
ATOM      8  C   UNL     1       2.507   3.931  18.599  0.00  0.00    +0.000 C 
ATOM      9  C   UNL     1       1.329   2.978  18.789  0.00  0.00    +0.000 C 
ATOM     10  C   UNL     1       1.114   2.993  20.292  0.00  0.00    +0.000 C 
ATOM     11  C   UNL     1       1.378   4.453  20.665  0.00  0.00    +0.000 C 
ATOM     12  N   UNL     1       2.917   6.620  18.184  0.00  0.00    +0.000 NA
ATOM     13  C   UNL     1       2.799   7.908  17.816  0.00  0.00    +0.000 A 
ATOM     14  C   UNL     1       2.136   8.861  18.553  0.00  0.00    +0.000 A 
ATOM     15  C   UNL     1       1.996  10.275  18.071  0.00  0.00    +0.000 C 
ENDROOT
BRANCH   1  17
ATOM     16  O   UNL     1      -0.714   9.721  17.715  0.00  0.00    +0.000 OA
ATOM     17  C   UNL     1      -0.481  10.768  18.315  0.00  0.00    +0.000 C 
ATOM     18  N   UNL     1      -1.409  11.768  18.569  0.00  0.00    +0.000 N 
ATOM     19  H   UNL     1      -1.057  12.671  18.859  0.00  0.00    +0.000 HD
BRANCH  18  20
ATOM     20  C   UNL     1      -2.793  11.699  18.277  0.00  0.00    +0.000 A 
ATOM     21  C   UNL     1      -3.788  11.972  19.220  0.00  0.00    +0.000 A 
ATOM     22  C   UNL     1      -5.142  11.874  18.886  0.00  0.00    +0.000 A 
ATOM     23  C   UNL     1      -5.516  11.505  17.599  0.00  0.00    +0.000 A 
ATOM     24  C   UNL     1      -4.536  11.249  16.642  0.00  0.00    +0.000 A 
ATOM     25  C   UNL     1      -3.180  11.357  16.975  0.00  0.00    +0.000 A 
ENDBRANCH  18  20
ENDBRANCH   1  17
TORSDOF 2
ENDMDL
MODEL 2
REMARK VINA RESULT:      -7.7      0.364      1.047
REMARK  Name = 
REMARK  2 active torsions:
REMARK  status: ('A' for Active; 'I' for Inactive)
REMARK    1  A    between atoms: C_2  and  C_10
REMARK    2  A    between atoms: N_3  and  C_4
REMARK                            x       y       z     vdW  Elec       q    Type
REMARK                         _______ _______ _______ _____ _____    ______ ____
ROOT
ATOM      1  C   UNL     1       1.123  10.819  18.648  0.00  0.00    +0.000 C 
ATOM      2  C   UNL     1       1.220  10.623  20.165  0.00  0.00    +0.000 C 
ATOM      3  C   UNL     1       1.006   9.160  20.570  0.00  0.00    +0.000 C 
ATOM      4  C   UNL     1       1.759   8.180  19.709  0.00  0.00    +0.000 A 
ATOM      5  N   UNL     1       1.818   6.905  20.161  0.00  0.00    +0.000 NA
ATOM      6  C   UNL     1       2.425   5.979  19.394  0.00  0.00    +0.000 A 
ATOM      7  N   UNL     1       2.410   4.653  19.794  0.00  0.00    +0.000 N 
ATOM      8  C   UNL     1       2.567   3.632  18.760  0.00  0.00    +0.000 C 
ATOM      9  C   UNL     1       1.367   2.711  18.961  0.00  0.00    +0.000 C 
ATOM     10  C   UNL     1       1.115   2.794  20.456  0.00  0.00    +0.000 C 
ATOM     11  C   UNL     1       1.399   4.264  20.773  0.00  0.00    +0.000 C 
ATOM     12  N   UNL     1       3.039   6.294  18.242  0.00  0.00    +0.000 NA
ATOM     13  C   UNL     1       2.955   7.567  17.817  0.00  0.00    +0.000 A 
ATOM     14  C   UNL     1       2.293   8.563  18.496  0.00  0.00    +0.000 A 
ATOM     15  C   UNL     1       2.192   9.956  17.951  0.00  0.00    +0.000 C 
ENDROOT
BRANCH   1  17
ATOM     16  O   UNL     1      -0.541   9.407  17.627  0.00  0.00    +0.000 OA
ATOM     17  C   UNL     1      -0.280  10.505  18.112  0.00  0.00    +0.000 C 
ATOM     18  N   UNL     1      -1.167  11.568  18.209  0.00  0.00    +0.000 N 
ATOM     19  H   UNL     1      -0.783  12.482  18.408  0.00  0.00    +0.000 HD
BRANCH  18  20
ATOM     20  C   UNL     1      -2.541  11.526  17.866  0.00  0.00    +0.000 A 
ATOM     21  C   UNL     1      -3.000  11.242  16.576  0.00  0.00    +0.000 A 
ATOM     22  C   UNL     1      -4.366  11.230  16.286  0.00  0.00    +0.000 A 
ATOM     23  C   UNL     1      -5.294  11.498  17.287  0.00  0.00    +0.000 A 
ATOM     24  C   UNL     1      -4.853  11.764  18.582  0.00  0.00    +0.000 A 
ATOM     25  C   UNL     1      -3.483  11.767  18.874  0.00  0.00    +0.000 A 
ENDBRANCH  18  20
ENDBRANCH   1  17
TORSDOF 2
ENDMDL
MODEL 3
REMARK VINA RESULT:      -7.5      4.181      6.981
REMARK  Name = 
REMARK  2 active torsions:
REMARK  status: ('A' for Active; 'I' for Inactive)
REMARK    1  A    between atoms: C_2  and  C_10
REMARK    2  A    between atoms: N_3  and  C_4
REMARK                            x       y       z     vdW  Elec       q    Type
REMARK                         _______ _______ _______ _____ _____    ______ ____
ROOT
ATOM      1  C   UNL     1       3.693   4.451  19.581  0.00  0.00    +0.000 C 
ATOM      2  C   UNL     1       3.429   3.079  18.950  0.00  0.00    +0.000 C 
ATOM      3  C   UNL     1       3.763   3.062  17.454  0.00  0.00    +0.000 C 
ATOM      4  C   UNL     1       5.077   3.720  17.122  0.00  0.00    +0.000 A 
ATOM      5  N   UNL     1       5.550   3.519  15.869  0.00  0.00    +0.000 NA
ATOM      6  C   UNL     1       6.688   4.139  15.506  0.00  0.00    +0.000 A 
ATOM      7  N   UNL     1       7.135   4.023  14.200  0.00  0.00    +0.000 N 
ATOM      8  C   UNL     1       8.006   5.078  13.686  0.00  0.00    +0.000 C 
ATOM      9  C   UNL     1       7.322   5.534  12.400  0.00  0.00    +0.000 C 
ATOM     10  C   UNL     1       6.644   4.269  11.905  0.00  0.00    +0.000 C 
ATOM     11  C   UNL     1       6.160   3.606  13.196  0.00  0.00    +0.000 C 
ATOM     12  N   UNL     1       7.406   4.881  16.365  0.00  0.00    +0.000 NA
ATOM     13  C   UNL     1       6.905   5.068  17.598  0.00  0.00    +0.000 A 
ATOM     14  C   UNL     1       5.714   4.536  18.034  0.00  0.00    +0.000 A 
ATOM     15  C   UNL     1       5.181   4.816  19.408  0.00  0.00    +0.000 C 
ENDROOT
BRANCH   1  17
ATOM     16  O   UNL     1       2.048   5.310  18.046  0.00  0.00    +0.000 OA
ATOM     17  C   UNL     1       2.783   5.541  19.002  0.00  0.00    +0.000 C 
ATOM     18  N   UNL     1       2.904   6.768  19.639  0.00  0.00    +0.000 N 
ATOM     19  H   UNL     1       3.697   6.901  20.254  0.00  0.00    +0.000 HD
BRANCH  18  20
ATOM     20  C   UNL     1       2.126   7.919  19.363  0.00  0.00    +0.000 A 
ATOM     21  C   UNL     1       2.126   8.563  18.121  0.00  0.00    +0.000 A 
ATOM     22  C   UNL     1       1.353   9.706  17.904  0.00  0.00    +0.000 A 
ATOM     23  C   UNL     1       0.564  10.218  18.929  0.00  0.00    +0.000 A 
ATOM     24  C   UNL     1       0.537   9.577  20.165  0.00  0.00    +0.000 A 
ATOM     25  C   UNL     1       1.306   8.425  20.379  0.00  0.00    +0.000 A 
ENDBRANCH  18  20
ENDBRANCH   1  17
TORSDOF 2
ENDMDL
MODEL 4
REMARK VINA RESULT:      -7.4      1.161      1.710
REMARK  Name = 
REMARK  2 active torsions:
REMARK  status: ('A' for Active; 'I' for Inactive)
REMARK    1  A    between atoms: C_2  and  C_10
REMARK    2  A    between atoms: N_3  and  C_4
REMARK                            x       y       z     vdW  Elec       q    Type
REMARK                         _______ _______ _______ _____ _____    ______ ____
ROOT
ATOM      1  C   UNL     1      -0.141  12.015  19.310  0.00  0.00    +0.000 C 
ATOM      2  C   UNL     1       0.250  11.735  20.766  0.00  0.00    +0.000 C 
ATOM      3  C   UNL     1       0.376  10.234  21.047  0.00  0.00    +0.000 C 
ATOM      4  C   UNL     1       1.136   9.483  19.984  0.00  0.00    +0.000 A 
ATOM      5  N   UNL     1       1.501   8.215  20.289  0.00  0.00    +0.000 NA
ATOM      6  C   UNL     1       2.124   7.483  19.347  0.00  0.00    +0.000 A 
ATOM      7  N   UNL     1       2.419   6.154  19.607  0.00  0.00    +0.000 N 
ATOM      8  C   UNL     1       2.578   5.260  18.462  0.00  0.00    +0.000 C 
ATOM      9  C   UNL     1       1.617   4.110  18.751  0.00  0.00    +0.000 C 
ATOM     10  C   UNL     1       1.615   4.036  20.268  0.00  0.00    +0.000 C 
ATOM     11  C   UNL     1       1.679   5.507  20.686  0.00  0.00    +0.000 C 
ATOM     12  N   UNL     1       2.464   7.992  18.151  0.00  0.00    +0.000 NA
ATOM     13  C   UNL     1       2.079   9.251  17.877  0.00  0.00    +0.000 A 
ATOM     14  C   UNL     1       1.374  10.048  18.748  0.00  0.00    +0.000 A 
ATOM     15  C   UNL     1       0.931  11.430  18.371  0.00  0.00    +0.000 C 
ENDROOT
BRANCH   1  17
ATOM     16  O   UNL     1      -1.677  10.346  18.499  0.00  0.00    +0.000 OA
ATOM     17  C   UNL     1      -1.535  11.472  18.969  0.00  0.00    +0.000 C 
ATOM     18  N   UNL     1      -2.562  12.371  19.217  0.00  0.00    +0.000 N 
ATOM     19  H   UNL     1      -2.310  13.337  19.384  0.00  0.00    +0.000 HD
BRANCH  18  20
ATOM     20  C   UNL     1      -3.945  12.101  19.071  0.00  0.00    +0.000 A 
ATOM     21  C   UNL     1      -4.509  11.617  17.887  0.00  0.00    +0.000 A 
ATOM     22  C   UNL     1      -5.883  11.383  17.788  0.00  0.00    +0.000 A 
ATOM     23  C   UNL     1      -6.711  11.626  18.879  0.00  0.00    +0.000 A 
ATOM     24  C   UNL     1      -6.161  12.089  20.072  0.00  0.00    +0.000 A 
ATOM     25  C   UNL     1      -4.783  12.315  20.173  0.00  0.00    +0.000 A 
ENDBRANCH  18  20
ENDBRANCH   1  17
TORSDOF 2
ENDMDL
MODEL 5
REMARK VINA RESULT:      -7.4      6.233      9.253
REMARK  Name = 
REMARK  2 active torsions:
REMARK  status: ('A' for Active; 'I' for Inactive)
REMARK    1  A    between atoms: C_2  and  C_10
REMARK    2  A    between atoms: N_3  and  C_4
REMARK                            x       y       z     vdW  Elec       q    Type
REMARK                         _______ _______ _______ _____ _____    ______ ____
ROOT
ATOM      1  C   UNL     1       7.021   5.650  15.755  0.00  0.00    +0.000 C 
ATOM      2  C   UNL     1       5.928   6.723  15.683  0.00  0.00    +0.000 C 
ATOM      3  C   UNL     1       4.623   6.259  16.340  0.00  0.00    +0.000 C 
ATOM      4  C   UNL     1       4.826   5.585  17.672  0.00  0.00    +0.000 A 
ATOM      5  N   UNL     1       3.714   5.380  18.417  0.00  0.00    +0.000 NA
ATOM      6  C   UNL     1       3.837   4.723  19.586  0.00  0.00    +0.000 A 
ATOM      7  N   UNL     1       2.698   4.419  20.315  0.00  0.00    +0.000 N 
ATOM      8  C   UNL     1       2.769   3.292  21.242  0.00  0.00    +0.000 C 
ATOM      9  C   UNL     1       1.590   2.407  20.844  0.00  0.00    +0.000 C 
ATOM     10  C   UNL     1       0.567   3.407  20.335  0.00  0.00    +0.000 C 
ATOM     11  C   UNL     1       1.425   4.438  19.600  0.00  0.00    +0.000 C 
ATOM     12  N   UNL     1       5.029   4.339  20.071  0.00  0.00    +0.000 NA
ATOM     13  C   UNL     1       6.112   4.549  19.303  0.00  0.00    +0.000 A 
ATOM     14  C   UNL     1       6.073   5.144  18.064  0.00  0.00    +0.000 A 
ATOM     15  C   UNL     1       7.309   5.313  17.230  0.00  0.00    +0.000 C 
ENDROOT
BRANCH   1  17
ATOM     16  O   UNL     1       6.355   3.346  15.531  0.00  0.00    +0.000 OA
ATOM     17  C   UNL     1       6.651   4.392  14.959  0.00  0.00    +0.000 C 
ATOM     18  N   UNL     1       6.717   4.561  13.583  0.00  0.00    +0.000 N 
ATOM     19  H   UNL     1       7.190   5.384  13.234  0.00  0.00    +0.000 HD
BRANCH  18  20
ATOM     20  C   UNL     1       6.350   3.592  12.617  0.00  0.00    +0.000 A 
ATOM     21  C   UNL     1       5.028   3.370  12.220  0.00  0.00    +0.000 A 
ATOM     22  C   UNL     1       4.717   2.389  11.274  0.00  0.00    +0.000 A 
ATOM     23  C   UNL     1       5.729   1.620  10.710  0.00  0.00    +0.000 A 
ATOM     24  C   UNL     1       7.053   1.843  11.080  0.00  0.00    +0.000 A 
ATOM     25  C   UNL     1       7.365   2.832  12.021  0.00  0.00    +0.000 A 
ENDBRANCH  18  20
ENDBRANCH   1  17
TORSDOF 2
ENDMDL
MODEL 6
REMARK VINA RESULT:      -7.3      6.188      9.166
REMARK  Name = 
REMARK  2 active torsions:
REMARK  status: ('A' for Active; 'I' for Inactive)
REMARK    1  A    between atoms: C_2  and  C_10
REMARK    2  A    between atoms: N_3  and  C_4
REMARK                            x       y       z     vdW  Elec       q    Type
REMARK                         _______ _______ _______ _____ _____    ______ ____
ROOT
ATOM      1  C   UNL     1       7.047   5.534  15.770  0.00  0.00    +0.000 C 
ATOM      2  C   UNL     1       6.019   6.671  15.737  0.00  0.00    +0.000 C 
ATOM      3  C   UNL     1       4.701   6.272  16.411  0.00  0.00    +0.000 C 
ATOM      4  C   UNL     1       4.887   5.563  17.727  0.00  0.00    +0.000 A 
ATOM      5  N   UNL     1       3.778   5.410  18.488  0.00  0.00    +0.000 NA
ATOM      6  C   UNL     1       3.883   4.725  19.643  0.00  0.00    +0.000 A 
ATOM      7  N   UNL     1       2.741   4.475  20.388  0.00  0.00    +0.000 N 
ATOM      8  C   UNL     1       2.762   3.328  21.293  0.00  0.00    +0.000 C 
ATOM      9  C   UNL     1       1.526   2.522  20.902  0.00  0.00    +0.000 C 
ATOM     10  C   UNL     1       0.554   3.590  20.431  0.00  0.00    +0.000 C 
ATOM     11  C   UNL     1       1.459   4.583  19.698  0.00  0.00    +0.000 C 
ATOM     12  N   UNL     1       5.058   4.262  20.099  0.00  0.00    +0.000 NA
ATOM     13  C   UNL     1       6.139   4.423  19.314  0.00  0.00    +0.000 A 
ATOM     14  C   UNL     1       6.113   5.042  18.087  0.00  0.00    +0.000 A 
ATOM     15  C   UNL     1       7.342   5.153  17.234  0.00  0.00    +0.000 C 
ENDROOT
BRANCH   1  17
ATOM     16  O   UNL     1       6.266   3.270  15.517  0.00  0.00    +0.000 OA
ATOM     17  C   UNL     1       6.590   4.315  14.959  0.00  0.00    +0.000 C 
ATOM     18  N   UNL     1       6.613   4.515  13.586  0.00  0.00    +0.000 N 
ATOM     19  H   UNL     1       7.112   5.325  13.239  0.00  0.00    +0.000 HD
BRANCH  18  20
ATOM     20  C   UNL     1       6.166   3.589  12.612  0.00  0.00    +0.000 A 
ATOM     21  C   UNL     1       7.003   2.639  12.019  0.00  0.00    +0.000 A 
ATOM     22  C   UNL     1       6.516   1.757  11.050  0.00  0.00    +0.000 A 
ATOM     23  C   UNL     1       5.181   1.814  10.664  0.00  0.00    +0.000 A 
ATOM     24  C   UNL     1       4.331   2.743  11.260  0.00  0.00    +0.000 A 
ATOM     25  C   UNL     1       4.817   3.619  12.238  0.00  0.00    +0.000 A 
ENDBRANCH  18  20
ENDBRANCH   1  17
TORSDOF 2
ENDMDL
MODEL 7
REMARK VINA RESULT:      -7.2      6.531      8.364
REMARK  Name = 
REMARK  2 active torsions:
REMARK  status: ('A' for Active; 'I' for Inactive)
REMARK    1  A    between atoms: C_2  and  C_10
REMARK    2  A    between atoms: N_3  and  C_4
REMARK                            x       y       z     vdW  Elec       q    Type
REMARK                         _______ _______ _______ _____ _____    ______ ____
ROOT
ATOM      1  C   UNL     1       6.295   5.806  18.803  0.00  0.00    +0.000 C 
ATOM      2  C   UNL     1       7.648   5.184  18.438  0.00  0.00    +0.000 C 
ATOM      3  C   UNL     1       7.550   4.285  17.200  0.00  0.00    +0.000 C 
ATOM      4  C   UNL     1       6.757   4.895  16.073  0.00  0.00    +0.000 A 
ATOM      5  N   UNL     1       6.843   4.274  14.873  0.00  0.00    +0.000 NA
ATOM      6  C   UNL     1       6.101   4.744  13.853  0.00  0.00    +0.000 A 
ATOM      7  N   UNL     1       6.102   4.064  12.646  0.00  0.00    +0.000 N 
ATOM      8  C   UNL     1       4.944   4.236  11.771  0.00  0.00    +0.000 C 
ATOM      9  C   UNL     1       4.482   2.811  11.479  0.00  0.00    +0.000 C 
ATOM     10  C   UNL     1       5.774   2.015  11.522  0.00  0.00    +0.000 C 
ATOM     11  C   UNL     1       6.550   2.674  12.664  0.00  0.00    +0.000 C 
ATOM     12  N   UNL     1       5.346   5.848  13.965  0.00  0.00    +0.000 NA
ATOM     13  C   UNL     1       5.275   6.436  15.172  0.00  0.00    +0.000 A 
ATOM     14  C   UNL     1       5.938   5.984  16.289  0.00  0.00    +0.000 A 
ATOM     15  C   UNL     1       5.786   6.654  17.622  0.00  0.00    +0.000 C 
ENDROOT
BRANCH   1  17
ATOM     16  O   UNL     1       5.614   3.676  19.699  0.00  0.00    +0.000 OA
ATOM     17  C   UNL     1       5.263   4.748  19.213  0.00  0.00    +0.000 C 
ATOM     18  N   UNL     1       3.950   5.118  18.957  0.00  0.00    +0.000 N 
ATOM     19  H   UNL     1       3.798   5.915  18.351  0.00  0.00    +0.000 HD
BRANCH  18  20
ATOM     20  C   UNL     1       2.800   4.370  19.309  0.00  0.00    +0.000 A 
ATOM     21  C   UNL     1       2.249   4.375  20.594  0.00  0.00    +0.000 A 
ATOM     22  C   UNL     1       1.122   3.606  20.895  0.00  0.00    +0.000 A 
ATOM     23  C   UNL     1       0.529   2.823  19.910  0.00  0.00    +0.000 A 
ATOM     24  C   UNL     1       1.055   2.823  18.621  0.00  0.00    +0.000 A 
ATOM     25  C   UNL     1       2.179   3.601  18.317  0.00  0.00    +0.000 A 
ENDBRANCH  18  20
ENDBRANCH   1  17
TORSDOF 2
ENDMDL
MODEL 8
REMARK VINA RESULT:      -7.2      6.306      8.812
REMARK  Name = 
REMARK  2 active torsions:
REMARK  status: ('A' for Active; 'I' for Inactive)
REMARK    1  A    between atoms: C_2  and  C_10
REMARK    2  A    between atoms: N_3  and  C_4
REMARK                            x       y       z     vdW  Elec       q    Type
REMARK                         _______ _______ _______ _____ _____    ______ ____
ROOT
ATOM      1  C   UNL     1       7.390   6.374  17.362  0.00  0.00    +0.000 C 
ATOM      2  C   UNL     1       6.240   7.360  17.123  0.00  0.00    +0.000 C 
ATOM      3  C   UNL     1       4.874   6.666  17.159  0.00  0.00    +0.000 C 
ATOM      4  C   UNL     1       4.716   5.706  18.309  0.00  0.00    +0.000 A 
ATOM      5  N   UNL     1       3.461   5.255  18.547  0.00  0.00    +0.000 NA
ATOM      6  C   UNL     1       3.280   4.345  19.523  0.00  0.00    +0.000 A 
ATOM      7  N   UNL     1       2.021   3.801  19.717  0.00  0.00    +0.000 N 
ATOM      8  C   UNL     1       1.941   2.490  20.358  0.00  0.00    +0.000 C 
ATOM      9  C   UNL     1       1.106   1.653  19.393  0.00  0.00    +0.000 C 
ATOM     10  C   UNL     1       0.176   2.678  18.765  0.00  0.00    +0.000 C 
ATOM     11  C   UNL     1       1.071   3.910  18.613  0.00  0.00    +0.000 C 
ATOM     12  N   UNL     1       4.285   3.933  20.314  0.00  0.00    +0.000 NA
ATOM     13  C   UNL     1       5.519   4.393  20.046  0.00  0.00    +0.000 A 
ATOM     14  C   UNL     1       5.810   5.265  19.023  0.00  0.00    +0.000 A 
ATOM     15  C   UNL     1       7.215   5.709  18.742  0.00  0.00    +0.000 C 
ENDROOT
BRANCH   1  17
ATOM     16  O   UNL     1       8.060   4.250  16.444  0.00  0.00    +0.000 OA
ATOM     17  C   UNL     1       7.495   5.324  16.249  0.00  0.00    +0.000 C 
ATOM     18  N   UNL     1       6.929   5.724  15.047  0.00  0.00    +0.000 N 
ATOM     19  H   UNL     1       6.702   6.704  14.939  0.00  0.00    +0.000 HD
BRANCH  18  20
ATOM     20  C   UNL     1       6.815   4.922  13.885  0.00  0.00    +0.000 A 
ATOM     21  C   UNL     1       7.679   5.033  12.791  0.00  0.00    +0.000 A 
ATOM     22  C   UNL     1       7.512   4.229  11.660  0.00  0.00    +0.000 A 
ATOM     23  C   UNL     1       6.479   3.299  11.612  0.00  0.00    +0.000 A 
ATOM     24  C   UNL     1       5.622   3.164  12.701  0.00  0.00    +0.000 A 
ATOM     25  C   UNL     1       5.795   3.963  13.839  0.00  0.00    +0.000 A 
ENDBRANCH  18  20
ENDBRANCH   1  17
TORSDOF 2
ENDMDL
MODEL 9
REMARK VINA RESULT:      -7.0      3.934      6.802
REMARK  Name = 
REMARK  2 active torsions:
REMARK  status: ('A' for Active; 'I' for Inactive)
REMARK    1  A    between atoms: C_2  and  C_10
REMARK    2  A    between atoms: N_3  and  C_4
REMARK                            x       y       z     vdW  Elec       q    Type
REMARK                         _______ _______ _______ _____ _____    ______ ____
ROOT
ATOM      1  C   UNL     1       3.233   4.235  19.788  0.00  0.00    +0.000 C 
ATOM      2  C   UNL     1       2.942   2.900  19.092  0.00  0.00    +0.000 C 
ATOM      3  C   UNL     1       3.333   2.930  17.609  0.00  0.00    +0.000 C 
ATOM      4  C   UNL     1       4.682   3.549  17.354  0.00  0.00    +0.000 A 
ATOM      5  N   UNL     1       5.195   3.381  16.112  0.00  0.00    +0.000 NA
ATOM      6  C   UNL     1       6.368   3.972  15.817  0.00  0.00    +0.000 A 
ATOM      7  N   UNL     1       6.861   3.891  14.524  0.00  0.00    +0.000 N 
ATOM      8  C   UNL     1       7.789   4.931  14.088  0.00  0.00    +0.000 C 
ATOM      9  C   UNL     1       7.172   5.464  12.797  0.00  0.00    +0.000 C 
ATOM     10  C   UNL     1       6.467   4.247  12.225  0.00  0.00    +0.000 C 
ATOM     11  C   UNL     1       5.910   3.552  13.469  0.00  0.00    +0.000 C 
ATOM     12  N   UNL     1       7.080   4.650  16.732  0.00  0.00    +0.000 NA
ATOM     13  C   UNL     1       6.539   4.807  17.953  0.00  0.00    +0.000 A 
ATOM     14  C   UNL     1       5.313   4.304  18.322  0.00  0.00    +0.000 A 
ATOM     15  C   UNL     1       4.738   4.549  19.685  0.00  0.00    +0.000 C 
ENDROOT
BRANCH   1  17
ATOM     16  O   UNL     1       1.455   5.160  18.453  0.00  0.00    +0.000 OA
ATOM     17  C   UNL     1       2.386   5.381  19.222  0.00  0.00    +0.000 C 
ATOM     18  N   UNL     1       2.796   6.639  19.640  0.00  0.00    +0.000 N 
ATOM     19  H   UNL     1       3.704   6.714  20.081  0.00  0.00    +0.000 HD
BRANCH  18  20
ATOM     20  C   UNL     1       2.145   7.860  19.336  0.00  0.00    +0.000 A 
ATOM     21  C   UNL     1       1.249   8.487  20.207  0.00  0.00    +0.000 A 
ATOM     22  C   UNL     1       0.620   9.683  19.853  0.00  0.00    +0.000 A 
ATOM     23  C   UNL     1       0.884  10.270  18.620  0.00  0.00    +0.000 A 
ATOM     24  C   UNL     1       1.789   9.668  17.749  0.00  0.00    +0.000 A 
ATOM     25  C   UNL     1       2.427   8.474  18.109  0.00  0.00    +0.000 A 
ENDBRANCH  18  20
ENDBRANCH   1  17
TORSDOF 2
ENDMDL
