MODEL 1
REMARK VINA RESULT:      -8.2      0.000      0.000
REMARK  Name = 
REMARK  11 active torsions:
REMARK  status: ('A' for Active; 'I' for Inactive)
REMARK    1  A    between atoms: C_1  and  C_2
REMARK    2  A    between atoms: C_2  and  N_3
REMARK    3  A    between atoms: C_5  and  C_6
REMARK    4  A    between atoms: N_8  and  C_9
REMARK    5  A    between atoms: C_9  and  C_10
REMARK    6  A    between atoms: C_10  and  N_11
REMARK    7  A    between atoms: C_17  and  C_18
REMARK    8  A    between atoms: C_21  and  C_22
REMARK    9  A    between atoms: C_22  and  C_23
REMARK   10  A    between atoms: C_22  and  C_24
REMARK   11  A    between atoms: C_22  and  C_25
REMARK                            x       y       z     vdW  Elec       q    Type
REMARK                         _______ _______ _______ _____ _____    ______ ____
ROOT
ATOM      1  N   UNL     1       3.535   4.903  17.836  0.00  0.00    +0.000 N 
ATOM      2  N   UNL     1       4.628   4.198  17.569  0.00  0.00    +0.000 NA
ATOM      3  C   UNL     1       5.657   5.054  17.596  0.00  0.00    +0.000 A 
ATOM      4  C   UNL     1       5.185   6.334  17.975  0.00  0.00    +0.000 A 
ATOM      5  C   UNL     1       3.816   6.207  18.169  0.00  0.00    +0.000 A 
ENDROOT
BRANCH   5   6
ATOM      6  C   UNL     1       2.823   7.207  18.536  0.00  0.00    +0.000 A 
ATOM      7  C   UNL     1       2.310   7.230  19.831  0.00  0.00    +0.000 A 
ATOM      8  C   UNL     1       1.439   8.245  20.227  0.00  0.00    +0.000 A 
ATOM      9  C   UNL     1       1.070   9.274  19.346  0.00  0.00    +0.000 A 
ATOM     10  C   UNL     1       1.544   9.199  18.027  0.00  0.00    +0.000 A 
ATOM     11  C   UNL     1       2.391   8.170  17.623  0.00  0.00    +0.000 A 
BRANCH   9  12
ATOM     12  C   UNL     1       0.211  10.466  19.783  0.00  0.00    +0.000 C 
ATOM     13  C   UNL     1      -1.013  10.698  18.873  0.00  0.00    +0.000 C 
ATOM     14  C   UNL     1      -0.315  10.205  21.211  0.00  0.00    +0.000 C 
ATOM     15  C   UNL     1       1.058  11.754  19.772  0.00  0.00    +0.000 C 
ENDBRANCH   9  12
ENDBRANCH   5   6
BRANCH   3  16
ATOM     16  C   UNL     1       7.046   4.655  17.255  0.00  0.00    +0.000 C 
ATOM     17  O   UNL     1       7.895   4.446  18.122  0.00  0.00    +0.000 OA
ATOM     18  N   UNL     1       7.411   4.533  15.916  0.00  0.00    +0.000 N 
ATOM     19  H   UNL     1       8.382   4.308  15.759  0.00  0.00    +0.000 HD
BRANCH  18  20
ATOM     20  C   UNL     1       6.527   4.837  14.807  0.00  0.00    +0.000 C 
BRANCH  20  21
ATOM     21  C   UNL     1       5.941   3.668  14.021  0.00  0.00    +0.000 C 
BRANCH  21  22
ATOM     22  N   UNL     1       6.010   3.941  12.568  0.00  0.00    +0.000 NA
ATOM     23  C   UNL     1       4.974   3.206  11.834  0.00  0.00    +0.000 C 
ATOM     24  C   UNL     1       5.617   1.870  11.524  0.00  0.00    +0.000 C 
ATOM     25  C   UNL     1       7.040   2.257  11.174  0.00  0.00    +0.000 C 
ATOM     26  C   UNL     1       7.288   3.546  11.943  0.00  0.00    +0.000 C 
ENDBRANCH  21  22
ENDBRANCH  20  21
ENDBRANCH  18  20
ENDBRANCH   3  16
BRANCH   1  28
ATOM     27  C   UNL     1       1.659   3.626  18.948  0.00  0.00    +0.000 C 
ATOM     28  C   UNL     1       2.245   4.249  17.682  0.00  0.00    +0.000 C 
ENDBRANCH   1  28
TORSDOF 7
ENDMDL
MODEL 2
REMARK VINA RESULT:      -7.9      0.469      1.296
REMARK  Name = 
REMARK  11 active torsions:
REMARK  status: ('A' for Active; 'I' for Inactive)
REMARK    1  A    between atoms: C_1  and  C_2
REMARK    2  A    between atoms: C_2  and  N_3
REMARK    3  A    between atoms: C_5  and  C_6
REMARK    4  A    between atoms: N_8  and  C_9
REMARK    5  A    between atoms: C_9  and  C_10
REMARK    6  A    between atoms: C_10  and  N_11
REMARK    7  A    between atoms: C_17  and  C_18
REMARK    8  A    between atoms: C_21  and  C_22
REMARK    9  A    between atoms: C_22  and  C_23
REMARK   10  A    between atoms: C_22  and  C_24
REMARK   11  A    between atoms: C_22  and  C_25
REMARK                            x       y       z     vdW  Elec       q    Type
REMARK                         _______ _______ _______ _____ _____    ______ ____
ROOT
ATOM      1  N   UNL     1       3.647   5.035  17.728  0.00  0.00    +0.000 N 
ATOM      2  N   UNL     1       4.690   4.272  17.425  0.00  0.00    +0.000 NA
ATOM      3  C   UNL     1       5.757   5.081  17.368  0.00  0.00    +0.000 A 
ATOM      4  C   UNL     1       5.363   6.392  17.731  0.00  0.00    +0.000 A 
ATOM      5  C   UNL     1       4.003   6.333  18.004  0.00  0.00    +0.000 A 
ENDROOT
BRANCH   5   6
ATOM      6  C   UNL     1       3.078   7.389  18.392  0.00  0.00    +0.000 A 
ATOM      7  C   UNL     1       2.819   8.439  17.513  0.00  0.00    +0.000 A 
ATOM      8  C   UNL     1       1.857   9.400  17.826  0.00  0.00    +0.000 A 
ATOM      9  C   UNL     1       1.117   9.329  19.017  0.00  0.00    +0.000 A 
ATOM     10  C   UNL     1       1.437   8.303  19.919  0.00  0.00    +0.000 A 
ATOM     11  C   UNL     1       2.416   7.360  19.620  0.00  0.00    +0.000 A 
BRANCH   9  12
ATOM     12  C   UNL     1      -0.026  10.299  19.336  0.00  0.00    +0.000 C 
ATOM     13  C   UNL     1       0.376  11.781  19.188  0.00  0.00    +0.000 C 
ATOM     14  C   UNL     1      -1.192  10.036  18.359  0.00  0.00    +0.000 C 
ATOM     15  C   UNL     1      -0.508  10.083  20.784  0.00  0.00    +0.000 C 
ENDBRANCH   9  12
ENDBRANCH   5   6
BRANCH   3  16
ATOM     16  C   UNL     1       7.104   4.608  16.964  0.00  0.00    +0.000 C 
ATOM     17  O   UNL     1       7.975   4.337  17.792  0.00  0.00    +0.000 OA
ATOM     18  N   UNL     1       7.408   4.486  15.610  0.00  0.00    +0.000 N 
ATOM     19  H   UNL     1       8.357   4.209  15.409  0.00  0.00    +0.000 HD
BRANCH  18  20
ATOM     20  C   UNL     1       6.498   4.859  14.543  0.00  0.00    +0.000 C 
BRANCH  20  21
ATOM     21  C   UNL     1       5.742   3.742  13.829  0.00  0.00    +0.000 C 
BRANCH  21  22
ATOM     22  N   UNL     1       5.872   3.892  12.362  0.00  0.00    +0.000 NA
ATOM     23  C   UNL     1       4.964   2.987  11.647  0.00  0.00    +0.000 C 
ATOM     24  C   UNL     1       5.760   1.707  11.498  0.00  0.00    +0.000 C 
ATOM     25  C   UNL     1       7.154   2.214  11.187  0.00  0.00    +0.000 C 
ATOM     26  C   UNL     1       7.220   3.585  11.843  0.00  0.00    +0.000 C 
ENDBRANCH  21  22
ENDBRANCH  20  21
ENDBRANCH  18  20
ENDBRANCH   3  16
BRANCH   1  28
ATOM     27  C   UNL     1       2.262   2.926  17.881  0.00  0.00    +0.000 C 
ATOM     28  C   UNL     1       2.321   4.437  17.667  0.00  0.00    +0.000 C 
ENDBRANCH   1  28
TORSDOF 7
ENDMDL
MODEL 3
REMARK VINA RESULT:      -7.0      1.152      1.801
REMARK  Name = 
REMARK  11 active torsions:
REMARK  status: ('A' for Active; 'I' for Inactive)
REMARK    1  A    between atoms: C_1  and  C_2
REMARK    2  A    between atoms: C_2  and  N_3
REMARK    3  A    between atoms: C_5  and  C_6
REMARK    4  A    between atoms: N_8  and  C_9
REMARK    5  A    between atoms: C_9  and  C_10
REMARK    6  A    between atoms: C_10  and  N_11
REMARK    7  A    between atoms: C_17  and  C_18
REMARK    8  A    between atoms: C_21  and  C_22
REMARK    9  A    between atoms: C_22  and  C_23
REMARK   10  A    between atoms: C_22  and  C_24
REMARK   11  A    between atoms: C_22  and  C_25
REMARK                            x       y       z     vdW  Elec       q    Type
REMARK                         _______ _______ _______ _____ _____    ______ ____
ROOT
ATOM      1  N   UNL     1       2.864   5.127  19.016  0.00  0.00    +0.000 N 
ATOM      2  N   UNL     1       3.887   4.302  18.832  0.00  0.00    +0.000 NA
ATOM      3  C   UNL     1       4.909   5.046  18.389  0.00  0.00    +0.000 A 
ATOM      4  C   UNL     1       4.519   6.407  18.375  0.00  0.00    +0.000 A 
ATOM      5  C   UNL     1       3.206   6.445  18.826  0.00  0.00    +0.000 A 
ENDROOT
BRANCH   5   6
ATOM      6  C   UNL     1       2.300   7.574  18.983  0.00  0.00    +0.000 A 
ATOM      7  C   UNL     1       1.797   7.886  20.245  0.00  0.00    +0.000 A 
ATOM      8  C   UNL     1       1.014   9.026  20.429  0.00  0.00    +0.000 A 
ATOM      9  C   UNL     1       0.727   9.894  19.363  0.00  0.00    +0.000 A 
ATOM     10  C   UNL     1       1.187   9.529  18.089  0.00  0.00    +0.000 A 
ATOM     11  C   UNL     1       1.945   8.377  17.899  0.00  0.00    +0.000 A 
BRANCH   9  12
ATOM     12  C   UNL     1      -0.030  11.213  19.555  0.00  0.00    +0.000 C 
ATOM     13  C   UNL     1      -0.608  11.381  20.975  0.00  0.00    +0.000 C 
ATOM     14  C   UNL     1       0.942  12.386  19.308  0.00  0.00    +0.000 C 
ATOM     15  C   UNL     1      -1.201  11.295  18.556  0.00  0.00    +0.000 C 
ENDBRANCH   9  12
ENDBRANCH   5   6
BRANCH   3  16
ATOM     16  C   UNL     1       6.212   4.462  17.982  0.00  0.00    +0.000 C 
ATOM     17  O   UNL     1       7.194   4.479  18.725  0.00  0.00    +0.000 OA
ATOM     18  N   UNL     1       6.341   3.898  16.715  0.00  0.00    +0.000 N 
ATOM     19  H   UNL     1       7.266   3.568  16.487  0.00  0.00    +0.000 HD
BRANCH  18  20
ATOM     20  C   UNL     1       5.284   3.899  15.720  0.00  0.00    +0.000 C 
BRANCH  20  21
ATOM     21  C   UNL     1       5.580   4.538  14.366  0.00  0.00    +0.000 C 
BRANCH  21  22
ATOM     22  N   UNL     1       6.750   3.885  13.737  0.00  0.00    +0.000 NA
ATOM     23  C   UNL     1       7.887   4.806  13.631  0.00  0.00    +0.000 C 
ATOM     24  C   UNL     1       7.674   5.505  12.304  0.00  0.00    +0.000 C 
ATOM     25  C   UNL     1       7.178   4.385  11.411  0.00  0.00    +0.000 C 
ATOM     26  C   UNL     1       6.503   3.407  12.362  0.00  0.00    +0.000 C 
ENDBRANCH  21  22
ENDBRANCH  20  21
ENDBRANCH  18  20
ENDBRANCH   3  16
BRANCH   1  28
ATOM     27  C   UNL     1       1.352   4.094  20.758  0.00  0.00    +0.000 C 
ATOM     28  C   UNL     1       1.563   4.548  19.315  0.00  0.00    +0.000 C 
ENDBRANCH   1  28
TORSDOF 7
ENDMDL
MODEL 4
REMARK VINA RESULT:      -7.0      1.126      1.505
REMARK  Name = 
REMARK  11 active torsions:
REMARK  status: ('A' for Active; 'I' for Inactive)
REMARK    1  A    between atoms: C_1  and  C_2
REMARK    2  A    between atoms: C_2  and  N_3
REMARK    3  A    between atoms: C_5  and  C_6
REMARK    4  A    between atoms: N_8  and  C_9
REMARK    5  A    between atoms: C_9  and  C_10
REMARK    6  A    between atoms: C_10  and  N_11
REMARK    7  A    between atoms: C_17  and  C_18
REMARK    8  A    between atoms: C_21  and  C_22
REMARK    9  A    between atoms: C_22  and  C_23
REMARK   10  A    between atoms: C_22  and  C_24
REMARK   11  A    between atoms: C_22  and  C_25
REMARK                            x       y       z     vdW  Elec       q    Type
REMARK                         _______ _______ _______ _____ _____    ______ ____
ROOT
ATOM      1  N   UNL     1       3.048   5.220  19.244  0.00  0.00    +0.000 N 
ATOM      2  N   UNL     1       4.147   4.479  19.183  0.00  0.00    +0.000 NA
ATOM      3  C   UNL     1       5.141   5.291  18.801  0.00  0.00    +0.000 A 
ATOM      4  C   UNL     1       4.645   6.613  18.699  0.00  0.00    +0.000 A 
ATOM      5  C   UNL     1       3.298   6.555  19.032  0.00  0.00    +0.000 A 
ENDROOT
BRANCH   5   6
ATOM      6  C   UNL     1       2.293   7.609  19.065  0.00  0.00    +0.000 A 
ATOM      7  C   UNL     1       1.696   7.957  20.275  0.00  0.00    +0.000 A 
ATOM      8  C   UNL     1       0.811   9.034  20.340  0.00  0.00    +0.000 A 
ATOM      9  C   UNL     1       0.511   9.801  19.204  0.00  0.00    +0.000 A 
ATOM     10  C   UNL     1       1.071   9.395  17.982  0.00  0.00    +0.000 A 
ATOM     11  C   UNL     1       1.932   8.304  17.911  0.00  0.00    +0.000 A 
BRANCH   9  12
ATOM     12  C   UNL     1      -0.363  11.059  19.265  0.00  0.00    +0.000 C 
ATOM     13  C   UNL     1      -0.886  11.366  20.683  0.00  0.00    +0.000 C 
ATOM     14  C   UNL     1       0.474  12.271  18.805  0.00  0.00    +0.000 C 
ATOM     15  C   UNL     1      -1.583  10.894  18.338  0.00  0.00    +0.000 C 
ENDBRANCH   9  12
ENDBRANCH   5   6
BRANCH   3  16
ATOM     16  C   UNL     1       6.518   4.807  18.532  0.00  0.00    +0.000 C 
ATOM     17  O   UNL     1       7.418   4.904  19.368  0.00  0.00    +0.000 OA
ATOM     18  N   UNL     1       6.814   4.245  17.293  0.00  0.00    +0.000 N 
ATOM     19  H   UNL     1       7.780   3.985  17.162  0.00  0.00    +0.000 HD
BRANCH  18  20
ATOM     20  C   UNL     1       5.864   4.156  16.199  0.00  0.00    +0.000 C 
BRANCH  20  21
ATOM     21  C   UNL     1       6.323   3.480  14.910  0.00  0.00    +0.000 C 
BRANCH  21  22
ATOM     22  N   UNL     1       6.023   4.343  13.745  0.00  0.00    +0.000 NA
ATOM     23  C   UNL     1       5.058   3.707  12.840  0.00  0.00    +0.000 C 
ATOM     24  C   UNL     1       5.918   2.887  11.901  0.00  0.00    +0.000 C 
ATOM     25  C   UNL     1       7.106   3.794  11.655  0.00  0.00    +0.000 C 
ATOM     26  C   UNL     1       7.200   4.652  12.908  0.00  0.00    +0.000 C 
ENDBRANCH  21  22
ENDBRANCH  20  21
ENDBRANCH  18  20
ENDBRANCH   3  16
BRANCH   1  28
ATOM     27  C   UNL     1       1.265   3.713  18.275  0.00  0.00    +0.000 C 
ATOM     28  C   UNL     1       1.776   4.543  19.451  0.00  0.00    +0.000 C 
ENDBRANCH   1  28
TORSDOF 7
ENDMDL
MODEL 5
REMARK VINA RESULT:      -7.0      4.892      9.955
REMARK  Name = 
REMARK  11 active torsions:
REMARK  status: ('A' for Active; 'I' for Inactive)
REMARK    1  A    between atoms: C_1  and  C_2
REMARK    2  A    between atoms: C_2  and  N_3
REMARK    3  A    between atoms: C_5  and  C_6
REMARK    4  A    between atoms: N_8  and  C_9
REMARK    5  A    between atoms: C_9  and  C_10
REMARK    6  A    between atoms: C_10  and  N_11
REMARK    7  A    between atoms: C_17  and  C_18
REMARK    8  A    between atoms: C_21  and  C_22
REMARK    9  A    between atoms: C_22  and  C_23
REMARK   10  A    between atoms: C_22  and  C_24
REMARK   11  A    between atoms: C_22  and  C_25
REMARK                            x       y       z     vdW  Elec       q    Type
REMARK                         _______ _______ _______ _____ _____    ______ ____
ROOT
ATOM      1  N   UNL     1       0.915   9.772  20.495  0.00  0.00    +0.000 N 
ATOM      2  N   UNL     1       0.268  10.929  20.420  0.00  0.00    +0.000 NA
ATOM      3  C   UNL     1       0.368  11.347  19.152  0.00  0.00    +0.000 A 
ATOM      4  C   UNL     1       1.043  10.362  18.392  0.00  0.00    +0.000 A 
ATOM      5  C   UNL     1       1.350   9.330  19.269  0.00  0.00    +0.000 A 
ENDROOT
BRANCH   5   6
ATOM      6  C   UNL     1       2.065   8.082  19.036  0.00  0.00    +0.000 A 
ATOM      7  C   UNL     1       2.880   7.952  17.914  0.00  0.00    +0.000 A 
ATOM      8  C   UNL     1       3.653   6.804  17.733  0.00  0.00    +0.000 A 
ATOM      9  C   UNL     1       3.645   5.764  18.676  0.00  0.00    +0.000 A 
ATOM     10  C   UNL     1       2.769   5.885  19.766  0.00  0.00    +0.000 A 
ATOM     11  C   UNL     1       1.977   7.016  19.932  0.00  0.00    +0.000 A 
BRANCH   9  12
ATOM     12  C   UNL     1       4.569   4.546  18.567  0.00  0.00    +0.000 C 
ATOM     13  C   UNL     1       4.148   3.381  19.487  0.00  0.00    +0.000 C 
ATOM     14  C   UNL     1       4.539   4.025  17.114  0.00  0.00    +0.000 C 
ATOM     15  C   UNL     1       6.010   4.945  18.942  0.00  0.00    +0.000 C 
ENDBRANCH   9  12
ENDBRANCH   5   6
BRANCH   3  16
ATOM     16  C   UNL     1      -0.156  12.658  18.693  0.00  0.00    +0.000 C 
ATOM     17  O   UNL     1       0.481  13.702  18.838  0.00  0.00    +0.000 OA
ATOM     18  N   UNL     1      -1.415  12.719  18.100  0.00  0.00    +0.000 N 
ATOM     19  H   UNL     1      -1.728  13.648  17.860  0.00  0.00    +0.000 HD
BRANCH  18  20
ATOM     20  C   UNL     1      -2.296  11.575  17.955  0.00  0.00    +0.000 C 
BRANCH  20  21
ATOM     21  C   UNL     1      -3.627  11.601  18.701  0.00  0.00    +0.000 C 
BRANCH  21  22
ATOM     22  N   UNL     1      -4.685  10.970  17.881  0.00  0.00    +0.000 NA
ATOM     23  C   UNL     1      -5.023  11.792  16.713  0.00  0.00    +0.000 C 
ATOM     24  C   UNL     1      -6.098  12.731  17.221  0.00  0.00    +0.000 C 
ATOM     25  C   UNL     1      -6.930  11.835  18.116  0.00  0.00    +0.000 C 
ATOM     26  C   UNL     1      -5.960  10.767  18.599  0.00  0.00    +0.000 C 
ENDBRANCH  21  22
ENDBRANCH  20  21
ENDBRANCH  18  20
ENDBRANCH   3  16
BRANCH   1  28
ATOM     27  C   UNL     1       0.054   9.500  22.856  0.00  0.00    +0.000 C 
ATOM     28  C   UNL     1       1.124   9.189  21.812  0.00  0.00    +0.000 C 
ENDBRANCH   1  28
TORSDOF 7
ENDMDL
MODEL 6
REMARK VINA RESULT:      -7.0      4.831      9.990
REMARK  Name = 
REMARK  11 active torsions:
REMARK  status: ('A' for Active; 'I' for Inactive)
REMARK    1  A    between atoms: C_1  and  C_2
REMARK    2  A    between atoms: C_2  and  N_3
REMARK    3  A    between atoms: C_5  and  C_6
REMARK    4  A    between atoms: N_8  and  C_9
REMARK    5  A    between atoms: C_9  and  C_10
REMARK    6  A    between atoms: C_10  and  N_11
REMARK    7  A    between atoms: C_17  and  C_18
REMARK    8  A    between atoms: C_21  and  C_22
REMARK    9  A    between atoms: C_22  and  C_23
REMARK   10  A    between atoms: C_22  and  C_24
REMARK   11  A    between atoms: C_22  and  C_25
REMARK                            x       y       z     vdW  Elec       q    Type
REMARK                         _______ _______ _______ _____ _____    ______ ____
ROOT
ATOM      1  N   UNL     1       0.750   9.817  20.278  0.00  0.00    +0.000 N 
ATOM      2  N   UNL     1      -0.037  10.878  20.146  0.00  0.00    +0.000 NA
ATOM      3  C   UNL     1      -0.001  11.227  18.853  0.00  0.00    +0.000 A 
ATOM      4  C   UNL     1       0.784  10.287  18.142  0.00  0.00    +0.000 A 
ATOM      5  C   UNL     1       1.225   9.357  19.073  0.00  0.00    +0.000 A 
ENDROOT
BRANCH   5   6
ATOM      6  C   UNL     1       2.087   8.196  18.904  0.00  0.00    +0.000 A 
ATOM      7  C   UNL     1       2.053   7.167  19.843  0.00  0.00    +0.000 A 
ATOM      8  C   UNL     1       2.794   6.002  19.639  0.00  0.00    +0.000 A 
ATOM      9  C   UNL     1       3.575   5.827  18.486  0.00  0.00    +0.000 A 
ATOM     10  C   UNL     1       3.648   6.900  17.584  0.00  0.00    +0.000 A 
ATOM     11  C   UNL     1       2.932   8.073  17.800  0.00  0.00    +0.000 A 
BRANCH   9  12
ATOM     12  C   UNL     1       4.305   4.515  18.177  0.00  0.00    +0.000 C 
ATOM     13  C   UNL     1       4.667   4.359  16.685  0.00  0.00    +0.000 C 
ATOM     14  C   UNL     1       5.622   4.476  18.981  0.00  0.00    +0.000 C 
ATOM     15  C   UNL     1       3.422   3.317  18.575  0.00  0.00    +0.000 C 
ENDBRANCH   9  12
ENDBRANCH   5   6
BRANCH   3  16
ATOM     16  C   UNL     1      -0.689  12.432  18.325  0.00  0.00    +0.000 C 
ATOM     17  O   UNL     1      -0.292  13.571  18.576  0.00  0.00    +0.000 OA
ATOM     18  N   UNL     1      -1.830  12.278  17.542  0.00  0.00    +0.000 N 
ATOM     19  H   UNL     1      -2.274  13.140  17.261  0.00  0.00    +0.000 HD
BRANCH  18  20
ATOM     20  C   UNL     1      -2.443  10.995  17.252  0.00  0.00    +0.000 C 
BRANCH  20  21
ATOM     21  C   UNL     1      -3.809  10.704  17.866  0.00  0.00    +0.000 C 
BRANCH  21  22
ATOM     22  N   UNL     1      -4.542  11.967  18.108  0.00  0.00    +0.000 NA
ATOM     23  C   UNL     1      -5.156  11.985  19.441  0.00  0.00    +0.000 C 
ATOM     24  C   UNL     1      -6.512  11.342  19.231  0.00  0.00    +0.000 C 
ATOM     25  C   UNL     1      -6.949  11.908  17.895  0.00  0.00    +0.000 C 
ATOM     26  C   UNL     1      -5.650  12.209  17.162  0.00  0.00    +0.000 C 
ENDBRANCH  21  22
ENDBRANCH  20  21
ENDBRANCH  18  20
ENDBRANCH   3  16
BRANCH   1  28
ATOM     27  C   UNL     1      -0.155   9.233  22.565  0.00  0.00    +0.000 C 
ATOM     28  C   UNL     1       1.043   9.347  21.624  0.00  0.00    +0.000 C 
ENDBRANCH   1  28
TORSDOF 7
ENDMDL
MODEL 7
REMARK VINA RESULT:      -6.9      5.087     10.025
REMARK  Name = 
REMARK  11 active torsions:
REMARK  status: ('A' for Active; 'I' for Inactive)
REMARK    1  A    between atoms: C_1  and  C_2
REMARK    2  A    between atoms: C_2  and  N_3
REMARK    3  A    between atoms: C_5  and  C_6
REMARK    4  A    between atoms: N_8  and  C_9
REMARK    5  A    between atoms: C_9  and  C_10
REMARK    6  A    between atoms: C_10  and  N_11
REMARK    7  A    between atoms: C_17  and  C_18
REMARK    8  A    between atoms: C_21  and  C_22
REMARK    9  A    between atoms: C_22  and  C_23
REMARK   10  A    between atoms: C_22  and  C_24
REMARK   11  A    between atoms: C_22  and  C_25
REMARK                            x       y       z     vdW  Elec       q    Type
REMARK                         _______ _______ _______ _____ _____    ______ ____
ROOT
ATOM      1  N   UNL     1       0.865   9.910  20.671  0.00  0.00    +0.000 N 
ATOM      2  N   UNL     1       0.247  11.073  20.506  0.00  0.00    +0.000 NA
ATOM      3  C   UNL     1       0.284  11.350  19.196  0.00  0.00    +0.000 A 
ATOM      4  C   UNL     1       0.885  10.266  18.512  0.00  0.00    +0.000 A 
ATOM      5  C   UNL     1       1.214   9.324  19.477  0.00  0.00    +0.000 A 
ENDROOT
BRANCH   5   6
ATOM      6  C   UNL     1       1.880   8.036  19.343  0.00  0.00    +0.000 A 
ATOM      7  C   UNL     1       1.702   7.061  20.322  0.00  0.00    +0.000 A 
ATOM      8  C   UNL     1       2.247   5.787  20.156  0.00  0.00    +0.000 A 
ATOM      9  C   UNL     1       2.968   5.448  19.000  0.00  0.00    +0.000 A 
ATOM     10  C   UNL     1       3.192   6.461  18.055  0.00  0.00    +0.000 A 
ATOM     11  C   UNL     1       2.673   7.740  18.234  0.00  0.00    +0.000 A 
BRANCH   9  12
ATOM     12  C   UNL     1       3.477   4.026  18.733  0.00  0.00    +0.000 C 
ATOM     13  C   UNL     1       4.977   3.850  19.048  0.00  0.00    +0.000 C 
ATOM     14  C   UNL     1       2.695   3.040  19.628  0.00  0.00    +0.000 C 
ATOM     15  C   UNL     1       3.260   3.662  17.252  0.00  0.00    +0.000 C 
ENDBRANCH   9  12
ENDBRANCH   5   6
BRANCH   3  16
ATOM     16  C   UNL     1      -0.231  12.621  18.627  0.00  0.00    +0.000 C 
ATOM     17  O   UNL     1       0.457  13.642  18.585  0.00  0.00    +0.000 OA
ATOM     18  N   UNL     1      -1.536  12.674  18.145  0.00  0.00    +0.000 N 
ATOM     19  H   UNL     1      -1.834  13.581  17.821  0.00  0.00    +0.000 HD
BRANCH  18  20
ATOM     20  C   UNL     1      -2.470  11.565  18.221  0.00  0.00    +0.000 C 
BRANCH  20  21
ATOM     21  C   UNL     1      -3.843  11.831  18.833  0.00  0.00    +0.000 C 
BRANCH  21  22
ATOM     22  N   UNL     1      -4.894  11.146  18.049  0.00  0.00    +0.000 NA
ATOM     23  C   UNL     1      -5.174  11.852  16.793  0.00  0.00    +0.000 C 
ATOM     24  C   UNL     1      -6.237  12.865  17.168  0.00  0.00    +0.000 C 
ATOM     25  C   UNL     1      -7.119  12.086  18.123  0.00  0.00    +0.000 C 
ATOM     26  C   UNL     1      -6.194  11.049  18.742  0.00  0.00    +0.000 C 
ENDBRANCH  21  22
ENDBRANCH  20  21
ENDBRANCH  18  20
ENDBRANCH   3  16
BRANCH   1  28
ATOM     27  C   UNL     1      -0.056   9.481  22.985  0.00  0.00    +0.000 C 
ATOM     28  C   UNL     1       1.136   9.465  22.029  0.00  0.00    +0.000 C 
ENDBRANCH   1  28
TORSDOF 7
ENDMDL
MODEL 8
REMARK VINA RESULT:      -6.9      4.789      9.943
REMARK  Name = 
REMARK  11 active torsions:
REMARK  status: ('A' for Active; 'I' for Inactive)
REMARK    1  A    between atoms: C_1  and  C_2
REMARK    2  A    between atoms: C_2  and  N_3
REMARK    3  A    between atoms: C_5  and  C_6
REMARK    4  A    between atoms: N_8  and  C_9
REMARK    5  A    between atoms: C_9  and  C_10
REMARK    6  A    between atoms: C_10  and  N_11
REMARK    7  A    between atoms: C_17  and  C_18
REMARK    8  A    between atoms: C_21  and  C_22
REMARK    9  A    between atoms: C_22  and  C_23
REMARK   10  A    between atoms: C_22  and  C_24
REMARK   11  A    between atoms: C_22  and  C_25
REMARK                            x       y       z     vdW  Elec       q    Type
REMARK                         _______ _______ _______ _____ _____    ______ ____
ROOT
ATOM      1  N   UNL     1       0.836   9.629  20.212  0.00  0.00    +0.000 N 
ATOM      2  N   UNL     1       0.169  10.772  20.110  0.00  0.00    +0.000 NA
ATOM      3  C   UNL     1       0.411  11.253  18.883  0.00  0.00    +0.000 A 
ATOM      4  C   UNL     1       1.202  10.322  18.169  0.00  0.00    +0.000 A 
ATOM      5  C   UNL     1       1.430   9.256  19.029  0.00  0.00    +0.000 A 
ENDROOT
BRANCH   5   6
ATOM      6  C   UNL     1       2.205   8.039  18.831  0.00  0.00    +0.000 A 
ATOM      7  C   UNL     1       3.054   7.932  17.731  0.00  0.00    +0.000 A 
ATOM      8  C   UNL     1       3.880   6.817  17.585  0.00  0.00    +0.000 A 
ATOM      9  C   UNL     1       3.893   5.789  18.540  0.00  0.00    +0.000 A 
ATOM     10  C   UNL     1       2.984   5.883  19.606  0.00  0.00    +0.000 A 
ATOM     11  C   UNL     1       2.139   6.980  19.738  0.00  0.00    +0.000 A 
BRANCH   9  12
ATOM     12  C   UNL     1       4.871   4.610  18.471  0.00  0.00    +0.000 C 
ATOM     13  C   UNL     1       6.309   4.990  18.881  0.00  0.00    +0.000 C 
ATOM     14  C   UNL     1       4.390   3.504  19.433  0.00  0.00    +0.000 C 
ATOM     15  C   UNL     1       4.922   4.056  17.033  0.00  0.00    +0.000 C 
ENDBRANCH   9  12
ENDBRANCH   5   6
BRANCH   3  16
ATOM     16  C   UNL     1      -0.092  12.572  18.422  0.00  0.00    +0.000 C 
ATOM     17  O   UNL     1       0.521  13.617  18.645  0.00  0.00    +0.000 OA
ATOM     18  N   UNL     1      -1.303  12.639  17.738  0.00  0.00    +0.000 N 
ATOM     19  H   UNL     1      -1.607  13.571  17.500  0.00  0.00    +0.000 HD
BRANCH  18  20
ATOM     20  C   UNL     1      -2.157  11.491  17.494  0.00  0.00    +0.000 C 
BRANCH  20  21
ATOM     21  C   UNL     1      -3.284  11.218  18.486  0.00  0.00    +0.000 C 
BRANCH  21  22
ATOM     22  N   UNL     1      -4.461  12.057  18.167  0.00  0.00    +0.000 NA
ATOM     23  C   UNL     1      -5.157  12.491  19.384  0.00  0.00    +0.000 C 
ATOM     24  C   UNL     1      -6.140  11.374  19.665  0.00  0.00    +0.000 C 
ATOM     25  C   UNL     1      -6.634  11.005  18.280  0.00  0.00    +0.000 C 
ATOM     26  C   UNL     1      -5.485  11.372  17.353  0.00  0.00    +0.000 C 
ENDBRANCH  21  22
ENDBRANCH  20  21
ENDBRANCH  18  20
ENDBRANCH   3  16
BRANCH   1  28
ATOM     27  C   UNL     1      -0.282   9.251  22.447  0.00  0.00    +0.000 C 
ATOM     28  C   UNL     1       0.901   8.988  21.516  0.00  0.00    +0.000 C 
ENDBRANCH   1  28
TORSDOF 7
ENDMDL
MODEL 9
REMARK VINA RESULT:      -6.8      4.788      9.144
REMARK  Name = 
REMARK  11 active torsions:
REMARK  status: ('A' for Active; 'I' for Inactive)
REMARK    1  A    between atoms: C_1  and  C_2
REMARK    2  A    between atoms: C_2  and  N_3
REMARK    3  A    between atoms: C_5  and  C_6
REMARK    4  A    between atoms: N_8  and  C_9
REMARK    5  A    between atoms: C_9  and  C_10
REMARK    6  A    between atoms: C_10  and  N_11
REMARK    7  A    between atoms: C_17  and  C_18
REMARK    8  A    between atoms: C_21  and  C_22
REMARK    9  A    between atoms: C_22  and  C_23
REMARK   10  A    between atoms: C_22  and  C_24
REMARK   11  A    between atoms: C_22  and  C_25
REMARK                            x       y       z     vdW  Elec       q    Type
REMARK                         _______ _______ _______ _____ _____    ______ ____
ROOT
ATOM      1  N   UNL     1       0.736   9.532  20.478  0.00  0.00    +0.000 N 
ATOM      2  N   UNL     1       0.069  10.680  20.473  0.00  0.00    +0.000 NA
ATOM      3  C   UNL     1       0.313  11.264  19.292  0.00  0.00    +0.000 A 
ATOM      4  C   UNL     1       1.106  10.396  18.502  0.00  0.00    +0.000 A 
ATOM      5  C   UNL     1       1.332   9.261  19.270  0.00  0.00    +0.000 A 
ENDROOT
BRANCH   5   6
ATOM      6  C   UNL     1       2.107   8.065  18.970  0.00  0.00    +0.000 A 
ATOM      7  C   UNL     1       2.870   8.010  17.805  0.00  0.00    +0.000 A 
ATOM      8  C   UNL     1       3.699   6.915  17.557  0.00  0.00    +0.000 A 
ATOM      9  C   UNL     1       3.801   5.856  18.472  0.00  0.00    +0.000 A 
ATOM     10  C   UNL     1       2.976   5.898  19.607  0.00  0.00    +0.000 A 
ATOM     11  C   UNL     1       2.128   6.976  19.842  0.00  0.00    +0.000 A 
BRANCH   9  12
ATOM     12  C   UNL     1       4.788   4.698  18.286  0.00  0.00    +0.000 C 
ATOM     13  C   UNL     1       6.236   5.067  18.669  0.00  0.00    +0.000 C 
ATOM     14  C   UNL     1       4.355   3.522  19.188  0.00  0.00    +0.000 C 
ATOM     15  C   UNL     1       4.792   4.244  16.813  0.00  0.00    +0.000 C 
ENDBRANCH   9  12
ENDBRANCH   5   6
BRANCH   3  16
ATOM     16  C   UNL     1      -0.189  12.616  18.944  0.00  0.00    +0.000 C 
ATOM     17  O   UNL     1       0.568  13.581  18.820  0.00  0.00    +0.000 OA
ATOM     18  N   UNL     1      -1.557  12.813  18.773  0.00  0.00    +0.000 N 
ATOM     19  H   UNL     1      -1.831  13.767  18.589  0.00  0.00    +0.000 HD
BRANCH  18  20
ATOM     20  C   UNL     1      -2.553  11.778  18.979  0.00  0.00    +0.000 C 
BRANCH  20  21
ATOM     21  C   UNL     1      -3.861  11.883  18.199  0.00  0.00    +0.000 C 
BRANCH  21  22
ATOM     22  N   UNL     1      -4.117  10.628  17.458  0.00  0.00    +0.000 NA
ATOM     23  C   UNL     1      -3.034   9.656  17.657  0.00  0.00    +0.000 C 
ATOM     24  C   UNL     1      -2.034   9.991  16.569  0.00  0.00    +0.000 C 
ATOM     25  C   UNL     1      -2.923  10.305  15.382  0.00  0.00    +0.000 C 
ATOM     26  C   UNL     1      -4.222  10.803  15.996  0.00  0.00    +0.000 C 
ENDBRANCH  21  22
ENDBRANCH  20  21
ENDBRANCH  18  20
ENDBRANCH   3  16
BRANCH   1  28
ATOM     27  C   UNL     1       0.115   9.432  22.926  0.00  0.00    +0.000 C 
ATOM     28  C   UNL     1       0.799   8.783  21.724  0.00  0.00    +0.000 C 
ENDBRANCH   1  28
TORSDOF 7
ENDMDL
