MODEL 1
REMARK VINA RESULT:      -7.4      0.000      0.000
REMARK  Name = 
REMARK  5 active torsions:
REMARK  status: ('A' for Active; 'I' for Inactive)
REMARK    1  A    between atoms: C_1  and  O_2
REMARK    2  A    between atoms: O_2  and  C_3
REMARK    3  A    between atoms: C_6  and  N_7
REMARK    4  A    between atoms: C_26  and  O_27
REMARK    5  A    between atoms: O_27  and  C_28
REMARK                            x       y       z     vdW  Elec       q    Type
REMARK                         _______ _______ _______ _____ _____    ______ ____
ROOT
ATOM      1  N   UNL     1      -3.313  13.367  19.778  0.00  0.00    +0.000 N 
ATOM      2  C   UNL     1      -2.106  13.128  20.433  0.00  0.00    +0.000 A 
ATOM      3  N   UNL     1      -1.454  14.225  20.845  0.00  0.00    +0.000 NA
ATOM      4  C   UNL     1      -0.142  14.092  21.064  0.00  0.00    +0.000 A 
ATOM      5  C   UNL     1       0.520  12.907  20.853  0.00  0.00    +0.000 A 
ATOM      6  C   UNL     1      -0.259  11.781  20.685  0.00  0.00    +0.000 A 
ATOM      7  N   UNL     1      -1.577  11.884  20.468  0.00  0.00    +0.000 NA
ATOM      8  C   UNL     1       0.376  10.489  20.372  0.00  0.00    +0.000 A 
ATOM      9  C   UNL     1       0.397   9.427  21.287  0.00  0.00    +0.000 A 
ATOM     10  C   UNL     1       1.065   8.235  20.975  0.00  0.00    +0.000 A 
ATOM     11  C   UNL     1       1.630   8.062  19.710  0.00  0.00    +0.000 A 
ATOM     12  I   UNL     1       2.647   6.305  19.256  0.00  0.00    +0.000 I 
ATOM     13  C   UNL     1       1.597   9.091  18.774  0.00  0.00    +0.000 A 
ATOM     14  C   UNL     1       1.068  10.327  19.152  0.00  0.00    +0.000 A 
ATOM     15  N   UNL     1       1.387  11.431  18.339  0.00  0.00    +0.000 N 
ATOM     16  C   UNL     1       1.825  12.655  18.808  0.00  0.00    +0.000 C 
ATOM     17  O   UNL     1       2.150  13.533  18.013  0.00  0.00    +0.000 OA
ATOM     18  C   UNL     1       1.920  12.874  20.329  0.00  0.00    +0.000 C 
ATOM     19  H   UNL     1      -3.515  14.353  19.753  0.00  0.00    +0.000 HD
ATOM     20  H   UNL     1       1.527  11.295  17.346  0.00  0.00    +0.000 HD
ENDROOT
BRANCH   1  24
ATOM     21  C   UNL     1      -6.399  10.578  19.194  0.00  0.00    +0.000 A 
ATOM     22  C   UNL     1      -5.521  10.902  18.164  0.00  0.00    +0.000 A 
ATOM     23  C   UNL     1      -4.520  11.847  18.338  0.00  0.00    +0.000 A 
ATOM     24  C   UNL     1      -4.382  12.497  19.564  0.00  0.00    +0.000 A 
ATOM     25  C   UNL     1      -5.340  12.290  20.547  0.00  0.00    +0.000 A 
ATOM     26  C   UNL     1      -6.361  11.335  20.380  0.00  0.00    +0.000 A 
BRANCH  21  28
ATOM     27  C   UNL     1      -7.063   8.481  20.002  0.00  0.00    +0.000 C 
ATOM     28  O   UNL     1      -7.270   9.535  19.055  0.00  0.00    +0.000 OA
ENDBRANCH  21  28
BRANCH  26  29
ATOM     29  O   UNL     1      -7.193  11.262  21.470  0.00  0.00    +0.000 OA
ATOM     30  C   UNL     1      -7.916  12.421  21.855  0.00  0.00    +0.000 C 
ENDBRANCH  26  29
ENDBRANCH   1  24
TORSDOF 3
ENDMDL
MODEL 2
REMARK VINA RESULT:      -7.0      3.746      8.244
REMARK  Name = 
REMARK  5 active torsions:
REMARK  status: ('A' for Active; 'I' for Inactive)
REMARK    1  A    between atoms: C_1  and  O_2
REMARK    2  A    between atoms: O_2  and  C_3
REMARK    3  A    between atoms: C_6  and  N_7
REMARK    4  A    between atoms: C_26  and  O_27
REMARK    5  A    between atoms: O_27  and  C_28
REMARK                            x       y       z     vdW  Elec       q    Type
REMARK                         _______ _______ _______ _____ _____    ______ ____
ROOT
ATOM      1  N   UNL     1       2.694  12.907  17.851  0.00  0.00    +0.000 N 
ATOM      2  C   UNL     1       1.908  11.925  18.453  0.00  0.00    +0.000 A 
ATOM      3  N   UNL     1       2.021  10.699  17.920  0.00  0.00    +0.000 NA
ATOM      4  C   UNL     1       1.009   9.856  18.146  0.00  0.00    +0.000 A 
ATOM      5  C   UNL     1      -0.107  10.224  18.859  0.00  0.00    +0.000 A 
ATOM      6  C   UNL     1      -0.025  11.396  19.582  0.00  0.00    +0.000 A 
ATOM      7  N   UNL     1       0.981  12.258  19.379  0.00  0.00    +0.000 NA
ATOM      8  C   UNL     1      -1.206  11.898  20.304  0.00  0.00    +0.000 A 
ATOM      9  C   UNL     1      -1.273  11.914  21.705  0.00  0.00    +0.000 A 
ATOM     10  C   UNL     1      -2.439  12.342  22.354  0.00  0.00    +0.000 A 
ATOM     11  C   UNL     1      -3.507  12.847  21.610  0.00  0.00    +0.000 A 
ATOM     12  I   UNL     1      -5.249  13.455  22.572  0.00  0.00    +0.000 I 
ATOM     13  C   UNL     1      -3.453  12.868  20.220  0.00  0.00    +0.000 A 
ATOM     14  C   UNL     1      -2.352  12.295  19.581  0.00  0.00    +0.000 A 
ATOM     15  N   UNL     1      -2.496  11.991  18.214  0.00  0.00    +0.000 N 
ATOM     16  C   UNL     1      -2.136  10.792  17.630  0.00  0.00    +0.000 C 
ATOM     17  O   UNL     1      -2.371  10.596  16.440  0.00  0.00    +0.000 OA
ATOM     18  C   UNL     1      -1.467   9.714  18.504  0.00  0.00    +0.000 C 
ATOM     19  H   UNL     1       3.256  12.512  17.115  0.00  0.00    +0.000 HD
ATOM     20  H   UNL     1      -3.091  12.570  17.635  0.00  0.00    +0.000 HD
ENDROOT
BRANCH   1  24
ATOM     21  C   UNL     1       4.107  16.590  19.293  0.00  0.00    +0.000 A 
ATOM     22  C   UNL     1       4.222  15.431  20.054  0.00  0.00    +0.000 A 
ATOM     23  C   UNL     1       3.728  14.217  19.601  0.00  0.00    +0.000 A 
ATOM     24  C   UNL     1       3.096  14.142  18.359  0.00  0.00    +0.000 A 
ATOM     25  C   UNL     1       2.845  15.315  17.660  0.00  0.00    +0.000 A 
ATOM     26  C   UNL     1       3.341  16.553  18.112  0.00  0.00    +0.000 A 
BRANCH  21  28
ATOM     27  C   UNL     1       6.161  17.606  19.780  0.00  0.00    +0.000 C 
ATOM     28  O   UNL     1       4.739  17.737  19.683  0.00  0.00    +0.000 OA
ENDBRANCH  21  28
BRANCH  26  29
ATOM     29  O   UNL     1       3.008  17.588  17.274  0.00  0.00    +0.000 OA
ATOM     30  C   UNL     1       1.641  17.940  17.134  0.00  0.00    +0.000 C 
ENDBRANCH  26  29
ENDBRANCH   1  24
TORSDOF 3
ENDMDL
MODEL 3
REMARK VINA RESULT:      -6.9      3.708      8.350
REMARK  Name = 
REMARK  5 active torsions:
REMARK  status: ('A' for Active; 'I' for Inactive)
REMARK    1  A    between atoms: C_1  and  O_2
REMARK    2  A    between atoms: O_2  and  C_3
REMARK    3  A    between atoms: C_6  and  N_7
REMARK    4  A    between atoms: C_26  and  O_27
REMARK    5  A    between atoms: O_27  and  C_28
REMARK                            x       y       z     vdW  Elec       q    Type
REMARK                         _______ _______ _______ _____ _____    ______ ____
ROOT
ATOM      1  N   UNL     1       2.460  14.746  19.318  0.00  0.00    +0.000 N 
ATOM      2  C   UNL     1       1.572  13.791  18.823  0.00  0.00    +0.000 A 
ATOM      3  N   UNL     1       0.308  14.211  18.673  0.00  0.00    +0.000 NA
ATOM      4  C   UNL     1      -0.635  13.264  18.635  0.00  0.00    +0.000 A 
ATOM      5  C   UNL     1      -0.338  11.930  18.770  0.00  0.00    +0.000 A 
ATOM      6  C   UNL     1       0.989  11.572  18.657  0.00  0.00    +0.000 A 
ATOM      7  N   UNL     1       1.955  12.501  18.688  0.00  0.00    +0.000 NA
ATOM      8  C   UNL     1       1.394  10.173  18.872  0.00  0.00    +0.000 A 
ATOM      9  C   UNL     1       1.859   9.362  17.827  0.00  0.00    +0.000 A 
ATOM     10  C   UNL     1       2.177   8.017  18.061  0.00  0.00    +0.000 A 
ATOM     11  C   UNL     1       2.124   7.502  19.357  0.00  0.00    +0.000 A 
ATOM     12  I   UNL     1       2.566   5.498  19.700  0.00  0.00    +0.000 I 
ATOM     13  C   UNL     1       1.693   8.295  20.415  0.00  0.00    +0.000 A 
ATOM     14  C   UNL     1       1.230   9.584  20.145  0.00  0.00    +0.000 A 
ATOM     15  N   UNL     1       0.463  10.209  21.146  0.00  0.00    +0.000 N 
ATOM     16  C   UNL     1      -0.734  10.865  20.929  0.00  0.00    +0.000 C 
ATOM     17  O   UNL     1      -1.367  11.314  21.881  0.00  0.00    +0.000 OA
ATOM     18  C   UNL     1      -1.257  10.991  19.486  0.00  0.00    +0.000 C 
ATOM     19  H   UNL     1       1.994  15.628  19.454  0.00  0.00    +0.000 HD
ATOM     20  H   UNL     1       0.649  10.002  22.119  0.00  0.00    +0.000 HD
ENDROOT
BRANCH   1  24
ATOM     21  C   UNL     1       6.641  15.043  19.058  0.00  0.00    +0.000 A 
ATOM     22  C   UNL     1       5.868  14.808  17.926  0.00  0.00    +0.000 A 
ATOM     23  C   UNL     1       4.489  14.674  18.006  0.00  0.00    +0.000 A 
ATOM     24  C   UNL     1       3.852  14.771  19.244  0.00  0.00    +0.000 A 
ATOM     25  C   UNL     1       4.625  14.858  20.394  0.00  0.00    +0.000 A 
ATOM     26  C   UNL     1       6.025  14.992  20.323  0.00  0.00    +0.000 A 
BRANCH  21  28
ATOM     27  C   UNL     1       8.796  14.175  18.753  0.00  0.00    +0.000 C 
ATOM     28  O   UNL     1       7.972  15.331  18.936  0.00  0.00    +0.000 OA
ENDBRANCH  21  28
BRANCH  26  29
ATOM     29  O   UNL     1       6.606  15.086  21.563  0.00  0.00    +0.000 OA
ATOM     30  C   UNL     1       7.060  13.901  22.196  0.00  0.00    +0.000 C 
ENDBRANCH  26  29
ENDBRANCH   1  24
TORSDOF 3
ENDMDL
MODEL 4
REMARK VINA RESULT:      -6.9      1.028      1.878
REMARK  Name = 
REMARK  5 active torsions:
REMARK  status: ('A' for Active; 'I' for Inactive)
REMARK    1  A    between atoms: C_1  and  O_2
REMARK    2  A    between atoms: O_2  and  C_3
REMARK    3  A    between atoms: C_6  and  N_7
REMARK    4  A    between atoms: C_26  and  O_27
REMARK    5  A    between atoms: O_27  and  C_28
REMARK                            x       y       z     vdW  Elec       q    Type
REMARK                         _______ _______ _______ _____ _____    ______ ____
ROOT
ATOM      1  N   UNL     1      -2.966  13.964  20.698  0.00  0.00    +0.000 N 
ATOM      2  C   UNL     1      -1.679  13.632  21.120  0.00  0.00    +0.000 A 
ATOM      3  N   UNL     1      -0.924  14.667  21.516  0.00  0.00    +0.000 NA
ATOM      4  C   UNL     1       0.400  14.479  21.502  0.00  0.00    +0.000 A 
ATOM      5  C   UNL     1       0.968  13.302  21.079  0.00  0.00    +0.000 A 
ATOM      6  C   UNL     1       0.126  12.218  20.942  0.00  0.00    +0.000 A 
ATOM      7  N   UNL     1      -1.205  12.376  20.956  0.00  0.00    +0.000 NA
ATOM      8  C   UNL     1       0.646  10.946  20.413  0.00  0.00    +0.000 A 
ATOM      9  C   UNL     1       0.772   9.801  21.214  0.00  0.00    +0.000 A 
ATOM     10  C   UNL     1       1.329   8.627  20.690  0.00  0.00    +0.000 A 
ATOM     11  C   UNL     1       1.674   8.560  19.339  0.00  0.00    +0.000 A 
ATOM     12  I   UNL     1       2.529   6.827  18.567  0.00  0.00    +0.000 I 
ATOM     13  C   UNL     1       1.533   9.674  18.517  0.00  0.00    +0.000 A 
ATOM     14  C   UNL     1       1.125  10.882  19.086  0.00  0.00    +0.000 A 
ATOM     15  N   UNL     1       1.353  12.050  18.334  0.00  0.00    +0.000 N 
ATOM     16  C   UNL     1       1.913  13.211  18.831  0.00  0.00    +0.000 C 
ATOM     17  O   UNL     1       2.141  14.152  18.076  0.00  0.00    +0.000 OA
ATOM     18  C   UNL     1       2.263  13.281  20.330  0.00  0.00    +0.000 C 
ATOM     19  H   UNL     1      -3.128  14.953  20.795  0.00  0.00    +0.000 HD
ATOM     20  H   UNL     1       1.324  12.005  17.323  0.00  0.00    +0.000 HD
ENDROOT
BRANCH   1  24
ATOM     21  C   UNL     1      -6.474  11.688  20.311  0.00  0.00    +0.000 A 
ATOM     22  C   UNL     1      -6.120  12.256  21.530  0.00  0.00    +0.000 A 
ATOM     23  C   UNL     1      -4.946  12.981  21.676  0.00  0.00    +0.000 A 
ATOM     24  C   UNL     1      -4.091  13.148  20.587  0.00  0.00    +0.000 A 
ATOM     25  C   UNL     1      -4.360  12.464  19.409  0.00  0.00    +0.000 A 
ATOM     26  C   UNL     1      -5.548  11.723  19.252  0.00  0.00    +0.000 A 
BRANCH  21  28
ATOM     27  C   UNL     1      -7.805   9.798  20.693  0.00  0.00    +0.000 C 
ATOM     28  O   UNL     1      -7.705  11.118  20.148  0.00  0.00    +0.000 OA
ENDBRANCH  21  28
BRANCH  26  29
ATOM     29  O   UNL     1      -5.641  11.141  18.012  0.00  0.00    +0.000 OA
ATOM     30  C   UNL     1      -4.881  11.684  16.944  0.00  0.00    +0.000 C 
ENDBRANCH  26  29
ENDBRANCH   1  24
TORSDOF 3
ENDMDL
MODEL 5
REMARK VINA RESULT:      -6.7      5.020      6.688
REMARK  Name = 
REMARK  5 active torsions:
REMARK  status: ('A' for Active; 'I' for Inactive)
REMARK    1  A    between atoms: C_1  and  O_2
REMARK    2  A    between atoms: O_2  and  C_3
REMARK    3  A    between atoms: C_6  and  N_7
REMARK    4  A    between atoms: C_26  and  O_27
REMARK    5  A    between atoms: O_27  and  C_28
REMARK                            x       y       z     vdW  Elec       q    Type
REMARK                         _______ _______ _______ _____ _____    ______ ____
ROOT
ATOM      1  N   UNL     1       0.447  11.882  18.478  0.00  0.00    +0.000 N 
ATOM      2  C   UNL     1       0.826  13.096  19.049  0.00  0.00    +0.000 A 
ATOM      3  N   UNL     1      -0.017  14.116  18.833  0.00  0.00    +0.000 NA
ATOM      4  C   UNL     1       0.489  15.346  18.962  0.00  0.00    +0.000 A 
ATOM      5  C   UNL     1       1.810  15.566  19.272  0.00  0.00    +0.000 A 
ATOM      6  C   UNL     1       2.531  14.483  19.729  0.00  0.00    +0.000 A 
ATOM      7  N   UNL     1       2.046  13.238  19.616  0.00  0.00    +0.000 NA
ATOM      8  C   UNL     1       3.971  14.621  20.002  0.00  0.00    +0.000 A 
ATOM      9  C   UNL     1       4.492  14.570  21.304  0.00  0.00    +0.000 A 
ATOM     10  C   UNL     1       5.862  14.767  21.527  0.00  0.00    +0.000 A 
ATOM     11  C   UNL     1       6.731  14.920  20.446  0.00  0.00    +0.000 A 
ATOM     12  I   UNL     1       8.759  15.243  20.778  0.00  0.00    +0.000 I 
ATOM     13  C   UNL     1       6.241  14.945  19.143  0.00  0.00    +0.000 A 
ATOM     14  C   UNL     1       4.861  14.905  18.943  0.00  0.00    +0.000 A 
ATOM     15  N   UNL     1       4.388  15.309  17.680  0.00  0.00    +0.000 N 
ATOM     16  C   UNL     1       3.338  16.182  17.473  0.00  0.00    +0.000 C 
ATOM     17  O   UNL     1       3.049  16.531  16.331  0.00  0.00    +0.000 OA
ATOM     18  C   UNL     1       2.569  16.718  18.695  0.00  0.00    +0.000 C 
ATOM     19  H   UNL     1      -0.441  11.971  18.011  0.00  0.00    +0.000 HD
ATOM     20  H   UNL     1       4.958  15.147  16.859  0.00  0.00    +0.000 HD
ENDROOT
BRANCH   1  24
ATOM     21  C   UNL     1       1.908   8.080  19.503  0.00  0.00    +0.000 A 
ATOM     22  C   UNL     1       2.028   8.569  18.206  0.00  0.00    +0.000 A 
ATOM     23  C   UNL     1       1.519   9.809  17.849  0.00  0.00    +0.000 A 
ATOM     24  C   UNL     1       0.865  10.592  18.801  0.00  0.00    +0.000 A 
ATOM     25  C   UNL     1       0.610  10.054  20.056  0.00  0.00    +0.000 A 
ATOM     26  C   UNL     1       1.122   8.795  20.426  0.00  0.00    +0.000 A 
BRANCH  21  28
ATOM     27  C   UNL     1       3.185   6.254  18.781  0.00  0.00    +0.000 C 
ATOM     28  O   UNL     1       2.554   6.934  19.871  0.00  0.00    +0.000 OA
ENDBRANCH  21  28
BRANCH  26  29
ATOM     29  O   UNL     1       0.781   8.450  21.710  0.00  0.00    +0.000 OA
ATOM     30  C   UNL     1       0.022   9.364  22.485  0.00  0.00    +0.000 C 
ENDBRANCH  26  29
ENDBRANCH   1  24
TORSDOF 3
ENDMDL
MODEL 6
REMARK VINA RESULT:      -6.7      3.864      8.699
REMARK  Name = 
REMARK  5 active torsions:
REMARK  status: ('A' for Active; 'I' for Inactive)
REMARK    1  A    between atoms: C_1  and  O_2
REMARK    2  A    between atoms: O_2  and  C_3
REMARK    3  A    between atoms: C_6  and  N_7
REMARK    4  A    between atoms: C_26  and  O_27
REMARK    5  A    between atoms: O_27  and  C_28
REMARK                            x       y       z     vdW  Elec       q    Type
REMARK                         _______ _______ _______ _____ _____    ______ ____
ROOT
ATOM      1  N   UNL     1       2.981  13.212  17.696  0.00  0.00    +0.000 N 
ATOM      2  C   UNL     1       2.253  12.271  18.423  0.00  0.00    +0.000 A 
ATOM      3  N   UNL     1       2.251  11.032  17.912  0.00  0.00    +0.000 NA
ATOM      4  C   UNL     1       1.252  10.230  18.294  0.00  0.00    +0.000 A 
ATOM      5  C   UNL     1       0.258  10.653  19.143  0.00  0.00    +0.000 A 
ATOM      6  C   UNL     1       0.476  11.836  19.817  0.00  0.00    +0.000 A 
ATOM      7  N   UNL     1       1.473  12.657  19.458  0.00  0.00    +0.000 NA
ATOM      8  C   UNL     1      -0.578  12.395  20.680  0.00  0.00    +0.000 A 
ATOM      9  C   UNL     1      -0.453  12.442  22.076  0.00  0.00    +0.000 A 
ATOM     10  C   UNL     1      -1.505  12.926  22.866  0.00  0.00    +0.000 A 
ATOM     11  C   UNL     1      -2.647  13.454  22.262  0.00  0.00    +0.000 A 
ATOM     12  I   UNL     1      -4.220  14.143  23.435  0.00  0.00    +0.000 I 
ATOM     13  C   UNL     1      -2.782  13.443  20.877  0.00  0.00    +0.000 A 
ATOM     14  C   UNL     1      -1.799  12.818  20.109  0.00  0.00    +0.000 A 
ATOM     15  N   UNL     1      -2.138  12.491  18.783  0.00  0.00    +0.000 N 
ATOM     16  C   UNL     1      -1.901  11.268  18.186  0.00  0.00    +0.000 C 
ATOM     17  O   UNL     1      -2.303  11.056  17.045  0.00  0.00    +0.000 OA
ATOM     18  C   UNL     1      -1.155  10.186  18.989  0.00  0.00    +0.000 C 
ATOM     19  H   UNL     1       3.424  12.781  16.901  0.00  0.00    +0.000 HD
ATOM     20  H   UNL     1      -2.787  13.079  18.275  0.00  0.00    +0.000 HD
ENDROOT
BRANCH   1  24
ATOM     21  C   UNL     1       4.507  16.840  19.163  0.00  0.00    +0.000 A 
ATOM     22  C   UNL     1       3.135  16.628  19.059  0.00  0.00    +0.000 A 
ATOM     23  C   UNL     1       2.623  15.447  18.544  0.00  0.00    +0.000 A 
ATOM     24  C   UNL     1       3.489  14.442  18.113  0.00  0.00    +0.000 A 
ATOM     25  C   UNL     1       4.853  14.699  18.075  0.00  0.00    +0.000 A 
ATOM     26  C   UNL     1       5.383  15.897  18.593  0.00  0.00    +0.000 A 
BRANCH  21  28
ATOM     27  C   UNL     1       4.977  17.808  21.244  0.00  0.00    +0.000 C 
ATOM     28  O   UNL     1       4.987  17.938  19.818  0.00  0.00    +0.000 OA
ENDBRANCH  21  28
BRANCH  26  29
ATOM     29  O   UNL     1       6.750  15.953  18.485  0.00  0.00    +0.000 OA
ATOM     30  C   UNL     1       7.443  14.820  17.987  0.00  0.00    +0.000 C 
ENDBRANCH  26  29
ENDBRANCH   1  24
TORSDOF 3
ENDMDL
MODEL 7
REMARK VINA RESULT:      -6.5      3.796      8.102
REMARK  Name = 
REMARK  5 active torsions:
REMARK  status: ('A' for Active; 'I' for Inactive)
REMARK    1  A    between atoms: C_1  and  O_2
REMARK    2  A    between atoms: O_2  and  C_3
REMARK    3  A    between atoms: C_6  and  N_7
REMARK    4  A    between atoms: C_26  and  O_27
REMARK    5  A    between atoms: O_27  and  C_28
REMARK                            x       y       z     vdW  Elec       q    Type
REMARK                         _______ _______ _______ _____ _____    ______ ____
ROOT
ATOM      1  N   UNL     1       2.874  13.017  17.956  0.00  0.00    +0.000 N 
ATOM      2  C   UNL     1       2.075  12.028  18.528  0.00  0.00    +0.000 A 
ATOM      3  N   UNL     1       2.118  10.836  17.917  0.00  0.00    +0.000 NA
ATOM      4  C   UNL     1       1.083  10.017  18.133  0.00  0.00    +0.000 A 
ATOM      5  C   UNL     1       0.014  10.380  18.916  0.00  0.00    +0.000 A 
ATOM      6  C   UNL     1       0.171  11.500  19.706  0.00  0.00    +0.000 A 
ATOM      7  N   UNL     1       1.201  12.336  19.513  0.00  0.00    +0.000 NA
ATOM      8  C   UNL     1      -0.959  11.998  20.508  0.00  0.00    +0.000 A 
ATOM      9  C   UNL     1      -0.967  11.927  21.909  0.00  0.00    +0.000 A 
ATOM     10  C   UNL     1      -2.088  12.356  22.633  0.00  0.00    +0.000 A 
ATOM     11  C   UNL     1      -3.165  12.946  21.970  0.00  0.00    +0.000 A 
ATOM     12  I   UNL     1      -4.841  13.554  23.041  0.00  0.00    +0.000 I 
ATOM     13  C   UNL     1      -3.167  13.053  20.582  0.00  0.00    +0.000 A 
ATOM     14  C   UNL     1      -2.117  12.482  19.861  0.00  0.00    +0.000 A 
ATOM     15  N   UNL     1      -2.329  12.271  18.486  0.00  0.00    +0.000 N 
ATOM     16  C   UNL     1      -2.041  11.099  17.814  0.00  0.00    +0.000 C 
ATOM     17  O   UNL     1      -2.332  10.987  16.626  0.00  0.00    +0.000 OA
ATOM     18  C   UNL     1      -1.380   9.944  18.590  0.00  0.00    +0.000 C 
ATOM     19  H   UNL     1       3.389  12.649  17.173  0.00  0.00    +0.000 HD
ATOM     20  H   UNL     1      -2.924  12.906  17.970  0.00  0.00    +0.000 HD
ENDROOT
BRANCH   1  24
ATOM     21  C   UNL     1       4.087  16.675  19.626  0.00  0.00    +0.000 A 
ATOM     22  C   UNL     1       4.207  16.435  18.260  0.00  0.00    +0.000 A 
ATOM     23  C   UNL     1       3.841  15.218  17.705  0.00  0.00    +0.000 A 
ATOM     24  C   UNL     1       3.344  14.202  18.521  0.00  0.00    +0.000 A 
ATOM     25  C   UNL     1       3.359  14.377  19.898  0.00  0.00    +0.000 A 
ATOM     26  C   UNL     1       3.731  15.608  20.472  0.00  0.00    +0.000 A 
BRANCH  21  28
ATOM     27  C   UNL     1       5.657  18.170  20.514  0.00  0.00    +0.000 C 
ATOM     28  O   UNL     1       4.300  17.928  20.127  0.00  0.00    +0.000 OA
ENDBRANCH  21  28
BRANCH  26  29
ATOM     29  O   UNL     1       3.659  15.589  21.843  0.00  0.00    +0.000 OA
ATOM     30  C   UNL     1       2.429  15.923  22.466  0.00  0.00    +0.000 C 
ENDBRANCH  26  29
ENDBRANCH   1  24
TORSDOF 3
ENDMDL
MODEL 8
REMARK VINA RESULT:      -6.5      4.020      7.770
REMARK  Name = 
REMARK  5 active torsions:
REMARK  status: ('A' for Active; 'I' for Inactive)
REMARK    1  A    between atoms: C_1  and  O_2
REMARK    2  A    between atoms: O_2  and  C_3
REMARK    3  A    between atoms: C_6  and  N_7
REMARK    4  A    between atoms: C_26  and  O_27
REMARK    5  A    between atoms: O_27  and  C_28
REMARK                            x       y       z     vdW  Elec       q    Type
REMARK                         _______ _______ _______ _____ _____    ______ ____
ROOT
ATOM      1  N   UNL     1      -3.625  11.700  17.196  0.00  0.00    +0.000 N 
ATOM      2  C   UNL     1      -4.772  12.020  17.920  0.00  0.00    +0.000 A 
ATOM      3  N   UNL     1      -5.920  11.945  17.232  0.00  0.00    +0.000 NA
ATOM      4  C   UNL     1      -6.953  12.641  17.717  0.00  0.00    +0.000 A 
ATOM      5  C   UNL     1      -6.847  13.420  18.844  0.00  0.00    +0.000 A 
ATOM      6  C   UNL     1      -5.725  13.236  19.625  0.00  0.00    +0.000 A 
ATOM      7  N   UNL     1      -4.676  12.539  19.166  0.00  0.00    +0.000 NA
ATOM      8  C   UNL     1      -5.501  14.091  20.802  0.00  0.00    +0.000 A 
ATOM      9  C   UNL     1      -5.580  13.595  22.111  0.00  0.00    +0.000 A 
ATOM     10  C   UNL     1      -5.421  14.454  23.207  0.00  0.00    +0.000 A 
ATOM     11  C   UNL     1      -5.087  15.794  23.001  0.00  0.00    +0.000 A 
ATOM     12  I   UNL     1      -4.880  17.077  24.625  0.00  0.00    +0.000 I 
ATOM     13  C   UNL     1      -4.975  16.304  21.711  0.00  0.00    +0.000 A 
ATOM     14  C   UNL     1      -5.289  15.477  20.631  0.00  0.00    +0.000 A 
ATOM     15  N   UNL     1      -5.534  16.107  19.396  0.00  0.00    +0.000 N 
ATOM     16  C   UNL     1      -6.606  15.832  18.569  0.00  0.00    +0.000 C 
ATOM     17  O   UNL     1      -6.773  16.491  17.546  0.00  0.00    +0.000 OA
ATOM     18  C   UNL     1      -7.585  14.715  18.974  0.00  0.00    +0.000 C 
ATOM     19  H   UNL     1      -3.862  11.426  16.257  0.00  0.00    +0.000 HD
ATOM     20  H   UNL     1      -5.047  16.965  19.169  0.00  0.00    +0.000 HD
ENDROOT
BRANCH   1  24
ATOM     21  C   UNL     1       0.245  10.607  18.410  0.00  0.00    +0.000 A 
ATOM     22  C   UNL     1      -0.622   9.672  17.853  0.00  0.00    +0.000 A 
ATOM     23  C   UNL     1      -1.914  10.016  17.481  0.00  0.00    +0.000 A 
ATOM     24  C   UNL     1      -2.367  11.322  17.667  0.00  0.00    +0.000 A 
ATOM     25  C   UNL     1      -1.564  12.222  18.354  0.00  0.00    +0.000 A 
ATOM     26  C   UNL     1      -0.253  11.882  18.739  0.00  0.00    +0.000 A 
BRANCH  21  28
ATOM     27  C   UNL     1       2.001   9.152  17.872  0.00  0.00    +0.000 C 
ATOM     28  O   UNL     1       1.557  10.290  18.619  0.00  0.00    +0.000 OA
ENDBRANCH  21  28
BRANCH  26  29
ATOM     29  O   UNL     1       0.386  12.911  19.385  0.00  0.00    +0.000 OA
ATOM     30  C   UNL     1       0.447  12.893  20.802  0.00  0.00    +0.000 C 
ENDBRANCH  26  29
ENDBRANCH   1  24
TORSDOF 3
ENDMDL
MODEL 9
REMARK VINA RESULT:      -6.4      3.875      7.935
REMARK  Name = 
REMARK  5 active torsions:
REMARK  status: ('A' for Active; 'I' for Inactive)
REMARK    1  A    between atoms: C_1  and  O_2
REMARK    2  A    between atoms: O_2  and  C_3
REMARK    3  A    between atoms: C_6  and  N_7
REMARK    4  A    between atoms: C_26  and  O_27
REMARK    5  A    between atoms: O_27  and  C_28
REMARK                            x       y       z     vdW  Elec       q    Type
REMARK                         _______ _______ _______ _____ _____    ______ ____
ROOT
ATOM      1  N   UNL     1       0.779   7.904  20.488  0.00  0.00    +0.000 N 
ATOM      2  C   UNL     1       0.671   9.093  21.207  0.00  0.00    +0.000 A 
ATOM      3  N   UNL     1      -0.205   9.069  22.221  0.00  0.00    +0.000 NA
ATOM      4  C   UNL     1      -0.664  10.252  22.642  0.00  0.00    +0.000 A 
ATOM      5  C   UNL     1      -0.285  11.435  22.054  0.00  0.00    +0.000 A 
ATOM      6  C   UNL     1       0.802  11.390  21.207  0.00  0.00    +0.000 A 
ATOM      7  N   UNL     1       1.285  10.217  20.772  0.00  0.00    +0.000 NA
ATOM      8  C   UNL     1       1.215  12.599  20.476  0.00  0.00    +0.000 A 
ATOM      9  C   UNL     1       2.411  13.273  20.764  0.00  0.00    +0.000 A 
ATOM     10  C   UNL     1       2.738  14.457  20.089  0.00  0.00    +0.000 A 
ATOM     11  C   UNL     1       1.922  14.920  19.056  0.00  0.00    +0.000 A 
ATOM     12  I   UNL     1       2.392  16.692  18.073  0.00  0.00    +0.000 I 
ATOM     13  C   UNL     1       0.744  14.253  18.732  0.00  0.00    +0.000 A 
ATOM     14  C   UNL     1       0.349  13.167  19.515  0.00  0.00    +0.000 A 
ATOM     15  N   UNL     1      -0.995  12.762  19.412  0.00  0.00    +0.000 N 
ATOM     16  C   UNL     1      -1.823  12.495  20.485  0.00  0.00    +0.000 C 
ATOM     17  O   UNL     1      -3.005  12.220  20.292  0.00  0.00    +0.000 OA
ATOM     18  C   UNL     1      -1.240  12.577  21.908  0.00  0.00    +0.000 C 
ATOM     19  H   UNL     1       0.185   7.193  20.883  0.00  0.00    +0.000 HD
ATOM     20  H   UNL     1      -1.482  12.873  18.531  0.00  0.00    +0.000 HD
ENDROOT
BRANCH   1  24
ATOM     21  C   UNL     1       4.027   6.742  18.090  0.00  0.00    +0.000 A 
ATOM     22  C   UNL     1       3.225   7.823  17.737  0.00  0.00    +0.000 A 
ATOM     23  C   UNL     1       2.130   8.193  18.504  0.00  0.00    +0.000 A 
ATOM     24  C   UNL     1       1.812   7.472  19.655  0.00  0.00    +0.000 A 
ATOM     25  C   UNL     1       2.513   6.308  19.936  0.00  0.00    +0.000 A 
ATOM     26  C   UNL     1       3.625   5.922  19.162  0.00  0.00    +0.000 A 
BRANCH  21  28
ATOM     27  C   UNL     1       5.040   6.510  15.990  0.00  0.00    +0.000 C 
ATOM     28  O   UNL     1       5.188   6.495  17.414  0.00  0.00    +0.000 OA
ENDBRANCH  21  28
BRANCH  26  29
ATOM     29  O   UNL     1       4.197   4.758  19.611  0.00  0.00    +0.000 OA
ATOM     30  C   UNL     1       3.903   3.547  18.932  0.00  0.00    +0.000 C 
ENDBRANCH  26  29
ENDBRANCH   1  24
TORSDOF 3
ENDMDL
