MODEL 1
REMARK VINA RESULT:      -8.6      0.000      0.000
REMARK  Name = 
REMARK  4 active torsions:
REMARK  status: ('A' for Active; 'I' for Inactive)
REMARK    1  A    between atoms: C_2  and  C_3
REMARK    2  A    between atoms: C_3  and  N_4
REMARK    3  A    between atoms: C_5  and  C_6
REMARK    4  A    between atoms: N_21  and  C_22
REMARK                            x       y       z     vdW  Elec       q    Type
REMARK                         _______ _______ _______ _____ _____    ______ ____
ROOT
ATOM      1  O   UNL     1       2.738   7.853  17.777  0.00  0.00    +0.000 OA
ATOM      2  C   UNL     1       2.490   7.619  18.964  0.00  0.00    +0.000 C 
ATOM      3  N   UNL     1       1.522   8.328  19.648  0.00  0.00    +0.000 N 
ATOM      4  C   UNL     1       1.167   8.177  21.066  0.00  0.00    +0.000 C 
ATOM      5  C   UNL     1       1.434   9.485  21.841  0.00  0.00    +0.000 C 
ATOM      6  N   UNL     1       0.794  10.626  21.157  0.00  0.00    +0.000 N 
ATOM      7  C   UNL     1       1.095  10.760  19.718  0.00  0.00    +0.000 C 
ATOM      8  C   UNL     1       0.826   9.437  18.982  0.00  0.00    +0.000 C 
ENDROOT
BRANCH   6   9
ATOM      9  C   UNL     1      -0.150  11.399  21.801  0.00  0.00    +0.000 A 
ATOM     10  C   UNL     1      -1.058  10.825  22.706  0.00  0.00    +0.000 A 
ATOM     11  C   UNL     1      -2.032  11.585  23.363  0.00  0.00    +0.000 A 
ATOM     12  C   UNL     1      -2.113  12.950  23.124  0.00  0.00    +0.000 A 
ATOM     13 CL   UNL     1      -3.316  13.890  23.917  0.00  0.00    +0.000 Cl
ATOM     14  C   UNL     1      -1.226  13.555  22.243  0.00  0.00    +0.000 A 
ATOM     15  C   UNL     1      -0.252  12.785  21.593  0.00  0.00    +0.000 A 
ENDBRANCH   6   9
BRANCH   2  16
ATOM     16  C   UNL     1       3.290   6.569  19.694  0.00  0.00    +0.000 C 
BRANCH  16  17
ATOM     17  N   UNL     1       3.454   5.249  19.081  0.00  0.00    +0.000 N 
ATOM     18  C   UNL     1       4.635   4.865  18.441  0.00  0.00    +0.000 A 
ATOM     19  C   UNL     1       4.434   3.576  17.979  0.00  0.00    +0.000 A 
ATOM     20  C   UNL     1       3.135   3.158  18.332  0.00  0.00    +0.000 A 
ATOM     21  C   UNL     1       2.422   1.961  18.109  0.00  0.00    +0.000 A 
ATOM     22  C   UNL     1       1.120   1.824  18.592  0.00  0.00    +0.000 A 
ATOM     23  C   UNL     1       0.528   2.864  19.290  0.00  0.00    +0.000 A 
ATOM     24  C   UNL     1       1.211   4.065  19.510  0.00  0.00    +0.000 A 
ATOM     25  C   UNL     1       2.529   4.210  19.030  0.00  0.00    +0.000 A 
BRANCH  18  26
ATOM     26  C   UNL     1       5.845   5.651  18.291  0.00  0.00    +0.000 A 
ATOM     27  C   UNL     1       6.979   5.682  19.083  0.00  0.00    +0.000 A 
ATOM     28  C   UNL     1       7.963   6.607  18.621  0.00  0.00    +0.000 A 
ATOM     29  C   UNL     1       7.539   7.291  17.507  0.00  0.00    +0.000 A 
ATOM     30  S   UNL     1       5.989   6.788  17.001  0.00  0.00    +0.000 S 
ENDBRANCH  18  26
ENDBRANCH  16  17
ENDBRANCH   2  16
TORSDOF 4
ENDMDL
MODEL 2
REMARK VINA RESULT:      -8.6      0.738      1.187
REMARK  Name = 
REMARK  4 active torsions:
REMARK  status: ('A' for Active; 'I' for Inactive)
REMARK    1  A    between atoms: C_2  and  C_3
REMARK    2  A    between atoms: C_3  and  N_4
REMARK    3  A    between atoms: C_5  and  C_6
REMARK    4  A    between atoms: N_21  and  C_22
REMARK                            x       y       z     vdW  Elec       q    Type
REMARK                         _______ _______ _______ _____ _____    ______ ____
ROOT
ATOM      1  O   UNL     1       2.865   8.038  17.684  0.00  0.00    +0.000 OA
ATOM      2  C   UNL     1       2.504   7.748  18.829  0.00  0.00    +0.000 C 
ATOM      3  N   UNL     1       1.444   8.396  19.433  0.00  0.00    +0.000 N 
ATOM      4  C   UNL     1       0.949   8.177  20.799  0.00  0.00    +0.000 C 
ATOM      5  C   UNL     1       1.086   9.460  21.645  0.00  0.00    +0.000 C 
ATOM      6  N   UNL     1       0.478  10.606  20.940  0.00  0.00    +0.000 N 
ATOM      7  C   UNL     1       0.922  10.808  19.547  0.00  0.00    +0.000 C 
ATOM      8  C   UNL     1       0.780   9.508  18.738  0.00  0.00    +0.000 C 
ENDROOT
BRANCH   6   9
ATOM      9  C   UNL     1      -0.556  11.321  21.509  0.00  0.00    +0.000 A 
ATOM     10  C   UNL     1      -1.175  12.373  20.812  0.00  0.00    +0.000 A 
ATOM     11  C   UNL     1      -2.217  13.121  21.371  0.00  0.00    +0.000 A 
ATOM     12  C   UNL     1      -2.664  12.823  22.651  0.00  0.00    +0.000 A 
ATOM     13 CL   UNL     1      -3.936  13.747  23.351  0.00  0.00    +0.000 Cl
ATOM     14  C   UNL     1      -2.084  11.784  23.367  0.00  0.00    +0.000 A 
ATOM     15  C   UNL     1      -1.043  11.039  22.796  0.00  0.00    +0.000 A 
ENDBRANCH   6   9
BRANCH   2  16
ATOM     16  C   UNL     1       3.261   6.696  19.600  0.00  0.00    +0.000 C 
BRANCH  16  17
ATOM     17  N   UNL     1       3.472   5.383  18.988  0.00  0.00    +0.000 N 
ATOM     18  C   UNL     1       4.658   5.047  18.330  0.00  0.00    +0.000 A 
ATOM     19  C   UNL     1       4.505   3.749  17.875  0.00  0.00    +0.000 A 
ATOM     20  C   UNL     1       3.231   3.277  18.250  0.00  0.00    +0.000 A 
ATOM     21  C   UNL     1       2.566   2.050  18.042  0.00  0.00    +0.000 A 
ATOM     22  C   UNL     1       1.280   1.859  18.546  0.00  0.00    +0.000 A 
ATOM     23  C   UNL     1       0.655   2.875  19.251  0.00  0.00    +0.000 A 
ATOM     24  C   UNL     1       1.289   4.105  19.456  0.00  0.00    +0.000 A 
ATOM     25  C   UNL     1       2.592   4.304  18.954  0.00  0.00    +0.000 A 
BRANCH  18  26
ATOM     26  C   UNL     1       5.830   5.884  18.158  0.00  0.00    +0.000 A 
ATOM     27  C   UNL     1       6.091   6.847  17.199  0.00  0.00    +0.000 A 
ATOM     28  C   UNL     1       7.375   7.452  17.345  0.00  0.00    +0.000 A 
ATOM     29  C   UNL     1       8.082   6.909  18.390  0.00  0.00    +0.000 A 
ATOM     30  S   UNL     1       7.186   5.712  19.211  0.00  0.00    +0.000 S 
ENDBRANCH  18  26
ENDBRANCH  16  17
ENDBRANCH   2  16
TORSDOF 4
ENDMDL
MODEL 3
REMARK VINA RESULT:      -8.3      1.862      3.824
REMARK  Name = 
REMARK  4 active torsions:
REMARK  status: ('A' for Active; 'I' for Inactive)
REMARK    1  A    between atoms: C_2  and  C_3
REMARK    2  A    between atoms: C_3  and  N_4
REMARK    3  A    between atoms: C_5  and  C_6
REMARK    4  A    between atoms: N_21  and  C_22
REMARK                            x       y       z     vdW  Elec       q    Type
REMARK                         _______ _______ _______ _____ _____    ______ ____
ROOT
ATOM      1  O   UNL     1       3.186   7.963  16.994  0.00  0.00    +0.000 OA
ATOM      2  C   UNL     1       2.904   7.566  18.129  0.00  0.00    +0.000 C 
ATOM      3  N   UNL     1       1.857   8.117  18.843  0.00  0.00    +0.000 N 
ATOM      4  C   UNL     1       1.453   7.767  20.212  0.00  0.00    +0.000 C 
ATOM      5  C   UNL     1       1.589   8.983  21.151  0.00  0.00    +0.000 C 
ATOM      6  N   UNL     1       0.896  10.154  20.578  0.00  0.00    +0.000 N 
ATOM      7  C   UNL     1       1.248  10.486  19.184  0.00  0.00    +0.000 C 
ATOM      8  C   UNL     1       1.110   9.250  18.280  0.00  0.00    +0.000 C 
ENDROOT
BRANCH   6   9
ATOM      9  C   UNL     1      -0.131  10.775  21.261  0.00  0.00    +0.000 A 
ATOM     10  C   UNL     1      -0.453  10.400  22.576  0.00  0.00    +0.000 A 
ATOM     11  C   UNL     1      -1.496  11.006  23.285  0.00  0.00    +0.000 A 
ATOM     12  C   UNL     1      -2.241  12.011  22.684  0.00  0.00    +0.000 A 
ATOM     13 CL   UNL     1      -3.534  12.752  23.544  0.00  0.00    +0.000 Cl
ATOM     14  C   UNL     1      -1.945  12.416  21.389  0.00  0.00    +0.000 A 
ATOM     15  C   UNL     1      -0.896  11.804  20.688  0.00  0.00    +0.000 A 
ENDBRANCH   6   9
BRANCH   2  16
ATOM     16  C   UNL     1       3.747   6.491  18.768  0.00  0.00    +0.000 C 
BRANCH  16  17
ATOM     17  N   UNL     1       4.121   5.318  17.975  0.00  0.00    +0.000 N 
ATOM     18  C   UNL     1       3.588   4.050  18.220  0.00  0.00    +0.000 A 
ATOM     19  C   UNL     1       4.163   3.193  17.299  0.00  0.00    +0.000 A 
ATOM     20  C   UNL     1       5.048   3.924  16.481  0.00  0.00    +0.000 A 
ATOM     21  C   UNL     1       5.886   3.553  15.408  0.00  0.00    +0.000 A 
ATOM     22  C   UNL     1       6.666   4.516  14.766  0.00  0.00    +0.000 A 
ATOM     23  C   UNL     1       6.618   5.836  15.184  0.00  0.00    +0.000 A 
ATOM     24  C   UNL     1       5.806   6.223  16.255  0.00  0.00    +0.000 A 
ATOM     25  C   UNL     1       5.011   5.257  16.905  0.00  0.00    +0.000 A 
BRANCH  18  26
ATOM     26  C   UNL     1       2.615   3.691  19.235  0.00  0.00    +0.000 A 
ATOM     27  C   UNL     1       1.258   3.959  19.287  0.00  0.00    +0.000 A 
ATOM     28  C   UNL     1       0.631   3.456  20.467  0.00  0.00    +0.000 A 
ATOM     29  C   UNL     1       1.533   2.849  21.307  0.00  0.00    +0.000 A 
ATOM     30  S   UNL     1       3.110   2.849  20.656  0.00  0.00    +0.000 S 
ENDBRANCH  18  26
ENDBRANCH  16  17
ENDBRANCH   2  16
TORSDOF 4
ENDMDL
MODEL 4
REMARK VINA RESULT:      -8.1      1.661      1.920
REMARK  Name = 
REMARK  4 active torsions:
REMARK  status: ('A' for Active; 'I' for Inactive)
REMARK    1  A    between atoms: C_2  and  C_3
REMARK    2  A    between atoms: C_3  and  N_4
REMARK    3  A    between atoms: C_5  and  C_6
REMARK    4  A    between atoms: N_21  and  C_22
REMARK                            x       y       z     vdW  Elec       q    Type
REMARK                         _______ _______ _______ _____ _____    ______ ____
ROOT
ATOM      1  O   UNL     1       3.573   7.748  16.728  0.00  0.00    +0.000 OA
ATOM      2  C   UNL     1       3.240   7.411  17.869  0.00  0.00    +0.000 C 
ATOM      3  N   UNL     1       2.159   7.993  18.502  0.00  0.00    +0.000 N 
ATOM      4  C   UNL     1       1.692   7.714  19.867  0.00  0.00    +0.000 C 
ATOM      5  C   UNL     1       1.780   8.979  20.746  0.00  0.00    +0.000 C 
ATOM      6  N   UNL     1       1.111  10.114  20.080  0.00  0.00    +0.000 N 
ATOM      7  C   UNL     1       1.527  10.373  18.688  0.00  0.00    +0.000 C 
ATOM      8  C   UNL     1       1.435   9.090  17.846  0.00  0.00    +0.000 C 
ENDROOT
BRANCH   6   9
ATOM      9  C   UNL     1       0.052  10.765  20.679  0.00  0.00    +0.000 A 
ATOM     10  C   UNL     1      -0.164  10.667  22.064  0.00  0.00    +0.000 A 
ATOM     11  C   UNL     1      -1.237  11.307  22.695  0.00  0.00    +0.000 A 
ATOM     12  C   UNL     1      -2.121  12.067  21.941  0.00  0.00    +0.000 A 
ATOM     13 CL   UNL     1      -3.450  12.847  22.706  0.00  0.00    +0.000 Cl
ATOM     14  C   UNL     1      -1.934  12.196  20.571  0.00  0.00    +0.000 A 
ATOM     15  C   UNL     1      -0.854  11.552  19.950  0.00  0.00    +0.000 A 
ENDBRANCH   6   9
BRANCH   2  16
ATOM     16  C   UNL     1       4.055   6.376  18.603  0.00  0.00    +0.000 C 
BRANCH  16  17
ATOM     17  N   UNL     1       3.686   4.964  18.479  0.00  0.00    +0.000 N 
ATOM     18  C   UNL     1       4.243   4.128  17.508  0.00  0.00    +0.000 A 
ATOM     19  C   UNL     1       3.664   2.883  17.677  0.00  0.00    +0.000 A 
ATOM     20  C   UNL     1       2.753   2.942  18.751  0.00  0.00    +0.000 A 
ATOM     21  C   UNL     1       1.901   1.981  19.336  0.00  0.00    +0.000 A 
ATOM     22  C   UNL     1       1.094   2.330  20.419  0.00  0.00    +0.000 A 
ATOM     23  C   UNL     1       1.129   3.622  20.920  0.00  0.00    +0.000 A 
ATOM     24  C   UNL     1       1.954   4.595  20.345  0.00  0.00    +0.000 A 
ATOM     25  C   UNL     1       2.777   4.248  19.254  0.00  0.00    +0.000 A 
BRANCH  18  26
ATOM     26  C   UNL     1       5.240   4.483  16.516  0.00  0.00    +0.000 A 
ATOM     27  C   UNL     1       5.090   4.705  15.158  0.00  0.00    +0.000 A 
ATOM     28  C   UNL     1       6.318   5.018  14.501  0.00  0.00    +0.000 A 
ATOM     29  C   UNL     1       7.384   4.989  15.367  0.00  0.00    +0.000 A 
ATOM     30  S   UNL     1       6.900   4.632  16.963  0.00  0.00    +0.000 S 
ENDBRANCH  18  26
ENDBRANCH  16  17
ENDBRANCH   2  16
TORSDOF 4
ENDMDL
MODEL 5
REMARK VINA RESULT:      -7.9      4.684      9.788
REMARK  Name = 
REMARK  4 active torsions:
REMARK  status: ('A' for Active; 'I' for Inactive)
REMARK    1  A    between atoms: C_2  and  C_3
REMARK    2  A    between atoms: C_3  and  N_4
REMARK    3  A    between atoms: C_5  and  C_6
REMARK    4  A    between atoms: N_21  and  C_22
REMARK                            x       y       z     vdW  Elec       q    Type
REMARK                         _______ _______ _______ _____ _____    ______ ____
ROOT
ATOM      1  O   UNL     1      -0.705  11.559  23.032  0.00  0.00    +0.000 OA
ATOM      2  C   UNL     1      -0.774  11.333  21.820  0.00  0.00    +0.000 C 
ATOM      3  N   UNL     1      -0.410  10.107  21.297  0.00  0.00    +0.000 N 
ATOM      4  C   UNL     1      -0.402   9.731  19.876  0.00  0.00    +0.000 C 
ATOM      5  C   UNL     1       1.026   9.376  19.411  0.00  0.00    +0.000 C 
ATOM      6  N   UNL     1       1.630   8.382  20.321  0.00  0.00    +0.000 N 
ATOM      7  C   UNL     1       1.580   8.718  21.757  0.00  0.00    +0.000 C 
ATOM      8  C   UNL     1       0.146   9.075  22.182  0.00  0.00    +0.000 C 
ENDROOT
BRANCH   6   9
ATOM      9  C   UNL     1       2.052   7.155  19.851  0.00  0.00    +0.000 A 
ATOM     10  C   UNL     1       2.686   7.040  18.603  0.00  0.00    +0.000 A 
ATOM     11  C   UNL     1       3.113   5.806  18.099  0.00  0.00    +0.000 A 
ATOM     12  C   UNL     1       2.914   4.654  18.847  0.00  0.00    +0.000 A 
ATOM     13 CL   UNL     1       3.424   3.131  18.230  0.00  0.00    +0.000 Cl
ATOM     14  C   UNL     1       2.300   4.730  20.091  0.00  0.00    +0.000 A 
ATOM     15  C   UNL     1       1.879   5.972  20.587  0.00  0.00    +0.000 A 
ENDBRANCH   6   9
BRANCH   2  16
ATOM     16  C   UNL     1      -1.221  12.430  20.886  0.00  0.00    +0.000 C 
BRANCH  16  17
ATOM     17  N   UNL     1      -2.601  12.425  20.396  0.00  0.00    +0.000 N 
ATOM     18  C   UNL     1      -3.675  12.841  21.187  0.00  0.00    +0.000 A 
ATOM     19  C   UNL     1      -4.815  12.695  20.415  0.00  0.00    +0.000 A 
ATOM     20  C   UNL     1      -4.451  12.195  19.148  0.00  0.00    +0.000 A 
ATOM     21  C   UNL     1      -5.202  11.860  18.002  0.00  0.00    +0.000 A 
ATOM     22  C   UNL     1      -4.557  11.382  16.860  0.00  0.00    +0.000 A 
ATOM     23  C   UNL     1      -3.179  11.234  16.855  0.00  0.00    +0.000 A 
ATOM     24  C   UNL     1      -2.417  11.545  17.986  0.00  0.00    +0.000 A 
ATOM     25  C   UNL     1      -3.061  12.035  19.141  0.00  0.00    +0.000 A 
BRANCH  18  26
ATOM     26  C   UNL     1      -3.619  13.336  22.549  0.00  0.00    +0.000 A 
ATOM     27  C   UNL     1      -3.878  12.675  23.738  0.00  0.00    +0.000 A 
ATOM     28  C   UNL     1      -3.735  13.509  24.887  0.00  0.00    +0.000 A 
ATOM     29  C   UNL     1      -3.409  14.800  24.546  0.00  0.00    +0.000 A 
ATOM     30  S   UNL     1      -3.234  14.989  22.860  0.00  0.00    +0.000 S 
ENDBRANCH  18  26
ENDBRANCH  16  17
ENDBRANCH   2  16
TORSDOF 4
ENDMDL
MODEL 6
REMARK VINA RESULT:      -7.7      2.049      2.519
REMARK  Name = 
REMARK  4 active torsions:
REMARK  status: ('A' for Active; 'I' for Inactive)
REMARK    1  A    between atoms: C_2  and  C_3
REMARK    2  A    between atoms: C_3  and  N_4
REMARK    3  A    between atoms: C_5  and  C_6
REMARK    4  A    between atoms: N_21  and  C_22
REMARK                            x       y       z     vdW  Elec       q    Type
REMARK                         _______ _______ _______ _____ _____    ______ ____
ROOT
ATOM      1  O   UNL     1       4.553   7.633  16.888  0.00  0.00    +0.000 OA
ATOM      2  C   UNL     1       3.859   7.282  17.848  0.00  0.00    +0.000 C 
ATOM      3  N   UNL     1       2.645   7.885  18.115  0.00  0.00    +0.000 N 
ATOM      4  C   UNL     1       1.754   7.592  19.245  0.00  0.00    +0.000 C 
ATOM      5  C   UNL     1       1.581   8.834  20.144  0.00  0.00    +0.000 C 
ATOM      6  N   UNL     1       1.192  10.004  19.333  0.00  0.00    +0.000 N 
ATOM      7  C   UNL     1       2.043  10.280  18.159  0.00  0.00    +0.000 C 
ATOM      8  C   UNL     1       2.200   9.019  17.294  0.00  0.00    +0.000 C 
ENDROOT
BRANCH   6   9
ATOM      9  C   UNL     1       0.011  10.676  19.577  0.00  0.00    +0.000 A 
ATOM     10  C   UNL     1      -1.010  10.713  18.613  0.00  0.00    +0.000 A 
ATOM     11  C   UNL     1      -2.211  11.397  18.831  0.00  0.00    +0.000 A 
ATOM     12  C   UNL     1      -2.414  12.060  20.033  0.00  0.00    +0.000 A 
ATOM     13 CL   UNL     1      -3.882  12.915  20.305  0.00  0.00    +0.000 Cl
ATOM     14  C   UNL     1      -1.431  12.037  21.015  0.00  0.00    +0.000 A 
ATOM     15  C   UNL     1      -0.232  11.346  20.787  0.00  0.00    +0.000 A 
ENDBRANCH   6   9
BRANCH   2  16
ATOM     16  C   UNL     1       4.367   6.206  18.774  0.00  0.00    +0.000 C 
BRANCH  16  17
ATOM     17  N   UNL     1       3.875   4.837  18.607  0.00  0.00    +0.000 N 
ATOM     18  C   UNL     1       4.304   4.011  17.564  0.00  0.00    +0.000 A 
ATOM     19  C   UNL     1       3.633   2.809  17.709  0.00  0.00    +0.000 A 
ATOM     20  C   UNL     1       2.794   2.884  18.840  0.00  0.00    +0.000 A 
ATOM     21  C   UNL     1       1.901   1.965  19.430  0.00  0.00    +0.000 A 
ATOM     22  C   UNL     1       1.191   2.320  20.577  0.00  0.00    +0.000 A 
ATOM     23  C   UNL     1       1.362   3.577  21.135  0.00  0.00    +0.000 A 
ATOM     24  C   UNL     1       2.230   4.509  20.557  0.00  0.00    +0.000 A 
ATOM     25  C   UNL     1       2.956   4.155  19.401  0.00  0.00    +0.000 A 
BRANCH  18  26
ATOM     26  C   UNL     1       5.267   4.336  16.530  0.00  0.00    +0.000 A 
ATOM     27  C   UNL     1       5.081   4.471  15.164  0.00  0.00    +0.000 A 
ATOM     28  C   UNL     1       6.284   4.782  14.462  0.00  0.00    +0.000 A 
ATOM     29  C   UNL     1       7.368   4.839  15.303  0.00  0.00    +0.000 A 
ATOM     30  S   UNL     1       6.930   4.563  16.928  0.00  0.00    +0.000 S 
ENDBRANCH  18  26
ENDBRANCH  16  17
ENDBRANCH   2  16
TORSDOF 4
ENDMDL
MODEL 7
REMARK VINA RESULT:      -7.7      4.680      9.937
REMARK  Name = 
REMARK  4 active torsions:
REMARK  status: ('A' for Active; 'I' for Inactive)
REMARK    1  A    between atoms: C_2  and  C_3
REMARK    2  A    between atoms: C_3  and  N_4
REMARK    3  A    between atoms: C_5  and  C_6
REMARK    4  A    between atoms: N_21  and  C_22
REMARK                            x       y       z     vdW  Elec       q    Type
REMARK                         _______ _______ _______ _____ _____    ______ ____
ROOT
ATOM      1  O   UNL     1      -0.949  11.410  23.217  0.00  0.00    +0.000 OA
ATOM      2  C   UNL     1      -0.920  11.315  21.986  0.00  0.00    +0.000 C 
ATOM      3  N   UNL     1      -0.536  10.142  21.366  0.00  0.00    +0.000 N 
ATOM      4  C   UNL     1      -0.415   9.918  19.918  0.00  0.00    +0.000 C 
ATOM      5  C   UNL     1       1.040   9.575  19.536  0.00  0.00    +0.000 C 
ATOM      6  N   UNL     1       1.547   8.475  20.380  0.00  0.00    +0.000 N 
ATOM      7  C   UNL     1       1.382   8.658  21.835  0.00  0.00    +0.000 C 
ATOM      8  C   UNL     1      -0.076   9.007  22.177  0.00  0.00    +0.000 C 
ENDROOT
BRANCH   6   9
ATOM      9  C   UNL     1       1.985   7.293  19.818  0.00  0.00    +0.000 A 
ATOM     10  C   UNL     1       1.842   6.073  20.500  0.00  0.00    +0.000 A 
ATOM     11  C   UNL     1       2.288   4.864  19.957  0.00  0.00    +0.000 A 
ATOM     12  C   UNL     1       2.890   4.854  18.706  0.00  0.00    +0.000 A 
ATOM     13 CL   UNL     1       3.454   3.373  18.036  0.00  0.00    +0.000 Cl
ATOM     14  C   UNL     1       3.040   6.039  17.997  0.00  0.00    +0.000 A 
ATOM     15  C   UNL     1       2.586   7.245  18.549  0.00  0.00    +0.000 A 
ENDBRANCH   6   9
BRANCH   2  16
ATOM     16  C   UNL     1      -1.266  12.516  21.142  0.00  0.00    +0.000 C 
BRANCH  16  17
ATOM     17  N   UNL     1      -2.667  12.756  20.791  0.00  0.00    +0.000 N 
ATOM     18  C   UNL     1      -3.527  13.494  21.609  0.00  0.00    +0.000 A 
ATOM     19  C   UNL     1      -4.759  13.508  20.979  0.00  0.00    +0.000 A 
ATOM     20  C   UNL     1      -4.666  12.787  19.772  0.00  0.00    +0.000 A 
ATOM     21  C   UNL     1      -5.606  12.485  18.763  0.00  0.00    +0.000 A 
ATOM     22  C   UNL     1      -5.221  11.739  17.650  0.00  0.00    +0.000 A 
ATOM     23  C   UNL     1      -3.914  11.291  17.536  0.00  0.00    +0.000 A 
ATOM     24  C   UNL     1      -2.970  11.564  18.532  0.00  0.00    +0.000 A 
ATOM     25  C   UNL     1      -3.350  12.324  19.657  0.00  0.00    +0.000 A 
BRANCH  18  26
ATOM     26  C   UNL     1      -3.201  14.130  22.871  0.00  0.00    +0.000 A 
ATOM     27  C   UNL     1      -3.463  13.707  24.164  0.00  0.00    +0.000 A 
ATOM     28  C   UNL     1      -3.001  14.621  25.158  0.00  0.00    +0.000 A 
ATOM     29  C   UNL     1      -2.433  15.741  24.600  0.00  0.00    +0.000 A 
ATOM     30  S   UNL     1      -2.418  15.667  22.896  0.00  0.00    +0.000 S 
ENDBRANCH  18  26
ENDBRANCH  16  17
ENDBRANCH   2  16
TORSDOF 4
ENDMDL
MODEL 8
REMARK VINA RESULT:      -7.6      1.697      2.275
REMARK  Name = 
REMARK  4 active torsions:
REMARK  status: ('A' for Active; 'I' for Inactive)
REMARK    1  A    between atoms: C_2  and  C_3
REMARK    2  A    between atoms: C_3  and  N_4
REMARK    3  A    between atoms: C_5  and  C_6
REMARK    4  A    between atoms: N_21  and  C_22
REMARK                            x       y       z     vdW  Elec       q    Type
REMARK                         _______ _______ _______ _____ _____    ______ ____
ROOT
ATOM      1  O   UNL     1       2.082   6.344  20.672  0.00  0.00    +0.000 OA
ATOM      2  C   UNL     1       2.240   7.128  19.730  0.00  0.00    +0.000 C 
ATOM      3  N   UNL     1       1.869   8.455  19.832  0.00  0.00    +0.000 N 
ATOM      4  C   UNL     1       1.961   9.472  18.775  0.00  0.00    +0.000 C 
ATOM      5  C   UNL     1       0.562  10.012  18.410  0.00  0.00    +0.000 C 
ATOM      6  N   UNL     1      -0.154  10.443  19.626  0.00  0.00    +0.000 N 
ATOM      7  C   UNL     1      -0.208   9.454  20.721  0.00  0.00    +0.000 C 
ATOM      8  C   UNL     1       1.201   8.932  21.050  0.00  0.00    +0.000 C 
ENDROOT
BRANCH   6   9
ATOM      9  C   UNL     1      -0.588  11.745  19.770  0.00  0.00    +0.000 A 
ATOM     10  C   UNL     1       0.045  12.796  19.086  0.00  0.00    +0.000 A 
ATOM     11  C   UNL     1      -0.368  14.126  19.223  0.00  0.00    +0.000 A 
ATOM     12  C   UNL     1      -1.436  14.429  20.057  0.00  0.00    +0.000 A 
ATOM     13 CL   UNL     1      -1.942  16.063  20.242  0.00  0.00    +0.000 Cl
ATOM     14  C   UNL     1      -2.094  13.416  20.742  0.00  0.00    +0.000 A 
ATOM     15  C   UNL     1      -1.673  12.086  20.594  0.00  0.00    +0.000 A 
ENDBRANCH   6   9
BRANCH   2  16
ATOM     16  C   UNL     1       2.806   6.618  18.429  0.00  0.00    +0.000 C 
BRANCH  16  17
ATOM     17  N   UNL     1       3.301   5.242  18.362  0.00  0.00    +0.000 N 
ATOM     18  C   UNL     1       4.652   4.942  18.170  0.00  0.00    +0.000 A 
ATOM     19  C   UNL     1       4.753   3.562  18.149  0.00  0.00    +0.000 A 
ATOM     20  C   UNL     1       3.471   3.004  18.332  0.00  0.00    +0.000 A 
ATOM     21  C   UNL     1       3.006   1.673  18.386  0.00  0.00    +0.000 A 
ATOM     22  C   UNL     1       1.650   1.415  18.590  0.00  0.00    +0.000 A 
ATOM     23  C   UNL     1       0.760   2.466  18.738  0.00  0.00    +0.000 A 
ATOM     24  C   UNL     1       1.197   3.794  18.672  0.00  0.00    +0.000 A 
ATOM     25  C   UNL     1       2.567   4.063  18.472  0.00  0.00    +0.000 A 
BRANCH  18  26
ATOM     26  C   UNL     1       5.745   5.884  18.025  0.00  0.00    +0.000 A 
ATOM     27  C   UNL     1       5.883   6.943  17.144  0.00  0.00    +0.000 A 
ATOM     28  C   UNL     1       7.121   7.638  17.291  0.00  0.00    +0.000 A 
ATOM     29  C   UNL     1       7.918   7.068  18.254  0.00  0.00    +0.000 A 
ATOM     30  S   UNL     1       7.158   5.736  19.003  0.00  0.00    +0.000 S 
ENDBRANCH  18  26
ENDBRANCH  16  17
ENDBRANCH   2  16
TORSDOF 4
ENDMDL
MODEL 9
REMARK VINA RESULT:      -7.4      2.153      4.546
REMARK  Name = 
REMARK  4 active torsions:
REMARK  status: ('A' for Active; 'I' for Inactive)
REMARK    1  A    between atoms: C_2  and  C_3
REMARK    2  A    between atoms: C_3  and  N_4
REMARK    3  A    between atoms: C_5  and  C_6
REMARK    4  A    between atoms: N_21  and  C_22
REMARK                            x       y       z     vdW  Elec       q    Type
REMARK                         _______ _______ _______ _____ _____    ______ ____
ROOT
ATOM      1  O   UNL     1       1.888   6.335  20.547  0.00  0.00    +0.000 OA
ATOM      2  C   UNL     1       2.055   7.067  19.566  0.00  0.00    +0.000 C 
ATOM      3  N   UNL     1       1.788   8.421  19.627  0.00  0.00    +0.000 N 
ATOM      4  C   UNL     1       1.900   9.385  18.523  0.00  0.00    +0.000 C 
ATOM      5  C   UNL     1       0.528  10.014  18.202  0.00  0.00    +0.000 C 
ATOM      6  N   UNL     1      -0.092  10.546  19.431  0.00  0.00    +0.000 N 
ATOM      7  C   UNL     1      -0.162   9.609  20.569  0.00  0.00    +0.000 C 
ATOM      8  C   UNL     1       1.219   8.996  20.854  0.00  0.00    +0.000 C 
ENDROOT
BRANCH   6   9
ATOM      9  C   UNL     1      -0.422  11.882  19.538  0.00  0.00    +0.000 A 
ATOM     10  C   UNL     1       0.306  12.862  18.843  0.00  0.00    +0.000 A 
ATOM     11  C   UNL     1      -0.000  14.224  18.944  0.00  0.00    +0.000 A 
ATOM     12  C   UNL     1      -1.055  14.631  19.750  0.00  0.00    +0.000 A 
ATOM     13 CL   UNL     1      -1.430  16.305  19.890  0.00  0.00    +0.000 Cl
ATOM     14  C   UNL     1      -1.804  13.690  20.444  0.00  0.00    +0.000 A 
ATOM     15  C   UNL     1      -1.490  12.328  20.333  0.00  0.00    +0.000 A 
ENDBRANCH   6   9
BRANCH   2  16
ATOM     16  C   UNL     1       2.516   6.464  18.263  0.00  0.00    +0.000 C 
BRANCH  16  17
ATOM     17  N   UNL     1       3.760   5.692  18.239  0.00  0.00    +0.000 N 
ATOM     18  C   UNL     1       3.799   4.331  18.552  0.00  0.00    +0.000 A 
ATOM     19  C   UNL     1       5.121   3.936  18.437  0.00  0.00    +0.000 A 
ATOM     20  C   UNL     1       5.900   5.046  18.052  0.00  0.00    +0.000 A 
ATOM     21  C   UNL     1       7.280   5.205  17.806  0.00  0.00    +0.000 A 
ATOM     22  C   UNL     1       7.782   6.450  17.423  0.00  0.00    +0.000 A 
ATOM     23  C   UNL     1       6.924   7.529  17.287  0.00  0.00    +0.000 A 
ATOM     24  C   UNL     1       5.555   7.398  17.541  0.00  0.00    +0.000 A 
ATOM     25  C   UNL     1       5.039   6.141  17.923  0.00  0.00    +0.000 A 
BRANCH  18  26
ATOM     26  C   UNL     1       2.680   3.484  18.918  0.00  0.00    +0.000 A 
ATOM     27  C   UNL     1       1.615   3.050  18.148  0.00  0.00    +0.000 A 
ATOM     28  C   UNL     1       0.692   2.238  18.873  0.00  0.00    +0.000 A 
ATOM     29  C   UNL     1       1.054   2.103  20.191  0.00  0.00    +0.000 A 
ATOM     30  S   UNL     1       2.515   2.912  20.537  0.00  0.00    +0.000 S 
ENDBRANCH  18  26
ENDBRANCH  16  17
ENDBRANCH   2  16
TORSDOF 4
ENDMDL
