MODEL 1
REMARK VINA RESULT:      -5.8      0.000      0.000
REMARK  Name = 
REMARK  7 active torsions:
REMARK  status: ('A' for Active; 'I' for Inactive)
REMARK    1  A    between atoms: C_1  and  C_2
REMARK    2  A    between atoms: C_2  and  C_3
REMARK    3  A    between atoms: C_3  and  C_4
REMARK    4  A    between atoms: C_3  and  C_5
REMARK    5  A    between atoms: C_5  and  N_6
REMARK    6  A    between atoms: C_5  and  C_7
REMARK    7  A    between atoms: C_13  and  C_14
REMARK                            x       y       z     vdW  Elec       q    Type
REMARK                         _______ _______ _______ _____ _____    ______ ____
ROOT
ATOM      1  C   UNL     1       3.956   5.286  19.397  0.00  0.00    +0.000 C 
ATOM      2  O   UNL     1       3.723   6.495  19.445  0.00  0.00    +0.000 OA
ATOM      3  N   UNL     1       3.040   4.355  19.863  0.00  0.00    +0.000 N 
ATOM      4  C   UNL     1       1.709   4.762  20.279  0.00  0.00    +0.000 C 
ATOM      5  C   UNL     1       1.022   3.454  20.629  0.00  0.00    +0.000 C 
ATOM      6  C   UNL     1       2.163   2.661  21.261  0.00  0.00    +0.000 C 
ATOM      7  C   UNL     1       3.367   3.015  20.374  0.00  0.00    +0.000 C 
ENDROOT
BRANCH   7   8
ATOM      8  C   UNL     1       3.527   1.998  19.311  0.00  0.00    +0.000 C 
ATOM      9  N   UNL     1       3.642   1.195  18.484  0.00  0.00    +0.000 NA
ENDBRANCH   7   8
BRANCH   1  10
ATOM     10  C   UNL     1       5.280   4.723  18.802  0.00  0.00    +0.000 C 
BRANCH  10  11
ATOM     11  N   UNL     1       6.401   5.255  19.609  0.00  0.00    +0.000 NA
ATOM     12  H   UNL     1       6.016   5.607  20.490  0.00  0.00    +0.000 HD
ATOM     13  H   UNL     1       6.794   6.070  19.139  0.00  0.00    +0.000 HD
ENDBRANCH  10  11
BRANCH  10  14
ATOM     14  C   UNL     1       5.449   5.014  17.283  0.00  0.00    +0.000 C 
ATOM     15  C   UNL     1       4.477   4.158  16.451  0.00  0.00    +0.000 C 
BRANCH  14  17
ATOM     16  C   UNL     1       7.095   4.673  15.326  0.00  0.00    +0.000 C 
ATOM     17  C   UNL     1       6.906   4.731  16.836  0.00  0.00    +0.000 C 
ENDBRANCH  14  17
ENDBRANCH  10  14
ENDBRANCH   1  10
TORSDOF 5
ENDMDL
MODEL 2
REMARK VINA RESULT:      -5.7      0.951      1.097
REMARK  Name = 
REMARK  7 active torsions:
REMARK  status: ('A' for Active; 'I' for Inactive)
REMARK    1  A    between atoms: C_1  and  C_2
REMARK    2  A    between atoms: C_2  and  C_3
REMARK    3  A    between atoms: C_3  and  C_4
REMARK    4  A    between atoms: C_3  and  C_5
REMARK    5  A    between atoms: C_5  and  N_6
REMARK    6  A    between atoms: C_5  and  C_7
REMARK    7  A    between atoms: C_13  and  C_14
REMARK                            x       y       z     vdW  Elec       q    Type
REMARK                         _______ _______ _______ _____ _____    ______ ____
ROOT
ATOM      1  C   UNL     1       3.852   5.412  19.102  0.00  0.00    +0.000 C 
ATOM      2  O   UNL     1       3.580   6.613  19.133  0.00  0.00    +0.000 OA
ATOM      3  N   UNL     1       3.017   4.466  19.678  0.00  0.00    +0.000 N 
ATOM      4  C   UNL     1       1.714   4.843  20.200  0.00  0.00    +0.000 C 
ATOM      5  C   UNL     1       1.110   3.524  20.651  0.00  0.00    +0.000 C 
ATOM      6  C   UNL     1       2.330   2.792  21.202  0.00  0.00    +0.000 C 
ATOM      7  C   UNL     1       3.437   3.156  20.200  0.00  0.00    +0.000 C 
ENDROOT
BRANCH   7   8
ATOM      8  C   UNL     1       3.539   2.110  19.159  0.00  0.00    +0.000 C 
ATOM      9  N   UNL     1       3.632   1.295  18.339  0.00  0.00    +0.000 NA
ENDBRANCH   7   8
BRANCH   1  10
ATOM     10  C   UNL     1       5.138   4.874  18.408  0.00  0.00    +0.000 C 
BRANCH  10  11
ATOM     11  N   UNL     1       6.185   4.731  19.444  0.00  0.00    +0.000 NA
ATOM     12  H   UNL     1       6.517   3.763  19.426  0.00  0.00    +0.000 HD
ATOM     13  H   UNL     1       5.765   4.857  20.364  0.00  0.00    +0.000 HD
ENDBRANCH  10  11
BRANCH  10  14
ATOM     14  C   UNL     1       5.603   5.744  17.206  0.00  0.00    +0.000 C 
ATOM     15  C   UNL     1       5.266   5.057  15.870  0.00  0.00    +0.000 C 
BRANCH  14  17
ATOM     16  C   UNL     1       7.499   7.465  17.529  0.00  0.00    +0.000 C 
ATOM     17  C   UNL     1       7.128   6.008  17.285  0.00  0.00    +0.000 C 
ENDBRANCH  14  17
ENDBRANCH  10  14
ENDBRANCH   1  10
TORSDOF 5
ENDMDL
MODEL 3
REMARK VINA RESULT:      -5.6      0.634      1.195
REMARK  Name = 
REMARK  7 active torsions:
REMARK  status: ('A' for Active; 'I' for Inactive)
REMARK    1  A    between atoms: C_1  and  C_2
REMARK    2  A    between atoms: C_2  and  C_3
REMARK    3  A    between atoms: C_3  and  C_4
REMARK    4  A    between atoms: C_3  and  C_5
REMARK    5  A    between atoms: C_5  and  N_6
REMARK    6  A    between atoms: C_5  and  C_7
REMARK    7  A    between atoms: C_13  and  C_14
REMARK                            x       y       z     vdW  Elec       q    Type
REMARK                         _______ _______ _______ _____ _____    ______ ____
ROOT
ATOM      1  C   UNL     1       4.103   5.187  19.436  0.00  0.00    +0.000 C 
ATOM      2  O   UNL     1       3.952   6.410  19.469  0.00  0.00    +0.000 OA
ATOM      3  N   UNL     1       3.065   4.322  19.747  0.00  0.00    +0.000 N 
ATOM      4  C   UNL     1       1.720   4.823  19.971  0.00  0.00    +0.000 C 
ATOM      5  C   UNL     1       0.897   3.566  20.195  0.00  0.00    +0.000 C 
ATOM      6  C   UNL     1       1.873   2.688  20.973  0.00  0.00    +0.000 C 
ATOM      7  C   UNL     1       3.217   2.959  20.278  0.00  0.00    +0.000 C 
ENDROOT
BRANCH   7   8
ATOM      8  C   UNL     1       3.459   1.940  19.233  0.00  0.00    +0.000 C 
ATOM      9  N   UNL     1       3.635   1.142  18.410  0.00  0.00    +0.000 NA
ENDBRANCH   7   8
BRANCH   1  10
ATOM     10  C   UNL     1       5.457   4.533  19.031  0.00  0.00    +0.000 C 
BRANCH  10  11
ATOM     11  N   UNL     1       6.546   5.359  19.600  0.00  0.00    +0.000 NA
ATOM     12  H   UNL     1       6.946   5.919  18.842  0.00  0.00    +0.000 HD
ATOM     13  H   UNL     1       7.299   4.748  19.913  0.00  0.00    +0.000 HD
ENDBRANCH  10  11
BRANCH  10  14
ATOM     14  C   UNL     1       5.608   4.321  17.498  0.00  0.00    +0.000 C 
ATOM     15  C   UNL     1       7.037   4.664  17.037  0.00  0.00    +0.000 C 
BRANCH  14  17
ATOM     16  C   UNL     1       5.192   6.437  16.081  0.00  0.00    +0.000 C 
ATOM     17  C   UNL     1       4.589   5.197  16.725  0.00  0.00    +0.000 C 
ENDBRANCH  14  17
ENDBRANCH  10  14
ENDBRANCH   1  10
TORSDOF 5
ENDMDL
MODEL 4
REMARK VINA RESULT:      -5.6      2.097      2.564
REMARK  Name = 
REMARK  7 active torsions:
REMARK  status: ('A' for Active; 'I' for Inactive)
REMARK    1  A    between atoms: C_1  and  C_2
REMARK    2  A    between atoms: C_2  and  C_3
REMARK    3  A    between atoms: C_3  and  C_4
REMARK    4  A    between atoms: C_3  and  C_5
REMARK    5  A    between atoms: C_5  and  N_6
REMARK    6  A    between atoms: C_5  and  C_7
REMARK    7  A    between atoms: C_13  and  C_14
REMARK                            x       y       z     vdW  Elec       q    Type
REMARK                         _______ _______ _______ _____ _____    ______ ____
ROOT
ATOM      1  C   UNL     1       4.914   3.971  18.741  0.00  0.00    +0.000 C 
ATOM      2  O   UNL     1       5.887   4.043  19.493  0.00  0.00    +0.000 OA
ATOM      3  N   UNL     1       3.709   3.434  19.167  0.00  0.00    +0.000 N 
ATOM      4  C   UNL     1       3.503   3.080  20.561  0.00  0.00    +0.000 C 
ATOM      5  C   UNL     1       2.056   2.618  20.609  0.00  0.00    +0.000 C 
ATOM      6  C   UNL     1       1.915   1.895  19.272  0.00  0.00    +0.000 C 
ATOM      7  C   UNL     1       2.705   2.792  18.305  0.00  0.00    +0.000 C 
ENDROOT
BRANCH   7   8
ATOM      8  C   UNL     1       1.791   3.750  17.646  0.00  0.00    +0.000 C 
ATOM      9  N   UNL     1       1.080   4.512  17.136  0.00  0.00    +0.000 NA
ENDBRANCH   7   8
BRANCH   1  10
ATOM     10  C   UNL     1       4.965   4.489  17.274  0.00  0.00    +0.000 C 
BRANCH  10  11
ATOM     11  N   UNL     1       5.752   3.519  16.479  0.00  0.00    +0.000 NA
ATOM     12  H   UNL     1       5.200   3.263  15.656  0.00  0.00    +0.000 HD
ATOM     13  H   UNL     1       5.859   2.658  17.014  0.00  0.00    +0.000 HD
ENDBRANCH  10  11
BRANCH  10  14
ATOM     14  C   UNL     1       5.505   5.941  17.147  0.00  0.00    +0.000 C 
ATOM     15  C   UNL     1       4.946   6.625  15.886  0.00  0.00    +0.000 C 
BRANCH  14  17
ATOM     16  C   UNL     1       7.708   7.018  17.951  0.00  0.00    +0.000 C 
ATOM     17  C   UNL     1       7.055   5.941  17.095  0.00  0.00    +0.000 C 
ENDBRANCH  14  17
ENDBRANCH  10  14
ENDBRANCH   1  10
TORSDOF 5
ENDMDL
MODEL 5
REMARK VINA RESULT:      -5.5      2.018      2.921
REMARK  Name = 
REMARK  7 active torsions:
REMARK  status: ('A' for Active; 'I' for Inactive)
REMARK    1  A    between atoms: C_1  and  C_2
REMARK    2  A    between atoms: C_2  and  C_3
REMARK    3  A    between atoms: C_3  and  C_4
REMARK    4  A    between atoms: C_3  and  C_5
REMARK    5  A    between atoms: C_5  and  N_6
REMARK    6  A    between atoms: C_5  and  C_7
REMARK    7  A    between atoms: C_13  and  C_14
REMARK                            x       y       z     vdW  Elec       q    Type
REMARK                         _______ _______ _______ _____ _____    ______ ____
ROOT
ATOM      1  C   UNL     1       4.497   3.081  19.433  0.00  0.00    +0.000 C 
ATOM      2  O   UNL     1       5.136   2.103  19.822  0.00  0.00    +0.000 OA
ATOM      3  N   UNL     1       3.272   3.414  19.992  0.00  0.00    +0.000 N 
ATOM      4  C   UNL     1       2.774   2.713  21.163  0.00  0.00    +0.000 C 
ATOM      5  C   UNL     1       1.474   3.429  21.489  0.00  0.00    +0.000 C 
ATOM      6  C   UNL     1       0.932   3.741  20.097  0.00  0.00    +0.000 C 
ATOM      7  C   UNL     1       2.192   4.146  19.314  0.00  0.00    +0.000 C 
ENDROOT
BRANCH   7   8
ATOM      8  C   UNL     1       2.358   5.615  19.351  0.00  0.00    +0.000 C 
ATOM      9  N   UNL     1       2.478   6.768  19.371  0.00  0.00    +0.000 NA
ENDBRANCH   7   8
BRANCH   1  10
ATOM     10  C   UNL     1       5.022   4.014  18.302  0.00  0.00    +0.000 C 
BRANCH  10  11
ATOM     11  N   UNL     1       4.760   3.347  17.007  0.00  0.00    +0.000 NA
ATOM     12  H   UNL     1       3.844   3.657  16.672  0.00  0.00    +0.000 HD
ATOM     13  H   UNL     1       4.667   2.343  17.161  0.00  0.00    +0.000 HD
ENDBRANCH  10  11
BRANCH  10  14
ATOM     14  C   UNL     1       6.514   4.417  18.474  0.00  0.00    +0.000 C 
ATOM     15  C   UNL     1       6.654   5.589  19.462  0.00  0.00    +0.000 C 
BRANCH  14  17
ATOM     16  C   UNL     1       7.198   6.313  16.863  0.00  0.00    +0.000 C 
ATOM     17  C   UNL     1       7.131   4.812  17.108  0.00  0.00    +0.000 C 
ENDBRANCH  14  17
ENDBRANCH  10  14
ENDBRANCH   1  10
TORSDOF 5
ENDMDL
MODEL 6
REMARK VINA RESULT:      -5.5      2.060      2.983
REMARK  Name = 
REMARK  7 active torsions:
REMARK  status: ('A' for Active; 'I' for Inactive)
REMARK    1  A    between atoms: C_1  and  C_2
REMARK    2  A    between atoms: C_2  and  C_3
REMARK    3  A    between atoms: C_3  and  C_4
REMARK    4  A    between atoms: C_3  and  C_5
REMARK    5  A    between atoms: C_5  and  N_6
REMARK    6  A    between atoms: C_5  and  C_7
REMARK    7  A    between atoms: C_13  and  C_14
REMARK                            x       y       z     vdW  Elec       q    Type
REMARK                         _______ _______ _______ _____ _____    ______ ____
ROOT
ATOM      1  C   UNL     1       4.386   3.286  19.069  0.00  0.00    +0.000 C 
ATOM      2  O   UNL     1       5.101   2.321  19.343  0.00  0.00    +0.000 OA
ATOM      3  N   UNL     1       3.252   3.580  19.811  0.00  0.00    +0.000 N 
ATOM      4  C   UNL     1       2.955   2.854  21.034  0.00  0.00    +0.000 C 
ATOM      5  C   UNL     1       1.702   3.531  21.562  0.00  0.00    +0.000 C 
ATOM      6  C   UNL     1       0.948   3.844  20.273  0.00  0.00    +0.000 C 
ATOM      7  C   UNL     1       2.064   4.290  19.315  0.00  0.00    +0.000 C 
ENDROOT
BRANCH   7   8
ATOM      8  C   UNL     1       2.197   5.763  19.348  0.00  0.00    +0.000 C 
ATOM      9  N   UNL     1       2.308   6.917  19.361  0.00  0.00    +0.000 NA
ENDBRANCH   7   8
BRANCH   1  10
ATOM     10  C   UNL     1       4.710   4.245  17.885  0.00  0.00    +0.000 C 
BRANCH  10  11
ATOM     11  N   UNL     1       5.314   3.437  16.802  0.00  0.00    +0.000 NA
ATOM     12  H   UNL     1       6.148   2.977  17.178  0.00  0.00    +0.000 HD
ATOM     13  H   UNL     1       5.655   4.061  16.071  0.00  0.00    +0.000 HD
ENDBRANCH  10  11
BRANCH  10  14
ATOM     14  C   UNL     1       5.599   5.454  18.293  0.00  0.00    +0.000 C 
ATOM     15  C   UNL     1       5.345   6.657  17.367  0.00  0.00    +0.000 C 
BRANCH  14  17
ATOM     16  C   UNL     1       7.961   5.767  19.285  0.00  0.00    +0.000 C 
ATOM     17  C   UNL     1       7.099   5.067  18.242  0.00  0.00    +0.000 C 
ENDBRANCH  14  17
ENDBRANCH  10  14
ENDBRANCH   1  10
TORSDOF 5
ENDMDL
MODEL 7
REMARK VINA RESULT:      -5.4      2.135      2.962
REMARK  Name = 
REMARK  7 active torsions:
REMARK  status: ('A' for Active; 'I' for Inactive)
REMARK    1  A    between atoms: C_1  and  C_2
REMARK    2  A    between atoms: C_2  and  C_3
REMARK    3  A    between atoms: C_3  and  C_4
REMARK    4  A    between atoms: C_3  and  C_5
REMARK    5  A    between atoms: C_5  and  N_6
REMARK    6  A    between atoms: C_5  and  C_7
REMARK    7  A    between atoms: C_13  and  C_14
REMARK                            x       y       z     vdW  Elec       q    Type
REMARK                         _______ _______ _______ _____ _____    ______ ____
ROOT
ATOM      1  C   UNL     1       4.814   3.866  18.649  0.00  0.00    +0.000 C 
ATOM      2  O   UNL     1       5.815   3.941  19.364  0.00  0.00    +0.000 OA
ATOM      3  N   UNL     1       3.614   3.370  19.136  0.00  0.00    +0.000 N 
ATOM      4  C   UNL     1       3.451   3.068  20.548  0.00  0.00    +0.000 C 
ATOM      5  C   UNL     1       1.998   2.640  20.661  0.00  0.00    +0.000 C 
ATOM      6  C   UNL     1       1.794   1.876  19.356  0.00  0.00    +0.000 C 
ATOM      7  C   UNL     1       2.567   2.721  18.332  0.00  0.00    +0.000 C 
ENDROOT
BRANCH   7   8
ATOM      8  C   UNL     1       1.650   3.677  17.672  0.00  0.00    +0.000 C 
ATOM      9  N   UNL     1       0.925   4.427  17.167  0.00  0.00    +0.000 NA
ENDBRANCH   7   8
BRANCH   1  10
ATOM     10  C   UNL     1       4.824   4.332  17.164  0.00  0.00    +0.000 C 
BRANCH  10  11
ATOM     11  N   UNL     1       6.035   3.773  16.523  0.00  0.00    +0.000 NA
ATOM     12  H   UNL     1       6.592   4.554  16.165  0.00  0.00    +0.000 HD
ATOM     13  H   UNL     1       5.761   3.237  15.700  0.00  0.00    +0.000 HD
ENDBRANCH  10  11
BRANCH  10  14
ATOM     14  C   UNL     1       4.719   5.875  16.998  0.00  0.00    +0.000 C 
ATOM     15  C   UNL     1       6.118   6.519  16.986  0.00  0.00    +0.000 C 
BRANCH  14  17
ATOM     16  C   UNL     1       3.032   7.686  17.725  0.00  0.00    +0.000 C 
ATOM     17  C   UNL     1       3.874   6.488  18.143  0.00  0.00    +0.000 C 
ENDBRANCH  14  17
ENDBRANCH  10  14
ENDBRANCH   1  10
TORSDOF 5
ENDMDL
MODEL 8
REMARK VINA RESULT:      -5.4      2.662      3.717
REMARK  Name = 
REMARK  7 active torsions:
REMARK  status: ('A' for Active; 'I' for Inactive)
REMARK    1  A    between atoms: C_1  and  C_2
REMARK    2  A    between atoms: C_2  and  C_3
REMARK    3  A    between atoms: C_3  and  C_4
REMARK    4  A    between atoms: C_3  and  C_5
REMARK    5  A    between atoms: C_5  and  N_6
REMARK    6  A    between atoms: C_5  and  C_7
REMARK    7  A    between atoms: C_13  and  C_14
REMARK                            x       y       z     vdW  Elec       q    Type
REMARK                         _______ _______ _______ _____ _____    ______ ____
ROOT
ATOM      1  C   UNL     1       5.143   4.472  16.799  0.00  0.00    +0.000 C 
ATOM      2  O   UNL     1       5.833   3.657  16.186  0.00  0.00    +0.000 OA
ATOM      3  N   UNL     1       3.957   4.098  17.413  0.00  0.00    +0.000 N 
ATOM      4  C   UNL     1       3.566   2.700  17.489  0.00  0.00    +0.000 C 
ATOM      5  C   UNL     1       2.279   2.727  18.295  0.00  0.00    +0.000 C 
ATOM      6  C   UNL     1       1.625   4.013  17.798  0.00  0.00    +0.000 C 
ATOM      7  C   UNL     1       2.811   4.982  17.672  0.00  0.00    +0.000 C 
ENDROOT
BRANCH   7   8
ATOM      8  C   UNL     1       2.945   5.777  18.913  0.00  0.00    +0.000 C 
ATOM      9  N   UNL     1       3.048   6.389  19.892  0.00  0.00    +0.000 NA
ENDBRANCH   7   8
BRANCH   1  10
ATOM     10  C   UNL     1       5.557   5.966  16.939  0.00  0.00    +0.000 C 
BRANCH  10  11
ATOM     11  N   UNL     1       5.344   6.619  15.628  0.00  0.00    +0.000 NA
ATOM     12  H   UNL     1       4.342   6.797  15.523  0.00  0.00    +0.000 HD
ATOM     13  H   UNL     1       5.583   5.962  14.885  0.00  0.00    +0.000 HD
ENDBRANCH  10  11
BRANCH  10  14
ATOM     14  C   UNL     1       7.005   6.160  17.472  0.00  0.00    +0.000 C 
ATOM     15  C   UNL     1       7.109   5.721  18.945  0.00  0.00    +0.000 C 
BRANCH  14  17
ATOM     16  C   UNL     1       8.335   8.134  18.468  0.00  0.00    +0.000 C 
ATOM     17  C   UNL     1       7.439   7.642  17.340  0.00  0.00    +0.000 C 
ENDBRANCH  14  17
ENDBRANCH  10  14
ENDBRANCH   1  10
TORSDOF 5
ENDMDL
MODEL 9
REMARK VINA RESULT:      -5.4      2.251      4.766
REMARK  Name = 
REMARK  7 active torsions:
REMARK  status: ('A' for Active; 'I' for Inactive)
REMARK    1  A    between atoms: C_1  and  C_2
REMARK    2  A    between atoms: C_2  and  C_3
REMARK    3  A    between atoms: C_3  and  C_4
REMARK    4  A    between atoms: C_3  and  C_5
REMARK    5  A    between atoms: C_5  and  N_6
REMARK    6  A    between atoms: C_5  and  C_7
REMARK    7  A    between atoms: C_13  and  C_14
REMARK                            x       y       z     vdW  Elec       q    Type
REMARK                         _______ _______ _______ _____ _____    ______ ____
ROOT
ATOM      1  C   UNL     1       4.209   5.325  18.843  0.00  0.00    +0.000 C 
ATOM      2  O   UNL     1       3.949   5.073  20.020  0.00  0.00    +0.000 OA
ATOM      3  N   UNL     1       5.501   5.623  18.436  0.00  0.00    +0.000 N 
ATOM      4  C   UNL     1       6.619   5.494  19.355  0.00  0.00    +0.000 C 
ATOM      5  C   UNL     1       7.831   5.828  18.501  0.00  0.00    +0.000 C 
ATOM      6  C   UNL     1       7.284   6.934  17.602  0.00  0.00    +0.000 C 
ATOM      7  C   UNL     1       5.864   6.447  17.273  0.00  0.00    +0.000 C 
ENDROOT
BRANCH   7   8
ATOM      8  C   UNL     1       5.871   5.699  15.996  0.00  0.00    +0.000 C 
ATOM      9  N   UNL     1       5.862   5.117  14.994  0.00  0.00    +0.000 NA
ENDBRANCH   7   8
BRANCH   1  10
ATOM     10  C   UNL     1       3.116   5.313  17.734  0.00  0.00    +0.000 C 
BRANCH  10  11
ATOM     11  N   UNL     1       2.037   6.236  18.154  0.00  0.00    +0.000 NA
ATOM     12  H   UNL     1       1.459   5.752  18.846  0.00  0.00    +0.000 HD
ATOM     13  H   UNL     1       1.421   6.412  17.360  0.00  0.00    +0.000 HD
ENDBRANCH  10  11
BRANCH  10  14
ATOM     14  C   UNL     1       2.586   3.889  17.402  0.00  0.00    +0.000 C 
ATOM     15  C   UNL     1       1.411   3.514  18.323  0.00  0.00    +0.000 C 
BRANCH  14  17
ATOM     16  C   UNL     1       3.360   1.656  18.437  0.00  0.00    +0.000 C 
ATOM     17  C   UNL     1       3.718   2.841  17.549  0.00  0.00    +0.000 C 
ENDBRANCH  14  17
ENDBRANCH  10  14
ENDBRANCH   1  10
TORSDOF 5
ENDMDL
