MODEL 1
REMARK VINA RESULT:      -8.0      0.000      0.000
REMARK  Name = 
REMARK  9 active torsions:
REMARK  status: ('A' for Active; 'I' for Inactive)
REMARK    1  A    between atoms: C_1  and  O_2
REMARK    2  A    between atoms: O_2  and  C_3
REMARK    3  A    between atoms: C_4  and  C_5
REMARK    4  A    between atoms: N_7  and  C_8
REMARK    5  A    between atoms: C_8  and  C_9
REMARK    6  A    between atoms: C_16  and  C_17
REMARK    7  A    between atoms: C_17  and  C_18
REMARK    8  A    between atoms: C_23  and  C_24
REMARK    9  A    between atoms: N_28  and  C_29
REMARK                            x       y       z     vdW  Elec       q    Type
REMARK                         _______ _______ _______ _____ _____    ______ ____
ROOT
ATOM      1  C   UNL     1       1.097   9.656  19.505  0.00  0.00    +0.000 A 
ATOM      2  C   UNL     1       0.954   8.712  20.457  0.00  0.00    +0.000 A 
ATOM      3  N   UNL     1       1.698   7.542  20.530  0.00  0.00    +0.000 NA
ATOM      4  C   UNL     1       2.419   7.223  19.498  0.00  0.00    +0.000 A 
ATOM      5  N   UNL     1       2.442   7.976  18.352  0.00  0.00    +0.000 N 
ATOM      6  C   UNL     1       2.965   7.527  17.070  0.00  0.00    +0.000 C 
ATOM      7  C   UNL     1       1.996   9.283  18.380  0.00  0.00    +0.000 A 
ATOM      8  O   UNL     1       2.302  10.084  17.500  0.00  0.00    +0.000 OA
ENDROOT
BRANCH   2   9
ATOM      9  C   UNL     1      -0.129   8.915  21.504  0.00  0.00    +0.000 C 
ATOM     10  O   UNL     1      -0.976   8.084  21.793  0.00  0.00    +0.000 OA
ATOM     11  N   UNL     1      -0.039  10.140  22.132  0.00  0.00    +0.000 N 
ATOM     12  H   UNL     1       0.614  10.817  21.754  0.00  0.00    +0.000 HD
BRANCH  11  13
ATOM     13  C   UNL     1      -0.915  10.505  23.222  0.00  0.00    +0.000 C 
BRANCH  13  14
ATOM     14  C   UNL     1      -1.676  11.772  22.935  0.00  0.00    +0.000 A 
ATOM     15  C   UNL     1      -1.141  12.732  22.063  0.00  0.00    +0.000 A 
ATOM     16  C   UNL     1      -1.825  13.920  21.808  0.00  0.00    +0.000 A 
ATOM     17  C   UNL     1      -3.050  14.163  22.423  0.00  0.00    +0.000 A 
ATOM     18  C   UNL     1      -3.592  13.217  23.292  0.00  0.00    +0.000 A 
ATOM     19  C   UNL     1      -2.908  12.028  23.551  0.00  0.00    +0.000 A 
ENDBRANCH  13  14
ENDBRANCH  11  13
ENDBRANCH   2   9
BRANCH   1  21
ATOM     20  C   UNL     1      -0.844  10.727  18.631  0.00  0.00    +0.000 C 
ATOM     21  O   UNL     1       0.324  10.803  19.443  0.00  0.00    +0.000 OA
ENDBRANCH   1  21
BRANCH   4  22
ATOM     22  C   UNL     1       3.320   5.994  19.594  0.00  0.00    +0.000 C 
BRANCH  22  23
ATOM     23  C   UNL     1       2.680   4.697  20.056  0.00  0.00    +0.000 A 
ATOM     24  C   UNL     1       2.580   4.397  21.428  0.00  0.00    +0.000 A 
ATOM     25  C   UNL     1       1.916   3.255  21.874  0.00  0.00    +0.000 A 
ATOM     26  C   UNL     1       1.347   2.378  20.963  0.00  0.00    +0.000 A 
ATOM     27  C   UNL     1       1.471   2.627  19.599  0.00  0.00    +0.000 A 
ATOM     28  C   UNL     1       2.143   3.773  19.121  0.00  0.00    +0.000 A 
BRANCH  28  29
ATOM     29  C   UNL     1       2.244   3.906  17.610  0.00  0.00    +0.000 C 
ATOM     30  F   UNL     1       3.393   4.470  17.152  0.00  0.00    +0.000 F 
ATOM     31  F   UNL     1       2.152   2.700  16.983  0.00  0.00    +0.000 F 
ATOM     32  F   UNL     1       1.236   4.665  17.094  0.00  0.00    +0.000 F 
ENDBRANCH  28  29
ENDBRANCH  22  23
ENDBRANCH   4  22
TORSDOF 7
ENDMDL
MODEL 2
REMARK VINA RESULT:      -7.9      1.007      1.215
REMARK  Name = 
REMARK  9 active torsions:
REMARK  status: ('A' for Active; 'I' for Inactive)
REMARK    1  A    between atoms: C_1  and  O_2
REMARK    2  A    between atoms: O_2  and  C_3
REMARK    3  A    between atoms: C_4  and  C_5
REMARK    4  A    between atoms: N_7  and  C_8
REMARK    5  A    between atoms: C_8  and  C_9
REMARK    6  A    between atoms: C_16  and  C_17
REMARK    7  A    between atoms: C_17  and  C_18
REMARK    8  A    between atoms: C_23  and  C_24
REMARK    9  A    between atoms: N_28  and  C_29
REMARK                            x       y       z     vdW  Elec       q    Type
REMARK                         _______ _______ _______ _____ _____    ______ ____
ROOT
ATOM      1  C   UNL     1       1.100   9.671  19.541  0.00  0.00    +0.000 A 
ATOM      2  C   UNL     1       0.944   8.719  20.482  0.00  0.00    +0.000 A 
ATOM      3  N   UNL     1       1.673   7.539  20.544  0.00  0.00    +0.000 NA
ATOM      4  C   UNL     1       2.391   7.222  19.509  0.00  0.00    +0.000 A 
ATOM      5  N   UNL     1       2.424   7.986  18.372  0.00  0.00    +0.000 N 
ATOM      6  C   UNL     1       2.943   7.544  17.085  0.00  0.00    +0.000 C 
ATOM      7  C   UNL     1       1.995   9.298  18.412  0.00  0.00    +0.000 A 
ATOM      8  O   UNL     1       2.312  10.104  17.540  0.00  0.00    +0.000 OA
ENDROOT
BRANCH   2   9
ATOM      9  C   UNL     1      -0.137   8.925  21.531  0.00  0.00    +0.000 C 
ATOM     10  O   UNL     1      -0.997   8.103  21.808  0.00  0.00    +0.000 OA
ATOM     11  N   UNL     1      -0.031  10.142  22.173  0.00  0.00    +0.000 N 
ATOM     12  H   UNL     1       0.632  10.813  21.804  0.00  0.00    +0.000 HD
BRANCH  11  13
ATOM     13  C   UNL     1      -0.903  10.506  23.266  0.00  0.00    +0.000 C 
BRANCH  13  14
ATOM     14  C   UNL     1      -1.563  11.840  23.042  0.00  0.00    +0.000 A 
ATOM     15  C   UNL     1      -0.856  12.878  22.415  0.00  0.00    +0.000 A 
ATOM     16  C   UNL     1      -1.448  14.126  22.223  0.00  0.00    +0.000 A 
ATOM     17  C   UNL     1      -2.752  14.351  22.657  0.00  0.00    +0.000 A 
ATOM     18  C   UNL     1      -3.464  13.329  23.281  0.00  0.00    +0.000 A 
ATOM     19  C   UNL     1      -2.873  12.079  23.476  0.00  0.00    +0.000 A 
ENDBRANCH  13  14
ENDBRANCH  11  13
ENDBRANCH   2   9
BRANCH   1  21
ATOM     20  C   UNL     1      -0.817  10.781  18.662  0.00  0.00    +0.000 C 
ATOM     21  O   UNL     1       0.342  10.828  19.490  0.00  0.00    +0.000 OA
ENDBRANCH   1  21
BRANCH   4  22
ATOM     22  C   UNL     1       3.277   5.980  19.593  0.00  0.00    +0.000 C 
BRANCH  22  23
ATOM     23  C   UNL     1       2.614   4.636  19.349  0.00  0.00    +0.000 A 
ATOM     24  C   UNL     1       1.466   4.262  20.074  0.00  0.00    +0.000 A 
ATOM     25  C   UNL     1       0.792   3.072  19.801  0.00  0.00    +0.000 A 
ATOM     26  C   UNL     1       1.254   2.221  18.807  0.00  0.00    +0.000 A 
ATOM     27  C   UNL     1       2.413   2.545  18.107  0.00  0.00    +0.000 A 
ATOM     28  C   UNL     1       3.117   3.741  18.368  0.00  0.00    +0.000 A 
BRANCH  28  29
ATOM     29  C   UNL     1       4.388   3.956  17.563  0.00  0.00    +0.000 C 
ATOM     30  F   UNL     1       5.494   4.261  18.294  0.00  0.00    +0.000 F 
ATOM     31  F   UNL     1       4.723   2.856  16.832  0.00  0.00    +0.000 F 
ATOM     32  F   UNL     1       4.258   4.970  16.661  0.00  0.00    +0.000 F 
ENDBRANCH  28  29
ENDBRANCH  22  23
ENDBRANCH   4  22
TORSDOF 7
ENDMDL
MODEL 3
REMARK VINA RESULT:      -7.8      1.504      2.090
REMARK  Name = 
REMARK  9 active torsions:
REMARK  status: ('A' for Active; 'I' for Inactive)
REMARK    1  A    between atoms: C_1  and  O_2
REMARK    2  A    between atoms: O_2  and  C_3
REMARK    3  A    between atoms: C_4  and  C_5
REMARK    4  A    between atoms: N_7  and  C_8
REMARK    5  A    between atoms: C_8  and  C_9
REMARK    6  A    between atoms: C_16  and  C_17
REMARK    7  A    between atoms: C_17  and  C_18
REMARK    8  A    between atoms: C_23  and  C_24
REMARK    9  A    between atoms: N_28  and  C_29
REMARK                            x       y       z     vdW  Elec       q    Type
REMARK                         _______ _______ _______ _____ _____    ______ ____
ROOT
ATOM      1  C   UNL     1       1.126   9.579  19.465  0.00  0.00    +0.000 A 
ATOM      2  C   UNL     1       1.014   8.643  20.429  0.00  0.00    +0.000 A 
ATOM      3  N   UNL     1       1.794   7.498  20.516  0.00  0.00    +0.000 NA
ATOM      4  C   UNL     1       2.524   7.189  19.487  0.00  0.00    +0.000 A 
ATOM      5  N   UNL     1       2.523   7.928  18.332  0.00  0.00    +0.000 N 
ATOM      6  C   UNL     1       3.059   7.480  17.055  0.00  0.00    +0.000 C 
ATOM      7  C   UNL     1       2.036   9.220  18.344  0.00  0.00    +0.000 A 
ATOM      8  O   UNL     1       2.316  10.019  17.453  0.00  0.00    +0.000 OA
ENDROOT
BRANCH   2   9
ATOM      9  C   UNL     1      -0.074   8.825  21.474  0.00  0.00    +0.000 C 
ATOM     10  O   UNL     1      -0.903   7.976  21.764  0.00  0.00    +0.000 OA
ATOM     11  N   UNL     1      -0.012  10.053  22.099  0.00  0.00    +0.000 N 
ATOM     12  H   UNL     1       0.626  10.743  21.720  0.00  0.00    +0.000 HD
BRANCH  11  13
ATOM     13  C   UNL     1      -0.897  10.402  23.187  0.00  0.00    +0.000 C 
BRANCH  13  14
ATOM     14  C   UNL     1      -1.518  11.759  22.998  0.00  0.00    +0.000 A 
ATOM     15  C   UNL     1      -0.769  12.803  22.432  0.00  0.00    +0.000 A 
ATOM     16  C   UNL     1      -1.326  14.071  22.272  0.00  0.00    +0.000 A 
ATOM     17  C   UNL     1      -2.636  14.312  22.679  0.00  0.00    +0.000 A 
ATOM     18  C   UNL     1      -3.390  13.284  23.243  0.00  0.00    +0.000 A 
ATOM     19  C   UNL     1      -2.834  12.014  23.405  0.00  0.00    +0.000 A 
ENDBRANCH  13  14
ENDBRANCH  11  13
ENDBRANCH   2   9
BRANCH   1  21
ATOM     20  C   UNL     1      -0.828  10.590  18.551  0.00  0.00    +0.000 C 
ATOM     21  O   UNL     1       0.318  10.700  19.390  0.00  0.00    +0.000 OA
ENDBRANCH   1  21
BRANCH   4  22
ATOM     22  C   UNL     1       3.464   5.989  19.597  0.00  0.00    +0.000 C 
BRANCH  22  23
ATOM     23  C   UNL     1       3.044   4.710  18.895  0.00  0.00    +0.000 A 
ATOM     24  C   UNL     1       3.528   4.409  17.607  0.00  0.00    +0.000 A 
ATOM     25  C   UNL     1       3.226   3.199  16.984  0.00  0.00    +0.000 A 
ATOM     26  C   UNL     1       2.424   2.265  17.625  0.00  0.00    +0.000 A 
ATOM     27  C   UNL     1       1.895   2.558  18.879  0.00  0.00    +0.000 A 
ATOM     28  C   UNL     1       2.182   3.778  19.529  0.00  0.00    +0.000 A 
BRANCH  28  29
ATOM     29  C   UNL     1       1.510   3.991  20.876  0.00  0.00    +0.000 C 
ATOM     30  F   UNL     1       2.330   4.417  21.874  0.00  0.00    +0.000 F 
ATOM     31  F   UNL     1       0.507   4.912  20.808  0.00  0.00    +0.000 F 
ATOM     32  F   UNL     1       0.929   2.850  21.345  0.00  0.00    +0.000 F 
ENDBRANCH  28  29
ENDBRANCH  22  23
ENDBRANCH   4  22
TORSDOF 7
ENDMDL
MODEL 4
REMARK VINA RESULT:      -7.8      1.032      1.621
REMARK  Name = 
REMARK  9 active torsions:
REMARK  status: ('A' for Active; 'I' for Inactive)
REMARK    1  A    between atoms: C_1  and  O_2
REMARK    2  A    between atoms: O_2  and  C_3
REMARK    3  A    between atoms: C_4  and  C_5
REMARK    4  A    between atoms: N_7  and  C_8
REMARK    5  A    between atoms: C_8  and  C_9
REMARK    6  A    between atoms: C_16  and  C_17
REMARK    7  A    between atoms: C_17  and  C_18
REMARK    8  A    between atoms: C_23  and  C_24
REMARK    9  A    between atoms: N_28  and  C_29
REMARK                            x       y       z     vdW  Elec       q    Type
REMARK                         _______ _______ _______ _____ _____    ______ ____
ROOT
ATOM      1  C   UNL     1       1.055   9.720  19.548  0.00  0.00    +0.000 A 
ATOM      2  C   UNL     1       0.915   8.785  20.508  0.00  0.00    +0.000 A 
ATOM      3  N   UNL     1       1.646   7.606  20.579  0.00  0.00    +0.000 NA
ATOM      4  C   UNL     1       2.347   7.271  19.539  0.00  0.00    +0.000 A 
ATOM      5  N   UNL     1       2.362   8.014  18.387  0.00  0.00    +0.000 N 
ATOM      6  C   UNL     1       2.859   7.549  17.100  0.00  0.00    +0.000 C 
ATOM      7  C   UNL     1       1.933   9.327  18.411  0.00  0.00    +0.000 A 
ATOM      8  O   UNL     1       2.235  10.117  17.521  0.00  0.00    +0.000 OA
ENDROOT
BRANCH   2   9
ATOM      9  C   UNL     1      -0.149   9.009  21.570  0.00  0.00    +0.000 C 
ATOM     10  O   UNL     1      -0.963   8.169  21.922  0.00  0.00    +0.000 OA
ATOM     11  N   UNL     1      -0.083  10.268  22.133  0.00  0.00    +0.000 N 
ATOM     12  H   UNL     1       0.540  10.943  21.705  0.00  0.00    +0.000 HD
BRANCH  11  13
ATOM     13  C   UNL     1      -0.944  10.662  23.223  0.00  0.00    +0.000 C 
BRANCH  13  14
ATOM     14  C   UNL     1      -1.836  11.815  22.851  0.00  0.00    +0.000 A 
ATOM     15  C   UNL     1      -3.018  12.051  23.569  0.00  0.00    +0.000 A 
ATOM     16  C   UNL     1      -3.865  13.102  23.219  0.00  0.00    +0.000 A 
ATOM     17  C   UNL     1      -3.541  13.928  22.146  0.00  0.00    +0.000 A 
ATOM     18  C   UNL     1      -2.370  13.705  21.424  0.00  0.00    +0.000 A 
ATOM     19  C   UNL     1      -1.522  12.652  21.772  0.00  0.00    +0.000 A 
ENDBRANCH  13  14
ENDBRANCH  11  13
ENDBRANCH   2   9
BRANCH   1  21
ATOM     20  C   UNL     1      -0.808  10.854  18.588  0.00  0.00    +0.000 C 
ATOM     21  O   UNL     1       0.296  10.876  19.488  0.00  0.00    +0.000 OA
ENDBRANCH   1  21
BRANCH   4  22
ATOM     22  C   UNL     1       3.234   6.031  19.631  0.00  0.00    +0.000 C 
BRANCH  22  23
ATOM     23  C   UNL     1       2.573   4.683  19.401  0.00  0.00    +0.000 A 
ATOM     24  C   UNL     1       1.405   4.331  20.104  0.00  0.00    +0.000 A 
ATOM     25  C   UNL     1       0.733   3.137  19.842  0.00  0.00    +0.000 A 
ATOM     26  C   UNL     1       1.216   2.261  18.881  0.00  0.00    +0.000 A 
ATOM     27  C   UNL     1       2.394   2.565  18.204  0.00  0.00    +0.000 A 
ATOM     28  C   UNL     1       3.096   3.764  18.454  0.00  0.00    +0.000 A 
BRANCH  28  29
ATOM     29  C   UNL     1       4.389   3.956  17.678  0.00  0.00    +0.000 C 
ATOM     30  F   UNL     1       4.721   2.937  16.841  0.00  0.00    +0.000 F 
ATOM     31  F   UNL     1       4.356   5.074  16.899  0.00  0.00    +0.000 F 
ATOM     32  F   UNL     1       5.463   4.114  18.502  0.00  0.00    +0.000 F 
ENDBRANCH  28  29
ENDBRANCH  22  23
ENDBRANCH   4  22
TORSDOF 7
ENDMDL
MODEL 5
REMARK VINA RESULT:      -7.7      1.518      2.265
REMARK  Name = 
REMARK  9 active torsions:
REMARK  status: ('A' for Active; 'I' for Inactive)
REMARK    1  A    between atoms: C_1  and  O_2
REMARK    2  A    between atoms: O_2  and  C_3
REMARK    3  A    between atoms: C_4  and  C_5
REMARK    4  A    between atoms: N_7  and  C_8
REMARK    5  A    between atoms: C_8  and  C_9
REMARK    6  A    between atoms: C_16  and  C_17
REMARK    7  A    between atoms: C_17  and  C_18
REMARK    8  A    between atoms: C_23  and  C_24
REMARK    9  A    between atoms: N_28  and  C_29
REMARK                            x       y       z     vdW  Elec       q    Type
REMARK                         _______ _______ _______ _____ _____    ______ ____
ROOT
ATOM      1  C   UNL     1       1.148   9.557  19.439  0.00  0.00    +0.000 A 
ATOM      2  C   UNL     1       1.032   8.641  20.422  0.00  0.00    +0.000 A 
ATOM      3  N   UNL     1       1.803   7.492  20.529  0.00  0.00    +0.000 NA
ATOM      4  C   UNL     1       2.527   7.157  19.503  0.00  0.00    +0.000 A 
ATOM      5  N   UNL     1       2.526   7.872  18.334  0.00  0.00    +0.000 N 
ATOM      6  C   UNL     1       3.054   7.394  17.064  0.00  0.00    +0.000 C 
ATOM      7  C   UNL     1       2.050   9.168  18.321  0.00  0.00    +0.000 A 
ATOM      8  O   UNL     1       2.333   9.946  17.414  0.00  0.00    +0.000 OA
ENDROOT
BRANCH   2   9
ATOM      9  C   UNL     1      -0.050   8.853  21.468  0.00  0.00    +0.000 C 
ATOM     10  O   UNL     1      -0.891   8.021  21.771  0.00  0.00    +0.000 OA
ATOM     11  N   UNL     1       0.032  10.089  22.076  0.00  0.00    +0.000 N 
ATOM     12  H   UNL     1       0.679  10.764  21.686  0.00  0.00    +0.000 HD
BRANCH  11  13
ATOM     13  C   UNL     1      -0.845  10.466  23.161  0.00  0.00    +0.000 C 
BRANCH  13  14
ATOM     14  C   UNL     1      -1.744  11.614  22.790  0.00  0.00    +0.000 A 
ATOM     15  C   UNL     1      -2.873  11.904  23.571  0.00  0.00    +0.000 A 
ATOM     16  C   UNL     1      -3.727  12.950  23.224  0.00  0.00    +0.000 A 
ATOM     17  C   UNL     1      -3.463  13.717  22.092  0.00  0.00    +0.000 A 
ATOM     18  C   UNL     1      -2.345  13.439  21.308  0.00  0.00    +0.000 A 
ATOM     19  C   UNL     1      -1.490  12.391  21.652  0.00  0.00    +0.000 A 
ENDBRANCH  13  14
ENDBRANCH  11  13
ENDBRANCH   2   9
BRANCH   1  21
ATOM     20  C   UNL     1      -0.790  10.572  18.494  0.00  0.00    +0.000 C 
ATOM     21  O   UNL     1       0.348  10.683  19.344  0.00  0.00    +0.000 OA
ENDBRANCH   1  21
BRANCH   4  22
ATOM     22  C   UNL     1       3.457   5.952  19.634  0.00  0.00    +0.000 C 
BRANCH  22  23
ATOM     23  C   UNL     1       3.044   4.674  18.926  0.00  0.00    +0.000 A 
ATOM     24  C   UNL     1       3.548   4.372  17.645  0.00  0.00    +0.000 A 
ATOM     25  C   UNL     1       3.251   3.163  17.017  0.00  0.00    +0.000 A 
ATOM     26  C   UNL     1       2.437   2.231  17.645  0.00  0.00    +0.000 A 
ATOM     27  C   UNL     1       1.890   2.525  18.891  0.00  0.00    +0.000 A 
ATOM     28  C   UNL     1       2.169   3.744  19.546  0.00  0.00    +0.000 A 
BRANCH  28  29
ATOM     29  C   UNL     1       1.477   3.959  20.882  0.00  0.00    +0.000 C 
ATOM     30  F   UNL     1       0.918   2.848  21.432  0.00  0.00    +0.000 F 
ATOM     31  F   UNL     1       2.330   4.446  21.827  0.00  0.00    +0.000 F 
ATOM     32  F   UNL     1       0.467   4.870  20.795  0.00  0.00    +0.000 F 
ENDBRANCH  28  29
ENDBRANCH  22  23
ENDBRANCH   4  22
TORSDOF 7
ENDMDL
MODEL 6
REMARK VINA RESULT:      -7.6      4.473      9.355
REMARK  Name = 
REMARK  9 active torsions:
REMARK  status: ('A' for Active; 'I' for Inactive)
REMARK    1  A    between atoms: C_1  and  O_2
REMARK    2  A    between atoms: O_2  and  C_3
REMARK    3  A    between atoms: C_4  and  C_5
REMARK    4  A    between atoms: N_7  and  C_8
REMARK    5  A    between atoms: C_8  and  C_9
REMARK    6  A    between atoms: C_16  and  C_17
REMARK    7  A    between atoms: C_17  and  C_18
REMARK    8  A    between atoms: C_23  and  C_24
REMARK    9  A    between atoms: N_28  and  C_29
REMARK                            x       y       z     vdW  Elec       q    Type
REMARK                         _______ _______ _______ _____ _____    ______ ____
ROOT
ATOM      1  C   UNL     1       3.978   3.268  19.587  0.00  0.00    +0.000 A 
ATOM      2  C   UNL     1       4.438   4.534  19.543  0.00  0.00    +0.000 A 
ATOM      3  N   UNL     1       3.727   5.650  19.964  0.00  0.00    +0.000 NA
ATOM      4  C   UNL     1       2.459   5.500  20.202  0.00  0.00    +0.000 A 
ATOM      5  N   UNL     1       1.812   4.304  20.026  0.00  0.00    +0.000 N 
ATOM      6  C   UNL     1       0.366   4.139  19.970  0.00  0.00    +0.000 C 
ATOM      7  C   UNL     1       2.540   3.133  19.945  0.00  0.00    +0.000 A 
ATOM      8  O   UNL     1       2.015   2.038  20.126  0.00  0.00    +0.000 OA
ENDROOT
BRANCH   2   9
ATOM      9  C   UNL     1       5.818   4.770  18.951  0.00  0.00    +0.000 C 
ATOM     10  O   UNL     1       6.810   5.056  19.604  0.00  0.00    +0.000 OA
ATOM     11  N   UNL     1       5.848   4.593  17.583  0.00  0.00    +0.000 N 
ATOM     12  H   UNL     1       4.963   4.475  17.104  0.00  0.00    +0.000 HD
BRANCH  11  13
ATOM     13  C   UNL     1       7.077   4.682  16.829  0.00  0.00    +0.000 C 
BRANCH  13  14
ATOM     14  C   UNL     1       6.847   4.519  15.351  0.00  0.00    +0.000 A 
ATOM     15  C   UNL     1       5.785   3.728  14.888  0.00  0.00    +0.000 A 
ATOM     16  C   UNL     1       5.575   3.550  13.521  0.00  0.00    +0.000 A 
ATOM     17  C   UNL     1       6.425   4.159  12.601  0.00  0.00    +0.000 A 
ATOM     18  C   UNL     1       7.484   4.948  13.049  0.00  0.00    +0.000 A 
ATOM     19  C   UNL     1       7.697   5.125  14.417  0.00  0.00    +0.000 A 
ENDBRANCH  13  14
ENDBRANCH  11  13
ENDBRANCH   2   9
BRANCH   1  21
ATOM     20  C   UNL     1       4.103   1.416  18.091  0.00  0.00    +0.000 C 
ATOM     21  O   UNL     1       4.701   2.175  19.139  0.00  0.00    +0.000 OA
ENDBRANCH   1  21
BRANCH   4  22
ATOM     22  C   UNL     1       1.679   6.689  20.759  0.00  0.00    +0.000 C 
BRANCH  22  23
ATOM     23  C   UNL     1       1.616   7.941  19.903  0.00  0.00    +0.000 A 
ATOM     24  C   UNL     1       2.234   7.974  18.638  0.00  0.00    +0.000 A 
ATOM     25  C   UNL     1       2.111   9.083  17.800  0.00  0.00    +0.000 A 
ATOM     26  C   UNL     1       1.380  10.189  18.209  0.00  0.00    +0.000 A 
ATOM     27  C   UNL     1       0.798  10.200  19.473  0.00  0.00    +0.000 A 
ATOM     28  C   UNL     1       0.912   9.093  20.343  0.00  0.00    +0.000 A 
BRANCH  28  29
ATOM     29  C   UNL     1       0.266   9.248  21.710  0.00  0.00    +0.000 C 
ATOM     30  F   UNL     1      -0.337  10.446  21.935  0.00  0.00    +0.000 F 
ATOM     31  F   UNL     1      -0.695   8.307  21.931  0.00  0.00    +0.000 F 
ATOM     32  F   UNL     1       1.166   9.098  22.723  0.00  0.00    +0.000 F 
ENDBRANCH  28  29
ENDBRANCH  22  23
ENDBRANCH   4  22
TORSDOF 7
ENDMDL
MODEL 7
REMARK VINA RESULT:      -7.6      4.409      9.278
REMARK  Name = 
REMARK  9 active torsions:
REMARK  status: ('A' for Active; 'I' for Inactive)
REMARK    1  A    between atoms: C_1  and  O_2
REMARK    2  A    between atoms: O_2  and  C_3
REMARK    3  A    between atoms: C_4  and  C_5
REMARK    4  A    between atoms: N_7  and  C_8
REMARK    5  A    between atoms: C_8  and  C_9
REMARK    6  A    between atoms: C_16  and  C_17
REMARK    7  A    between atoms: C_17  and  C_18
REMARK    8  A    between atoms: C_23  and  C_24
REMARK    9  A    between atoms: N_28  and  C_29
REMARK                            x       y       z     vdW  Elec       q    Type
REMARK                         _______ _______ _______ _____ _____    ______ ____
ROOT
ATOM      1  C   UNL     1       4.065   3.327  19.331  0.00  0.00    +0.000 A 
ATOM      2  C   UNL     1       4.539   4.584  19.220  0.00  0.00    +0.000 A 
ATOM      3  N   UNL     1       3.909   5.716  19.720  0.00  0.00    +0.000 NA
ATOM      4  C   UNL     1       2.679   5.591  20.119  0.00  0.00    +0.000 A 
ATOM      5  N   UNL     1       1.992   4.408  20.035  0.00  0.00    +0.000 N 
ATOM      6  C   UNL     1       0.548   4.271  20.166  0.00  0.00    +0.000 C 
ATOM      7  C   UNL     1       2.682   3.223  19.870  0.00  0.00    +0.000 A 
ATOM      8  O   UNL     1       2.164   2.138  20.124  0.00  0.00    +0.000 OA
ENDROOT
BRANCH   2   9
ATOM      9  C   UNL     1       5.836   4.791  18.455  0.00  0.00    +0.000 C 
ATOM     10  O   UNL     1       6.936   4.434  18.850  0.00  0.00    +0.000 OA
ATOM     11  N   UNL     1       5.643   5.403  17.234  0.00  0.00    +0.000 N 
ATOM     12  H   UNL     1       4.722   5.774  17.034  0.00  0.00    +0.000 HD
BRANCH  11  13
ATOM     13  C   UNL     1       6.730   5.616  16.306  0.00  0.00    +0.000 C 
BRANCH  13  14
ATOM     14  C   UNL     1       6.496   4.922  14.992  0.00  0.00    +0.000 A 
ATOM     15  C   UNL     1       7.433   5.047  13.954  0.00  0.00    +0.000 A 
ATOM     16  C   UNL     1       7.216   4.427  12.724  0.00  0.00    +0.000 A 
ATOM     17  C   UNL     1       6.061   3.679  12.515  0.00  0.00    +0.000 A 
ATOM     18  C   UNL     1       5.123   3.547  13.538  0.00  0.00    +0.000 A 
ATOM     19  C   UNL     1       5.337   4.168  14.770  0.00  0.00    +0.000 A 
ENDBRANCH  13  14
ENDBRANCH  11  13
ENDBRANCH   2   9
BRANCH   1  21
ATOM     20  C   UNL     1       3.980   1.491  17.814  0.00  0.00    +0.000 C 
ATOM     21  O   UNL     1       4.704   2.219  18.802  0.00  0.00    +0.000 OA
ENDBRANCH   1  21
BRANCH   4  22
ATOM     22  C   UNL     1       1.999   6.798  20.763  0.00  0.00    +0.000 C 
BRANCH  22  23
ATOM     23  C   UNL     1       1.705   7.989  19.869  0.00  0.00    +0.000 A 
ATOM     24  C   UNL     1       2.294   8.088  18.593  0.00  0.00    +0.000 A 
ATOM     25  C   UNL     1       1.967   9.128  17.723  0.00  0.00    +0.000 A 
ATOM     26  C   UNL     1       1.055  10.100  18.108  0.00  0.00    +0.000 A 
ATOM     27  C   UNL     1       0.494  10.050  19.381  0.00  0.00    +0.000 A 
ATOM     28  C   UNL     1       0.812   9.012  20.283  0.00  0.00    +0.000 A 
BRANCH  28  29
ATOM     29  C   UNL     1       0.162   9.096  21.654  0.00  0.00    +0.000 C 
ATOM     30  F   UNL     1      -0.763   8.136  21.920  0.00  0.00    +0.000 F 
ATOM     31  F   UNL     1       1.078   9.010  22.660  0.00  0.00    +0.000 F 
ATOM     32  F   UNL     1      -0.481  10.283  21.845  0.00  0.00    +0.000 F 
ENDBRANCH  28  29
ENDBRANCH  22  23
ENDBRANCH   4  22
TORSDOF 7
ENDMDL
MODEL 8
REMARK VINA RESULT:      -7.2      4.332      9.405
REMARK  Name = 
REMARK  9 active torsions:
REMARK  status: ('A' for Active; 'I' for Inactive)
REMARK    1  A    between atoms: C_1  and  O_2
REMARK    2  A    between atoms: O_2  and  C_3
REMARK    3  A    between atoms: C_4  and  C_5
REMARK    4  A    between atoms: N_7  and  C_8
REMARK    5  A    between atoms: C_8  and  C_9
REMARK    6  A    between atoms: C_16  and  C_17
REMARK    7  A    between atoms: C_17  and  C_18
REMARK    8  A    between atoms: C_23  and  C_24
REMARK    9  A    between atoms: N_28  and  C_29
REMARK                            x       y       z     vdW  Elec       q    Type
REMARK                         _______ _______ _______ _____ _____    ______ ____
ROOT
ATOM      1  C   UNL     1       3.947   4.185  18.508  0.00  0.00    +0.000 A 
ATOM      2  C   UNL     1       4.088   5.506  18.279  0.00  0.00    +0.000 A 
ATOM      3  N   UNL     1       3.448   6.507  18.997  0.00  0.00    +0.000 NA
ATOM      4  C   UNL     1       2.480   6.154  19.788  0.00  0.00    +0.000 A 
ATOM      5  N   UNL     1       2.062   4.854  19.908  0.00  0.00    +0.000 N 
ATOM      6  C   UNL     1       0.809   4.434  20.519  0.00  0.00    +0.000 C 
ATOM      7  C   UNL     1       2.881   3.826  19.483  0.00  0.00    +0.000 A 
ATOM      8  O   UNL     1       2.714   2.672  19.867  0.00  0.00    +0.000 OA
ENDROOT
BRANCH   2   9
ATOM      9  C   UNL     1       4.978   5.937  17.124  0.00  0.00    +0.000 C 
ATOM     10  O   UNL     1       4.715   6.845  16.351  0.00  0.00    +0.000 OA
ATOM     11  N   UNL     1       6.149   5.210  17.054  0.00  0.00    +0.000 N 
ATOM     12  H   UNL     1       6.237   4.399  17.655  0.00  0.00    +0.000 HD
BRANCH  11  13
ATOM     13  C   UNL     1       7.178   5.513  16.086  0.00  0.00    +0.000 C 
BRANCH  13  14
ATOM     14  C   UNL     1       6.889   4.897  14.743  0.00  0.00    +0.000 A 
ATOM     15  C   UNL     1       5.857   3.956  14.608  0.00  0.00    +0.000 A 
ATOM     16  C   UNL     1       5.595   3.361  13.374  0.00  0.00    +0.000 A 
ATOM     17  C   UNL     1       6.363   3.698  12.262  0.00  0.00    +0.000 A 
ATOM     18  C   UNL     1       7.391   4.632  12.384  0.00  0.00    +0.000 A 
ATOM     19  C   UNL     1       7.656   5.227  13.618  0.00  0.00    +0.000 A 
ENDBRANCH  13  14
ENDBRANCH  11  13
ENDBRANCH   2   9
BRANCH   1  21
ATOM     20  C   UNL     1       3.732   2.243  17.143  0.00  0.00    +0.000 C 
ATOM     21  O   UNL     1       4.580   3.207  17.761  0.00  0.00    +0.000 OA
ENDBRANCH   1  21
BRANCH   4  22
ATOM     22  C   UNL     1       1.828   7.225  20.660  0.00  0.00    +0.000 C 
BRANCH  22  23
ATOM     23  C   UNL     1       1.351   8.490  19.967  0.00  0.00    +0.000 A 
ATOM     24  C   UNL     1       1.767   8.787  18.655  0.00  0.00    +0.000 A 
ATOM     25  C   UNL     1       1.270   9.896  17.971  0.00  0.00    +0.000 A 
ATOM     26  C   UNL     1       0.356  10.741  18.582  0.00  0.00    +0.000 A 
ATOM     27  C   UNL     1      -0.036  10.495  19.895  0.00  0.00    +0.000 A 
ATOM     28  C   UNL     1       0.456   9.383  20.612  0.00  0.00    +0.000 A 
BRANCH  28  29
ATOM     29  C   UNL     1      -0.020   9.251  22.049  0.00  0.00    +0.000 C 
ATOM     30  F   UNL     1       0.963   9.089  22.975  0.00  0.00    +0.000 F 
ATOM     31  F   UNL     1      -0.729  10.343  22.456  0.00  0.00    +0.000 F 
ATOM     32  F   UNL     1      -0.856   8.188  22.217  0.00  0.00    +0.000 F 
ENDBRANCH  28  29
ENDBRANCH  22  23
ENDBRANCH   4  22
TORSDOF 7
ENDMDL
MODEL 9
REMARK VINA RESULT:      -7.1      5.447      8.267
REMARK  Name = 
REMARK  9 active torsions:
REMARK  status: ('A' for Active; 'I' for Inactive)
REMARK    1  A    between atoms: C_1  and  O_2
REMARK    2  A    between atoms: O_2  and  C_3
REMARK    3  A    between atoms: C_4  and  C_5
REMARK    4  A    between atoms: N_7  and  C_8
REMARK    5  A    between atoms: C_8  and  C_9
REMARK    6  A    between atoms: C_16  and  C_17
REMARK    7  A    between atoms: C_17  and  C_18
REMARK    8  A    between atoms: C_23  and  C_24
REMARK    9  A    between atoms: N_28  and  C_29
REMARK                            x       y       z     vdW  Elec       q    Type
REMARK                         _______ _______ _______ _____ _____    ______ ____
ROOT
ATOM      1  C   UNL     1      -5.356  13.850  22.391  0.00  0.00    +0.000 A 
ATOM      2  C   UNL     1      -4.666  12.956  21.655  0.00  0.00    +0.000 A 
ATOM      3  N   UNL     1      -3.344  12.597  21.880  0.00  0.00    +0.000 NA
ATOM      4  C   UNL     1      -2.655  13.326  22.704  0.00  0.00    +0.000 A 
ATOM      5  N   UNL     1      -3.176  14.434  23.322  0.00  0.00    +0.000 N 
ATOM      6  C   UNL     1      -2.391  15.459  23.996  0.00  0.00    +0.000 C 
ATOM      7  C   UNL     1      -4.544  14.608  23.382  0.00  0.00    +0.000 A 
ATOM      8  O   UNL     1      -5.058  15.376  24.192  0.00  0.00    +0.000 OA
ENDROOT
BRANCH   2   9
ATOM      9  C   UNL     1      -5.367  12.325  20.463  0.00  0.00    +0.000 C 
ATOM     10  O   UNL     1      -6.427  11.722  20.524  0.00  0.00    +0.000 OA
ATOM     11  N   UNL     1      -4.692  12.531  19.277  0.00  0.00    +0.000 N 
ATOM     12  H   UNL     1      -3.764  12.935  19.328  0.00  0.00    +0.000 HD
BRANCH  11  13
ATOM     13  C   UNL     1      -5.225  12.092  18.009  0.00  0.00    +0.000 C 
BRANCH  13  14
ATOM     14  C   UNL     1      -4.222  11.295  17.219  0.00  0.00    +0.000 A 
ATOM     15  C   UNL     1      -4.349  11.188  15.825  0.00  0.00    +0.000 A 
ATOM     16  C   UNL     1      -3.440  10.434  15.085  0.00  0.00    +0.000 A 
ATOM     17  C   UNL     1      -2.396   9.775  15.729  0.00  0.00    +0.000 A 
ATOM     18  C   UNL     1      -2.259   9.872  17.113  0.00  0.00    +0.000 A 
ATOM     19  C   UNL     1      -3.169  10.626  17.856  0.00  0.00    +0.000 A 
ENDBRANCH  13  14
ENDBRANCH  11  13
ENDBRANCH   2   9
BRANCH   1  21
ATOM     20  C   UNL     1      -6.852  15.380  21.340  0.00  0.00    +0.000 C 
ATOM     21  O   UNL     1      -6.668  14.208  22.130  0.00  0.00    +0.000 OA
ENDBRANCH   1  21
BRANCH   4  22
ATOM     22  C   UNL     1      -1.230  12.892  23.041  0.00  0.00    +0.000 C 
BRANCH  22  23
ATOM     23  C   UNL     1      -0.748  11.576  22.456  0.00  0.00    +0.000 A 
ATOM     24  C   UNL     1      -0.844  10.384  23.201  0.00  0.00    +0.000 A 
ATOM     25  C   UNL     1      -0.490   9.154  22.648  0.00  0.00    +0.000 A 
ATOM     26  C   UNL     1      -0.021   9.084  21.344  0.00  0.00    +0.000 A 
ATOM     27  C   UNL     1       0.127  10.253  20.603  0.00  0.00    +0.000 A 
ATOM     28  C   UNL     1      -0.219  11.511  21.140  0.00  0.00    +0.000 A 
BRANCH  28  29
ATOM     29  C   UNL     1       0.028  12.712  20.242  0.00  0.00    +0.000 C 
ATOM     30  F   UNL     1      -1.090  13.327  19.773  0.00  0.00    +0.000 F 
ATOM     31  F   UNL     1       0.743  13.686  20.875  0.00  0.00    +0.000 F 
ATOM     32  F   UNL     1       0.755  12.385  19.136  0.00  0.00    +0.000 F 
ENDBRANCH  28  29
ENDBRANCH  22  23
ENDBRANCH   4  22
TORSDOF 7
ENDMDL
