MODEL 1
REMARK VINA RESULT:      -7.6      0.000      0.000
REMARK  Name = 
REMARK  1 active torsions:
REMARK  status: ('A' for Active; 'I' for Inactive)
REMARK    1  A    between atoms: C_6  and  C_7
REMARK                            x       y       z     vdW  Elec       q    Type
REMARK                         _______ _______ _______ _____ _____    ______ ____
ROOT
ATOM      1  C   UNL     1       2.580   6.957  18.774  0.00  0.00    +0.000 A 
ATOM      2  N   UNL     1       2.285   6.892  20.060  0.00  0.00    +0.000 NA
ATOM      3  C   UNL     1       1.635   8.069  20.293  0.00  0.00    +0.000 A 
ATOM      4  C   UNL     1       1.091   8.594  21.459  0.00  0.00    +0.000 A 
ATOM      5  C   UNL     1       0.490   9.848  21.345  0.00  0.00    +0.000 A 
ATOM      6  C   UNL     1       0.425  10.535  20.120  0.00  0.00    +0.000 A 
ATOM      7  N   UNL     1      -0.203  11.770  20.069  0.00  0.00    +0.000 N 
ATOM      8  C   UNL     1      -0.855  12.209  18.840  0.00  0.00    +0.000 C 
ATOM      9  C   UNL     1      -0.251  13.530  18.367  0.00  0.00    +0.000 C 
ATOM     10  C   UNL     1      -0.243  14.577  19.480  0.00  0.00    +0.000 C 
ATOM     11  C   UNL     1       0.420  14.036  20.743  0.00  0.00    +0.000 C 
ATOM     12  C   UNL     1      -0.203  12.711  21.186  0.00  0.00    +0.000 C 
ATOM     13  N   UNL     1       0.943  10.019  18.977  0.00  0.00    +0.000 NA
ATOM     14  C   UNL     1       1.530   8.818  19.132  0.00  0.00    +0.000 A 
ATOM     15  O   UNL     1       2.150   8.098  18.140  0.00  0.00    +0.000 OA
ENDROOT
BRANCH   1  21
ATOM     16 CL   UNL     1       3.422   1.970  17.732  0.00  0.00    +0.000 Cl
ATOM     17  C   UNL     1       3.769   3.636  17.476  0.00  0.00    +0.000 A 
ATOM     18  C   UNL     1       4.771   4.006  16.584  0.00  0.00    +0.000 A 
ATOM     19  C   UNL     1       5.049   5.358  16.383  0.00  0.00    +0.000 A 
ATOM     20  C   UNL     1       4.331   6.337  17.078  0.00  0.00    +0.000 A 
ATOM     21  C   UNL     1       3.329   5.975  17.989  0.00  0.00    +0.000 A 
ATOM     22  C   UNL     1       3.051   4.609  18.172  0.00  0.00    +0.000 A 
ENDBRANCH   1  21
TORSDOF 1
ENDMDL
MODEL 2
REMARK VINA RESULT:      -7.6      2.193      2.993
REMARK  Name = 
REMARK  1 active torsions:
REMARK  status: ('A' for Active; 'I' for Inactive)
REMARK    1  A    between atoms: C_6  and  C_7
REMARK                            x       y       z     vdW  Elec       q    Type
REMARK                         _______ _______ _______ _____ _____    ______ ____
ROOT
ATOM      1  C   UNL     1       2.061   7.284  19.700  0.00  0.00    +0.000 A 
ATOM      2  N   UNL     1       2.185   8.123  18.688  0.00  0.00    +0.000 NA
ATOM      3  C   UNL     1       1.468   9.211  19.091  0.00  0.00    +0.000 A 
ATOM      4  C   UNL     1       1.208  10.419  18.455  0.00  0.00    +0.000 A 
ATOM      5  C   UNL     1       0.420  11.328  19.161  0.00  0.00    +0.000 A 
ATOM      6  C   UNL     1      -0.073  11.045  20.448  0.00  0.00    +0.000 A 
ATOM      7  N   UNL     1      -0.835  11.999  21.104  0.00  0.00    +0.000 N 
ATOM      8  C   UNL     1      -0.824  12.067  22.561  0.00  0.00    +0.000 C 
ATOM      9  C   UNL     1      -2.240  11.897  23.108  0.00  0.00    +0.000 C 
ATOM     10  C   UNL     1      -3.221  12.862  22.442  0.00  0.00    +0.000 C 
ATOM     11  C   UNL     1      -3.150  12.762  20.922  0.00  0.00    +0.000 C 
ATOM     12  C   UNL     1      -1.719  12.930  20.409  0.00  0.00    +0.000 C 
ATOM     13  N   UNL     1       0.190   9.873  21.077  0.00  0.00    +0.000 NA
ATOM     14  C   UNL     1       0.937   9.015  20.357  0.00  0.00    +0.000 A 
ATOM     15  O   UNL     1       1.318   7.758  20.755  0.00  0.00    +0.000 OA
ENDROOT
BRANCH   1  21
ATOM     16 CL   UNL     1       1.521   2.540  21.666  0.00  0.00    +0.000 Cl
ATOM     17  C   UNL     1       2.386   3.678  20.708  0.00  0.00    +0.000 A 
ATOM     18  C   UNL     1       3.579   3.304  20.095  0.00  0.00    +0.000 A 
ATOM     19  C   UNL     1       4.276   4.231  19.322  0.00  0.00    +0.000 A 
ATOM     20  C   UNL     1       3.786   5.532  19.168  0.00  0.00    +0.000 A 
ATOM     21  C   UNL     1       2.593   5.924  19.791  0.00  0.00    +0.000 A 
ATOM     22  C   UNL     1       1.894   4.974  20.557  0.00  0.00    +0.000 A 
ENDBRANCH   1  21
TORSDOF 1
ENDMDL
MODEL 3
REMARK VINA RESULT:      -7.5      1.175      1.524
REMARK  Name = 
REMARK  1 active torsions:
REMARK  status: ('A' for Active; 'I' for Inactive)
REMARK    1  A    between atoms: C_6  and  C_7
REMARK                            x       y       z     vdW  Elec       q    Type
REMARK                         _______ _______ _______ _____ _____    ______ ____
ROOT
ATOM      1  C   UNL     1       2.590   6.890  18.869  0.00  0.00    +0.000 A 
ATOM      2  N   UNL     1       2.271   6.844  20.150  0.00  0.00    +0.000 NA
ATOM      3  C   UNL     1       1.614   8.023  20.352  0.00  0.00    +0.000 A 
ATOM      4  C   UNL     1       1.047   8.565  21.499  0.00  0.00    +0.000 A 
ATOM      5  C   UNL     1       0.446   9.815  21.355  0.00  0.00    +0.000 A 
ATOM      6  C   UNL     1       0.403  10.484  20.117  0.00  0.00    +0.000 A 
ATOM      7  N   UNL     1      -0.227  11.715  20.036  0.00  0.00    +0.000 N 
ATOM      8  C   UNL     1      -0.856  12.134  18.789  0.00  0.00    +0.000 C 
ATOM      9  C   UNL     1      -0.247  13.449  18.306  0.00  0.00    +0.000 C 
ATOM     10  C   UNL     1      -0.262  14.513  19.403  0.00  0.00    +0.000 C 
ATOM     11  C   UNL     1       0.378  13.993  20.687  0.00  0.00    +0.000 C 
ATOM     12  C   UNL     1      -0.250  12.673  21.138  0.00  0.00    +0.000 C 
ATOM     13  N   UNL     1       0.943   9.951  18.993  0.00  0.00    +0.000 NA
ATOM     14  C   UNL     1       1.530   8.753  19.177  0.00  0.00    +0.000 A 
ATOM     15  O   UNL     1       2.169   8.019  18.209  0.00  0.00    +0.000 OA
ENDROOT
BRANCH   1  21
ATOM     16 CL   UNL     1       6.972   5.777  16.375  0.00  0.00    +0.000 Cl
ATOM     17  C   UNL     1       5.399   5.335  16.915  0.00  0.00    +0.000 A 
ATOM     18  C   UNL     1       4.877   4.088  16.583  0.00  0.00    +0.000 A 
ATOM     19  C   UNL     1       3.601   3.737  17.021  0.00  0.00    +0.000 A 
ATOM     20  C   UNL     1       2.845   4.635  17.785  0.00  0.00    +0.000 A 
ATOM     21  C   UNL     1       3.356   5.898  18.113  0.00  0.00    +0.000 A 
ATOM     22  C   UNL     1       4.649   6.233  17.674  0.00  0.00    +0.000 A 
ENDBRANCH   1  21
TORSDOF 1
ENDMDL
MODEL 4
REMARK VINA RESULT:      -7.5      5.394      7.314
REMARK  Name = 
REMARK  1 active torsions:
REMARK  status: ('A' for Active; 'I' for Inactive)
REMARK    1  A    between atoms: C_6  and  C_7
REMARK                            x       y       z     vdW  Elec       q    Type
REMARK                         _______ _______ _______ _____ _____    ______ ____
ROOT
ATOM      1  C   UNL     1       5.698   4.848  14.863  0.00  0.00    +0.000 A 
ATOM      2  N   UNL     1       5.492   6.081  15.290  0.00  0.00    +0.000 NA
ATOM      3  C   UNL     1       4.869   5.898  16.490  0.00  0.00    +0.000 A 
ATOM      4  C   UNL     1       4.385   6.815  17.415  0.00  0.00    +0.000 A 
ATOM      5  C   UNL     1       3.789   6.280  18.557  0.00  0.00    +0.000 A 
ATOM      6  C   UNL     1       3.695   4.892  18.768  0.00  0.00    +0.000 A 
ATOM      7  N   UNL     1       3.108   4.424  19.933  0.00  0.00    +0.000 N 
ATOM      8  C   UNL     1       3.529   3.149  20.502  0.00  0.00    +0.000 C 
ATOM      9  C   UNL     1       2.335   2.202  20.615  0.00  0.00    +0.000 C 
ATOM     10  C   UNL     1       1.163   2.858  21.344  0.00  0.00    +0.000 C 
ATOM     11  C   UNL     1       0.804   4.202  20.718  0.00  0.00    +0.000 C 
ATOM     12  C   UNL     1       2.022   5.122  20.614  0.00  0.00    +0.000 C 
ATOM     13  N   UNL     1       4.179   3.995  17.873  0.00  0.00    +0.000 NA
ATOM     14  C   UNL     1       4.729   4.549  16.777  0.00  0.00    +0.000 A 
ATOM     15  O   UNL     1       5.265   3.861  15.717  0.00  0.00    +0.000 OA
ENDROOT
BRANCH   1  21
ATOM     16 CL   UNL     1       5.992   1.261  11.161  0.00  0.00    +0.000 Cl
ATOM     17  C   UNL     1       6.478   2.770  11.830  0.00  0.00    +0.000 A 
ATOM     18  C   UNL     1       7.448   3.533  11.187  0.00  0.00    +0.000 A 
ATOM     19  C   UNL     1       7.839   4.754  11.735  0.00  0.00    +0.000 A 
ATOM     20  C   UNL     1       7.265   5.208  12.929  0.00  0.00    +0.000 A 
ATOM     21  C   UNL     1       6.296   4.441  13.591  0.00  0.00    +0.000 A 
ATOM     22  C   UNL     1       5.903   3.218  13.019  0.00  0.00    +0.000 A 
ENDBRANCH   1  21
TORSDOF 1
ENDMDL
MODEL 5
REMARK VINA RESULT:      -7.4      1.728      2.221
REMARK  Name = 
REMARK  1 active torsions:
REMARK  status: ('A' for Active; 'I' for Inactive)
REMARK    1  A    between atoms: C_6  and  C_7
REMARK                            x       y       z     vdW  Elec       q    Type
REMARK                         _______ _______ _______ _____ _____    ______ ____
ROOT
ATOM      1  C   UNL     1       4.020   6.207  18.245  0.00  0.00    +0.000 A 
ATOM      2  N   UNL     1       3.473   5.757  19.360  0.00  0.00    +0.000 NA
ATOM      3  C   UNL     1       2.577   6.733  19.687  0.00  0.00    +0.000 A 
ATOM      4  C   UNL     1       1.707   6.847  20.763  0.00  0.00    +0.000 A 
ATOM      5  C   UNL     1       0.918   7.998  20.796  0.00  0.00    +0.000 A 
ATOM      6  C   UNL     1       0.990   8.980  19.791  0.00  0.00    +0.000 A 
ATOM      7  N   UNL     1       0.165  10.091  19.872  0.00  0.00    +0.000 N 
ATOM      8  C   UNL     1      -0.278  10.763  18.655  0.00  0.00    +0.000 C 
ATOM      9  C   UNL     1       0.152  12.228  18.675  0.00  0.00    +0.000 C 
ATOM     10  C   UNL     1      -0.276  12.924  19.966  0.00  0.00    +0.000 C 
ATOM     11  C   UNL     1       0.189  12.147  21.194  0.00  0.00    +0.000 C 
ATOM     12  C   UNL     1      -0.253  10.683  21.139  0.00  0.00    +0.000 C 
ATOM     13  N   UNL     1       1.829   8.864  18.732  0.00  0.00    +0.000 NA
ATOM     14  C   UNL     1       2.586   7.751  18.746  0.00  0.00    +0.000 A 
ATOM     15  O   UNL     1       3.528   7.414  17.807  0.00  0.00    +0.000 OA
ENDROOT
BRANCH   1  21
ATOM     16 CL   UNL     1       5.465   4.097  13.760  0.00  0.00    +0.000 Cl
ATOM     17  C   UNL     1       5.812   4.565  15.379  0.00  0.00    +0.000 A 
ATOM     18  C   UNL     1       7.064   4.295  15.925  0.00  0.00    +0.000 A 
ATOM     19  C   UNL     1       7.338   4.674  17.238  0.00  0.00    +0.000 A 
ATOM     20  C   UNL     1       6.360   5.316  18.006  0.00  0.00    +0.000 A 
ATOM     21  C   UNL     1       5.092   5.581  17.471  0.00  0.00    +0.000 A 
ATOM     22  C   UNL     1       4.835   5.204  16.141  0.00  0.00    +0.000 A 
ENDBRANCH   1  21
TORSDOF 1
ENDMDL
MODEL 6
REMARK VINA RESULT:      -7.3      1.562      2.445
REMARK  Name = 
REMARK  1 active torsions:
REMARK  status: ('A' for Active; 'I' for Inactive)
REMARK    1  A    between atoms: C_6  and  C_7
REMARK                            x       y       z     vdW  Elec       q    Type
REMARK                         _______ _______ _______ _____ _____    ______ ____
ROOT
ATOM      1  C   UNL     1       2.495   7.304  18.218  0.00  0.00    +0.000 A 
ATOM      2  N   UNL     1       2.665   8.377  17.466  0.00  0.00    +0.000 NA
ATOM      3  C   UNL     1       2.028   9.358  18.169  0.00  0.00    +0.000 A 
ATOM      4  C   UNL     1       1.844  10.706  17.889  0.00  0.00    +0.000 A 
ATOM      5  C   UNL     1       1.127  11.437  18.837  0.00  0.00    +0.000 A 
ATOM      6  C   UNL     1       0.631  10.848  20.014  0.00  0.00    +0.000 A 
ATOM      7  N   UNL     1      -0.057  11.634  20.925  0.00  0.00    +0.000 N 
ATOM      8  C   UNL     1      -0.024  11.304  22.346  0.00  0.00    +0.000 C 
ATOM      9  C   UNL     1      -1.442  11.081  22.868  0.00  0.00    +0.000 C 
ATOM     10  C   UNL     1      -2.363  12.249  22.517  0.00  0.00    +0.000 C 
ATOM     11  C   UNL     1      -2.317  12.560  21.024  0.00  0.00    +0.000 C 
ATOM     12  C   UNL     1      -0.884  12.771  20.533  0.00  0.00    +0.000 C 
ATOM     13  N   UNL     1       0.821   9.535  20.296  0.00  0.00    +0.000 NA
ATOM     14  C   UNL     1       1.499   8.860  19.350  0.00  0.00    +0.000 A 
ATOM     15  O   UNL     1       1.799   7.520  19.383  0.00  0.00    +0.000 OA
ENDROOT
BRANCH   1  21
ATOM     16 CL   UNL     1       1.453   2.256  18.508  0.00  0.00    +0.000 Cl
ATOM     17  C   UNL     1       2.492   3.550  18.052  0.00  0.00    +0.000 A 
ATOM     18  C   UNL     1       3.727   3.276  17.473  0.00  0.00    +0.000 A 
ATOM     19  C   UNL     1       4.565   4.328  17.108  0.00  0.00    +0.000 A 
ATOM     20  C   UNL     1       4.171   5.653  17.329  0.00  0.00    +0.000 A 
ATOM     21  C   UNL     1       2.935   5.940  17.924  0.00  0.00    +0.000 A 
ATOM     22  C   UNL     1       2.095   4.868  18.274  0.00  0.00    +0.000 A 
ENDBRANCH   1  21
TORSDOF 1
ENDMDL
MODEL 7
REMARK VINA RESULT:      -7.3      1.826      2.862
REMARK  Name = 
REMARK  1 active torsions:
REMARK  status: ('A' for Active; 'I' for Inactive)
REMARK    1  A    between atoms: C_6  and  C_7
REMARK                            x       y       z     vdW  Elec       q    Type
REMARK                         _______ _______ _______ _____ _____    ______ ____
ROOT
ATOM      1  C   UNL     1       2.223   6.475  19.665  0.00  0.00    +0.000 A 
ATOM      2  N   UNL     1       2.551   7.098  18.548  0.00  0.00    +0.000 NA
ATOM      3  C   UNL     1       2.053   8.356  18.732  0.00  0.00    +0.000 A 
ATOM      4  C   UNL     1       2.065   9.470  17.903  0.00  0.00    +0.000 A 
ATOM      5  C   UNL     1       1.451  10.617  18.408  0.00  0.00    +0.000 A 
ATOM      6  C   UNL     1       0.865  10.648  19.686  0.00  0.00    +0.000 A 
ATOM      7  N   UNL     1       0.288  11.824  20.137  0.00  0.00    +0.000 N 
ATOM      8  C   UNL     1       0.259  12.125  21.564  0.00  0.00    +0.000 C 
ATOM      9  C   UNL     1      -1.181  12.322  22.033  0.00  0.00    +0.000 C 
ATOM     10  C   UNL     1      -1.923  13.337  21.164  0.00  0.00    +0.000 C 
ATOM     11  C   UNL     1      -1.819  12.980  19.684  0.00  0.00    +0.000 C 
ATOM     12  C   UNL     1      -0.365  12.783  19.250  0.00  0.00    +0.000 C 
ATOM     13  N   UNL     1       0.863   9.564  20.503  0.00  0.00    +0.000 NA
ATOM     14  C   UNL     1       1.448   8.474  19.973  0.00  0.00    +0.000 A 
ATOM     15  O   UNL     1       1.554   7.248  20.583  0.00  0.00    +0.000 OA
ENDROOT
BRANCH   1  21
ATOM     16 CL   UNL     1       3.671   1.810  17.990  0.00  0.00    +0.000 Cl
ATOM     17  C   UNL     1       3.130   2.851  19.249  0.00  0.00    +0.000 A 
ATOM     18  C   UNL     1       2.890   2.336  20.519  0.00  0.00    +0.000 A 
ATOM     19  C   UNL     1       2.450   3.184  21.534  0.00  0.00    +0.000 A 
ATOM     20  C   UNL     1       2.243   4.544  21.277  0.00  0.00    +0.000 A 
ATOM     21  C   UNL     1       2.468   5.071  19.998  0.00  0.00    +0.000 A 
ATOM     22  C   UNL     1       2.924   4.206  18.988  0.00  0.00    +0.000 A 
ENDBRANCH   1  21
TORSDOF 1
ENDMDL
MODEL 8
REMARK VINA RESULT:      -7.2      3.332      7.986
REMARK  Name = 
REMARK  1 active torsions:
REMARK  status: ('A' for Active; 'I' for Inactive)
REMARK    1  A    between atoms: C_6  and  C_7
REMARK                            x       y       z     vdW  Elec       q    Type
REMARK                         _______ _______ _______ _____ _____    ______ ____
ROOT
ATOM      1  C   UNL     1       1.058   8.047  20.902  0.00  0.00    +0.000 A 
ATOM      2  N   UNL     1       1.026   6.801  21.339  0.00  0.00    +0.000 NA
ATOM      3  C   UNL     1       1.934   6.165  20.543  0.00  0.00    +0.000 A 
ATOM      4  C   UNL     1       2.337   4.837  20.502  0.00  0.00    +0.000 A 
ATOM      5  C   UNL     1       3.300   4.517  19.545  0.00  0.00    +0.000 A 
ATOM      6  C   UNL     1       3.841   5.484  18.679  0.00  0.00    +0.000 A 
ATOM      7  N   UNL     1       4.809   5.106  17.762  0.00  0.00    +0.000 N 
ATOM      8  C   UNL     1       5.820   6.064  17.327  0.00  0.00    +0.000 C 
ATOM      9  C   UNL     1       5.767   6.234  15.810  0.00  0.00    +0.000 C 
ATOM     10  C   UNL     1       5.828   4.888  15.089  0.00  0.00    +0.000 C 
ATOM     11  C   UNL     1       4.769   3.926  15.621  0.00  0.00    +0.000 C 
ATOM     12  C   UNL     1       4.846   3.784  17.142  0.00  0.00    +0.000 C 
ATOM     13  N   UNL     1       3.459   6.785  18.725  0.00  0.00    +0.000 NA
ATOM     14  C   UNL     1       2.516   7.050  19.648  0.00  0.00    +0.000 A 
ATOM     15  O   UNL     1       1.944   8.277  19.877  0.00  0.00    +0.000 OA
ENDROOT
BRANCH   1  21
ATOM     16 CL   UNL     1      -1.400  12.421  19.683  0.00  0.00    +0.000 Cl
ATOM     17  C   UNL     1      -0.919  11.243  20.841  0.00  0.00    +0.000 A 
ATOM     18  C   UNL     1      -1.266  11.405  22.180  0.00  0.00    +0.000 A 
ATOM     19  C   UNL     1      -0.871  10.448  23.114  0.00  0.00    +0.000 A 
ATOM     20  C   UNL     1      -0.125   9.334  22.711  0.00  0.00    +0.000 A 
ATOM     21  C   UNL     1       0.241   9.168  21.368  0.00  0.00    +0.000 A 
ATOM     22  C   UNL     1      -0.176  10.135  20.436  0.00  0.00    +0.000 A 
ENDBRANCH   1  21
TORSDOF 1
ENDMDL
MODEL 9
REMARK VINA RESULT:      -7.2      2.192      3.198
REMARK  Name = 
REMARK  1 active torsions:
REMARK  status: ('A' for Active; 'I' for Inactive)
REMARK    1  A    between atoms: C_6  and  C_7
REMARK                            x       y       z     vdW  Elec       q    Type
REMARK                         _______ _______ _______ _____ _____    ______ ____
ROOT
ATOM      1  C   UNL     1       1.890   7.474  19.845  0.00  0.00    +0.000 A 
ATOM      2  N   UNL     1       1.974   8.324  18.837  0.00  0.00    +0.000 NA
ATOM      3  C   UNL     1       1.231   9.388  19.260  0.00  0.00    +0.000 A 
ATOM      4  C   UNL     1       0.926  10.591  18.637  0.00  0.00    +0.000 A 
ATOM      5  C   UNL     1       0.124  11.472  19.363  0.00  0.00    +0.000 A 
ATOM      6  C   UNL     1      -0.339  11.167  20.655  0.00  0.00    +0.000 A 
ATOM      7  N   UNL     1      -1.117  12.093  21.331  0.00  0.00    +0.000 N 
ATOM      8  C   UNL     1      -1.084  12.152  22.789  0.00  0.00    +0.000 C 
ATOM      9  C   UNL     1      -2.485  11.937  23.357  0.00  0.00    +0.000 C 
ATOM     10  C   UNL     1      -3.505  12.877  22.715  0.00  0.00    +0.000 C 
ATOM     11  C   UNL     1      -3.457  12.789  21.193  0.00  0.00    +0.000 C 
ATOM     12  C   UNL     1      -2.040  13.003  20.658  0.00  0.00    +0.000 C 
ATOM     13  N   UNL     1      -0.032   9.998  21.272  0.00  0.00    +0.000 NA
ATOM     14  C   UNL     1       0.728   9.168  20.533  0.00  0.00    +0.000 A 
ATOM     15  O   UNL     1       1.152   7.919  20.916  0.00  0.00    +0.000 OA
ENDROOT
BRANCH   1  21
ATOM     16 CL   UNL     1       5.754   4.330  18.487  0.00  0.00    +0.000 Cl
ATOM     17  C   UNL     1       4.257   4.608  19.289  0.00  0.00    +0.000 A 
ATOM     18  C   UNL     1       3.610   3.558  19.933  0.00  0.00    +0.000 A 
ATOM     19  C   UNL     1       2.396   3.789  20.579  0.00  0.00    +0.000 A 
ATOM     20  C   UNL     1       1.827   5.068  20.575  0.00  0.00    +0.000 A 
ATOM     21  C   UNL     1       2.464   6.130  19.918  0.00  0.00    +0.000 A 
ATOM     22  C   UNL     1       3.694   5.884  19.282  0.00  0.00    +0.000 A 
ENDBRANCH   1  21
TORSDOF 1
ENDMDL
