MODEL 1
REMARK VINA RESULT:      -6.5      0.000      0.000
REMARK  Name = 
REMARK  13 active torsions:
REMARK  status: ('A' for Active; 'I' for Inactive)
REMARK    1  A    between atoms: C_1  and  C_2
REMARK    2  A    between atoms: C_2  and  N_3
REMARK    3  A    between atoms: N_3  and  C_4
REMARK    4  A    between atoms: N_3  and  C_12
REMARK    5  A    between atoms: C_4  and  C_5
REMARK    6  A    between atoms: C_13  and  N_14
REMARK    7  A    between atoms: N_18  and  C_19
REMARK    8  A    between atoms: C_19  and  C_20
REMARK    9  A    between atoms: C_20  and  O_22
REMARK   10  A    between atoms: O_22  and  C_23
REMARK   11  A    between atoms: C_23  and  C_24
REMARK   12  A    between atoms: C_23  and  C_25
REMARK   13  A    between atoms: N_27  and  C_28
REMARK                            x       y       z     vdW  Elec       q    Type
REMARK                         _______ _______ _______ _____ _____    ______ ____
ROOT
ATOM      1  C   UNL     1       2.537   5.610  19.063  0.00  0.00    +0.000 C 
ATOM      2  C   UNL     1       1.935   5.398  20.253  0.00  0.00    +0.000 C 
ATOM      3  C   UNL     1       1.384   6.427  21.171  0.00  0.00    +0.000 C 
ATOM      4  N   UNL     1       1.519   7.841  20.776  0.00  0.00    +0.000 NA
ATOM      5  C   UNL     1       2.346   8.033  19.582  0.00  0.00    +0.000 C 
ATOM      6  N   UNL     1       2.626   6.948  18.638  0.00  0.00    +0.000 N 
ATOM      7  C   UNL     1       3.310   7.372  17.418  0.00  0.00    +0.000 C 
ENDROOT
BRANCH   2   8
ATOM      8  N   UNL     1       1.803   4.058  20.758  0.00  0.00    +0.000 N 
ATOM      9  O   UNL     1       0.723   3.490  20.541  0.00  0.00    +0.000 OA
ATOM     10  O   UNL     1       2.719   3.599  21.456  0.00  0.00    +0.000 OA
ENDBRANCH   2   8
BRANCH   1  11
ATOM     11  N   UNL     1       3.065   4.561  18.301  0.00  0.00    +0.000 N 
BRANCH  11  13
ATOM     12  C   UNL     1       2.466   2.141  17.845  0.00  0.00    +0.000 C 
ATOM     13  C   UNL     1       2.193   3.620  17.566  0.00  0.00    +0.000 C 
ENDBRANCH  11  13
BRANCH  11  14
ATOM     14  C   UNL     1       4.480   4.178  18.441  0.00  0.00    +0.000 C 
BRANCH  14  15
ATOM     15  C   UNL     1       5.318   4.283  17.180  0.00  0.00    +0.000 A 
ATOM     16  C   UNL     1       4.749   4.230  15.899  0.00  0.00    +0.000 A 
ATOM     17  C   UNL     1       5.524   4.521  14.772  0.00  0.00    +0.000 A 
ATOM     18  C   UNL     1       6.854   4.847  14.967  0.00  0.00    +0.000 A 
ATOM     19 CL   UNL     1       7.846   5.334  13.653  0.00  0.00    +0.000 Cl
ATOM     20  N   UNL     1       7.459   4.872  16.171  0.00  0.00    +0.000 NA
ATOM     21  C   UNL     1       6.678   4.581  17.241  0.00  0.00    +0.000 A 
ENDBRANCH  14  15
ENDBRANCH  11  14
ENDBRANCH   1  11
BRANCH   4  22
ATOM     22  C   UNL     1       0.225   8.546  20.709  0.00  0.00    +0.000 C 
BRANCH  22  23
ATOM     23  C   UNL     1       0.255   9.968  21.269  0.00  0.00    +0.000 C 
ATOM     24  O   UNL     1       0.895  10.351  22.233  0.00  0.00    +0.000 OA
BRANCH  23  25
ATOM     25  O   UNL     1      -0.537  10.771  20.499  0.00  0.00    +0.000 OA
BRANCH  25  26
ATOM     26  C   UNL     1      -0.261  10.710  19.085  0.00  0.00    +0.000 C 
ATOM     27  C   UNL     1      -1.500  11.139  18.308  0.00  0.00    +0.000 C 
ATOM     28  C   UNL     1       0.912  11.637  18.808  0.00  0.00    +0.000 C 
ENDBRANCH  25  26
ENDBRANCH  23  25
ENDBRANCH  22  23
ENDBRANCH   4  22
TORSDOF 9
ENDMDL
MODEL 2
REMARK VINA RESULT:      -6.5      0.766      1.060
REMARK  Name = 
REMARK  13 active torsions:
REMARK  status: ('A' for Active; 'I' for Inactive)
REMARK    1  A    between atoms: C_1  and  C_2
REMARK    2  A    between atoms: C_2  and  N_3
REMARK    3  A    between atoms: N_3  and  C_4
REMARK    4  A    between atoms: N_3  and  C_12
REMARK    5  A    between atoms: C_4  and  C_5
REMARK    6  A    between atoms: C_13  and  N_14
REMARK    7  A    between atoms: N_18  and  C_19
REMARK    8  A    between atoms: C_19  and  C_20
REMARK    9  A    between atoms: C_20  and  O_22
REMARK   10  A    between atoms: O_22  and  C_23
REMARK   11  A    between atoms: C_23  and  C_24
REMARK   12  A    between atoms: C_23  and  C_25
REMARK   13  A    between atoms: N_27  and  C_28
REMARK                            x       y       z     vdW  Elec       q    Type
REMARK                         _______ _______ _______ _____ _____    ______ ____
ROOT
ATOM      1  C   UNL     1       2.560   5.775  18.877  0.00  0.00    +0.000 C 
ATOM      2  C   UNL     1       1.943   5.673  20.073  0.00  0.00    +0.000 C 
ATOM      3  C   UNL     1       1.429   6.787  20.911  0.00  0.00    +0.000 C 
ATOM      4  N   UNL     1       1.622   8.163  20.416  0.00  0.00    +0.000 NA
ATOM      5  C   UNL     1       2.462   8.235  19.218  0.00  0.00    +0.000 C 
ATOM      6  N   UNL     1       2.705   7.075  18.357  0.00  0.00    +0.000 N 
ATOM      7  C   UNL     1       3.412   7.382  17.116  0.00  0.00    +0.000 C 
ENDROOT
BRANCH   2   8
ATOM      8  N   UNL     1       1.756   4.379  20.673  0.00  0.00    +0.000 N 
ATOM      9  O   UNL     1       0.651   3.846  20.498  0.00  0.00    +0.000 OA
ATOM     10  O   UNL     1       2.655   3.932  21.400  0.00  0.00    +0.000 OA
ENDBRANCH   2   8
BRANCH   1  11
ATOM     11  N   UNL     1       3.051   4.655  18.196  0.00  0.00    +0.000 N 
BRANCH  11  13
ATOM     12  C   UNL     1       2.419   2.222  17.867  0.00  0.00    +0.000 C 
ATOM     13  C   UNL     1       2.145   3.690  17.536  0.00  0.00    +0.000 C 
ENDBRANCH  11  13
BRANCH  11  14
ATOM     14  C   UNL     1       4.453   4.235  18.365  0.00  0.00    +0.000 C 
BRANCH  14  15
ATOM     15  C   UNL     1       5.316   4.312  17.119  0.00  0.00    +0.000 A 
ATOM     16  C   UNL     1       4.791   4.120  15.833  0.00  0.00    +0.000 A 
ATOM     17  C   UNL     1       5.574   4.388  14.706  0.00  0.00    +0.000 A 
ATOM     18  C   UNL     1       6.869   4.830  14.907  0.00  0.00    +0.000 A 
ATOM     19 CL   UNL     1       7.859   5.294  13.583  0.00  0.00    +0.000 Cl
ATOM     20  N   UNL     1       7.435   4.990  16.119  0.00  0.00    +0.000 NA
ATOM     21  C   UNL     1       6.647   4.719  17.190  0.00  0.00    +0.000 A 
ENDBRANCH  14  15
ENDBRANCH  11  14
ENDBRANCH   1  11
BRANCH   4  22
ATOM     22  C   UNL     1       0.357   8.911  20.287  0.00  0.00    +0.000 C 
BRANCH  22  23
ATOM     23  C   UNL     1       0.512  10.305  19.679  0.00  0.00    +0.000 C 
ATOM     24  O   UNL     1       1.076  11.257  20.191  0.00  0.00    +0.000 OA
BRANCH  23  25
ATOM     25  O   UNL     1      -0.062  10.322  18.441  0.00  0.00    +0.000 OA
BRANCH  25  26
ATOM     26  C   UNL     1      -1.504  10.283  18.445  0.00  0.00    +0.000 C 
ATOM     27  C   UNL     1      -2.046  11.628  18.914  0.00  0.00    +0.000 C 
ATOM     28  C   UNL     1      -1.956   9.972  17.027  0.00  0.00    +0.000 C 
ENDBRANCH  25  26
ENDBRANCH  23  25
ENDBRANCH  22  23
ENDBRANCH   4  22
TORSDOF 9
ENDMDL
MODEL 3
REMARK VINA RESULT:      -6.3      1.159      1.823
REMARK  Name = 
REMARK  13 active torsions:
REMARK  status: ('A' for Active; 'I' for Inactive)
REMARK    1  A    between atoms: C_1  and  C_2
REMARK    2  A    between atoms: C_2  and  N_3
REMARK    3  A    between atoms: N_3  and  C_4
REMARK    4  A    between atoms: N_3  and  C_12
REMARK    5  A    between atoms: C_4  and  C_5
REMARK    6  A    between atoms: C_13  and  N_14
REMARK    7  A    between atoms: N_18  and  C_19
REMARK    8  A    between atoms: C_19  and  C_20
REMARK    9  A    between atoms: C_20  and  O_22
REMARK   10  A    between atoms: O_22  and  C_23
REMARK   11  A    between atoms: C_23  and  C_24
REMARK   12  A    between atoms: C_23  and  C_25
REMARK   13  A    between atoms: N_27  and  C_28
REMARK                            x       y       z     vdW  Elec       q    Type
REMARK                         _______ _______ _______ _____ _____    ______ ____
ROOT
ATOM      1  C   UNL     1       2.874   5.971  18.468  0.00  0.00    +0.000 C 
ATOM      2  C   UNL     1       2.200   6.027  19.636  0.00  0.00    +0.000 C 
ATOM      3  C   UNL     1       1.676   7.244  20.308  0.00  0.00    +0.000 C 
ATOM      4  N   UNL     1       1.927   8.545  19.662  0.00  0.00    +0.000 NA
ATOM      5  C   UNL     1       2.823   8.456  18.507  0.00  0.00    +0.000 C 
ATOM      6  N   UNL     1       3.076   7.195  17.804  0.00  0.00    +0.000 N 
ATOM      7  C   UNL     1       3.848   7.336  16.572  0.00  0.00    +0.000 C 
ENDROOT
BRANCH   2   8
ATOM      8  N   UNL     1       1.952   4.819  20.376  0.00  0.00    +0.000 N 
ATOM      9  O   UNL     1       2.903   4.367  21.030  0.00  0.00    +0.000 OA
ATOM     10  O   UNL     1       0.856   4.257  20.235  0.00  0.00    +0.000 OA
ENDBRANCH   2   8
BRANCH   1  11
ATOM     11  N   UNL     1       3.368   4.767  17.952  0.00  0.00    +0.000 N 
BRANCH  11  13
ATOM     12  C   UNL     1       2.823   2.291  17.924  0.00  0.00    +0.000 C 
ATOM     13  C   UNL     1       2.463   3.704  17.462  0.00  0.00    +0.000 C 
ENDBRANCH  11  13
BRANCH  11  14
ATOM     14  C   UNL     1       4.778   4.393  18.150  0.00  0.00    +0.000 C 
BRANCH  14  15
ATOM     15  C   UNL     1       5.656   4.461  16.914  0.00  0.00    +0.000 A 
ATOM     16  C   UNL     1       5.331   3.788  15.728  0.00  0.00    +0.000 A 
ATOM     17  C   UNL     1       6.059   4.029  14.559  0.00  0.00    +0.000 A 
ATOM     18  C   UNL     1       7.103   4.934  14.621  0.00  0.00    +0.000 A 
ATOM     19 CL   UNL     1       7.973   5.378  13.209  0.00  0.00    +0.000 Cl
ATOM     20  N   UNL     1       7.483   5.575  15.744  0.00  0.00    +0.000 NA
ATOM     21  C   UNL     1       6.756   5.315  16.859  0.00  0.00    +0.000 A 
ENDBRANCH  14  15
ENDBRANCH  11  14
ENDBRANCH   1  11
BRANCH   4  22
ATOM     22  C   UNL     1       0.689   9.297  19.382  0.00  0.00    +0.000 C 
BRANCH  22  23
ATOM     23  C   UNL     1       0.521  10.563  20.221  0.00  0.00    +0.000 C 
ATOM     24  O   UNL     1       1.204  11.570  20.153  0.00  0.00    +0.000 OA
BRANCH  23  25
ATOM     25  O   UNL     1      -0.547  10.410  21.058  0.00  0.00    +0.000 OA
BRANCH  25  26
ATOM     26  C   UNL     1      -0.291  10.766  22.432  0.00  0.00    +0.000 C 
ATOM     27  C   UNL     1      -1.408  11.669  22.938  0.00  0.00    +0.000 C 
ATOM     28  C   UNL     1      -0.222   9.475  23.232  0.00  0.00    +0.000 C 
ENDBRANCH  25  26
ENDBRANCH  23  25
ENDBRANCH  22  23
ENDBRANCH   4  22
TORSDOF 9
ENDMDL
MODEL 4
REMARK VINA RESULT:      -6.3      1.040      1.572
REMARK  Name = 
REMARK  13 active torsions:
REMARK  status: ('A' for Active; 'I' for Inactive)
REMARK    1  A    between atoms: C_1  and  C_2
REMARK    2  A    between atoms: C_2  and  N_3
REMARK    3  A    between atoms: N_3  and  C_4
REMARK    4  A    between atoms: N_3  and  C_12
REMARK    5  A    between atoms: C_4  and  C_5
REMARK    6  A    between atoms: C_13  and  N_14
REMARK    7  A    between atoms: N_18  and  C_19
REMARK    8  A    between atoms: C_19  and  C_20
REMARK    9  A    between atoms: C_20  and  O_22
REMARK   10  A    between atoms: O_22  and  C_23
REMARK   11  A    between atoms: C_23  and  C_24
REMARK   12  A    between atoms: C_23  and  C_25
REMARK   13  A    between atoms: N_27  and  C_28
REMARK                            x       y       z     vdW  Elec       q    Type
REMARK                         _______ _______ _______ _____ _____    ______ ____
ROOT
ATOM      1  C   UNL     1       2.722   5.840  18.675  0.00  0.00    +0.000 C 
ATOM      2  C   UNL     1       2.056   5.782  19.847  0.00  0.00    +0.000 C 
ATOM      3  C   UNL     1       1.543   6.929  20.640  0.00  0.00    +0.000 C 
ATOM      4  N   UNL     1       1.796   8.287  20.124  0.00  0.00    +0.000 NA
ATOM      5  C   UNL     1       2.684   8.309  18.960  0.00  0.00    +0.000 C 
ATOM      6  N   UNL     1       2.925   7.123  18.134  0.00  0.00    +0.000 N 
ATOM      7  C   UNL     1       3.689   7.382  16.916  0.00  0.00    +0.000 C 
ENDROOT
BRANCH   2   8
ATOM      8  N   UNL     1       1.807   4.508  20.466  0.00  0.00    +0.000 N 
ATOM      9  O   UNL     1       0.661   4.052  20.347  0.00  0.00    +0.000 OA
ATOM     10  O   UNL     1       2.706   4.003  21.154  0.00  0.00    +0.000 OA
ENDBRANCH   2   8
BRANCH   1  11
ATOM     11  N   UNL     1       3.206   4.691  18.038  0.00  0.00    +0.000 N 
BRANCH  11  13
ATOM     12  C   UNL     1       2.467   2.270  17.896  0.00  0.00    +0.000 C 
ATOM     13  C   UNL     1       2.294   3.710  17.410  0.00  0.00    +0.000 C 
ENDBRANCH  11  13
BRANCH  11  14
ATOM     14  C   UNL     1       4.603   4.266  18.227  0.00  0.00    +0.000 C 
BRANCH  14  15
ATOM     15  C   UNL     1       5.493   4.367  17.001  0.00  0.00    +0.000 A 
ATOM     16  C   UNL     1       5.151   3.769  15.779  0.00  0.00    +0.000 A 
ATOM     17  C   UNL     1       5.897   4.044  14.629  0.00  0.00    +0.000 A 
ATOM     18  C   UNL     1       6.972   4.905  14.744  0.00  0.00    +0.000 A 
ATOM     19 CL   UNL     1       7.869   5.390  13.362  0.00  0.00    +0.000 Cl
ATOM     20  N   UNL     1       7.368   5.471  15.901  0.00  0.00    +0.000 NA
ATOM     21  C   UNL     1       6.624   5.181  16.997  0.00  0.00    +0.000 A 
ENDBRANCH  14  15
ENDBRANCH  11  14
ENDBRANCH   1  11
BRANCH   4  22
ATOM     22  C   UNL     1       0.559   9.068  19.930  0.00  0.00    +0.000 C 
BRANCH  22  23
ATOM     23  C   UNL     1       0.755  10.582  20.011  0.00  0.00    +0.000 C 
ATOM     24  O   UNL     1       1.036  11.324  19.085  0.00  0.00    +0.000 OA
BRANCH  23  25
ATOM     25  O   UNL     1       0.536  10.995  21.293  0.00  0.00    +0.000 OA
BRANCH  25  26
ATOM     26  C   UNL     1      -0.814  10.807  21.764  0.00  0.00    +0.000 C 
ATOM     27  C   UNL     1      -0.783  10.255  23.184  0.00  0.00    +0.000 C 
ATOM     28  C   UNL     1      -1.508  12.159  21.714  0.00  0.00    +0.000 C 
ENDBRANCH  25  26
ENDBRANCH  23  25
ENDBRANCH  22  23
ENDBRANCH   4  22
TORSDOF 9
ENDMDL
MODEL 5
REMARK VINA RESULT:      -6.1      1.016      1.414
REMARK  Name = 
REMARK  13 active torsions:
REMARK  status: ('A' for Active; 'I' for Inactive)
REMARK    1  A    between atoms: C_1  and  C_2
REMARK    2  A    between atoms: C_2  and  N_3
REMARK    3  A    between atoms: N_3  and  C_4
REMARK    4  A    between atoms: N_3  and  C_12
REMARK    5  A    between atoms: C_4  and  C_5
REMARK    6  A    between atoms: C_13  and  N_14
REMARK    7  A    between atoms: N_18  and  C_19
REMARK    8  A    between atoms: C_19  and  C_20
REMARK    9  A    between atoms: C_20  and  O_22
REMARK   10  A    between atoms: O_22  and  C_23
REMARK   11  A    between atoms: C_23  and  C_24
REMARK   12  A    between atoms: C_23  and  C_25
REMARK   13  A    between atoms: N_27  and  C_28
REMARK                            x       y       z     vdW  Elec       q    Type
REMARK                         _______ _______ _______ _____ _____    ______ ____
ROOT
ATOM      1  C   UNL     1       2.559   5.765  18.873  0.00  0.00    +0.000 C 
ATOM      2  C   UNL     1       1.943   5.653  20.069  0.00  0.00    +0.000 C 
ATOM      3  C   UNL     1       1.421   6.760  20.911  0.00  0.00    +0.000 C 
ATOM      4  N   UNL     1       1.605   8.139  20.423  0.00  0.00    +0.000 NA
ATOM      5  C   UNL     1       2.445   8.223  19.226  0.00  0.00    +0.000 C 
ATOM      6  N   UNL     1       2.695   7.068  18.360  0.00  0.00    +0.000 N 
ATOM      7  C   UNL     1       3.400   7.386  17.120  0.00  0.00    +0.000 C 
ENDROOT
BRANCH   2   8
ATOM      8  N   UNL     1       1.764   4.355  20.661  0.00  0.00    +0.000 N 
ATOM      9  O   UNL     1       2.736   3.889  21.273  0.00  0.00    +0.000 OA
ATOM     10  O   UNL     1       0.706   3.748  20.440  0.00  0.00    +0.000 OA
ENDBRANCH   2   8
BRANCH   1  11
ATOM     11  N   UNL     1       3.057   4.651  18.186  0.00  0.00    +0.000 N 
BRANCH  11  13
ATOM     12  C   UNL     1       2.428   2.216  17.874  0.00  0.00    +0.000 C 
ATOM     13  C   UNL     1       2.158   3.681  17.526  0.00  0.00    +0.000 C 
ENDBRANCH  11  13
BRANCH  11  14
ATOM     14  C   UNL     1       4.463   4.244  18.348  0.00  0.00    +0.000 C 
BRANCH  14  15
ATOM     15  C   UNL     1       5.318   4.322  17.097  0.00  0.00    +0.000 A 
ATOM     16  C   UNL     1       4.788   4.113  15.815  0.00  0.00    +0.000 A 
ATOM     17  C   UNL     1       5.561   4.382  14.682  0.00  0.00    +0.000 A 
ATOM     18  C   UNL     1       6.851   4.842  14.871  0.00  0.00    +0.000 A 
ATOM     19 CL   UNL     1       7.828   5.308  13.538  0.00  0.00    +0.000 Cl
ATOM     20  N   UNL     1       7.422   5.018  16.079  0.00  0.00    +0.000 NA
ATOM     21  C   UNL     1       6.645   4.746  17.156  0.00  0.00    +0.000 A 
ENDBRANCH  14  15
ENDBRANCH  11  14
ENDBRANCH   1  11
BRANCH   4  22
ATOM     22  C   UNL     1       0.335   8.879  20.298  0.00  0.00    +0.000 C 
BRANCH  22  23
ATOM     23  C   UNL     1      -0.127   9.555  21.589  0.00  0.00    +0.000 C 
ATOM     24  O   UNL     1      -0.579   8.997  22.574  0.00  0.00    +0.000 OA
BRANCH  23  25
ATOM     25  O   UNL     1       0.072  10.902  21.487  0.00  0.00    +0.000 OA
BRANCH  25  26
ATOM     26  C   UNL     1      -1.113  11.701  21.683  0.00  0.00    +0.000 C 
ATOM     27  C   UNL     1      -0.759  12.943  22.491  0.00  0.00    +0.000 C 
ATOM     28  C   UNL     1      -1.646  12.072  20.308  0.00  0.00    +0.000 C 
ENDBRANCH  25  26
ENDBRANCH  23  25
ENDBRANCH  22  23
ENDBRANCH   4  22
TORSDOF 9
ENDMDL
MODEL 6
REMARK VINA RESULT:      -6.1      1.201      1.462
REMARK  Name = 
REMARK  13 active torsions:
REMARK  status: ('A' for Active; 'I' for Inactive)
REMARK    1  A    between atoms: C_1  and  C_2
REMARK    2  A    between atoms: C_2  and  N_3
REMARK    3  A    between atoms: N_3  and  C_4
REMARK    4  A    between atoms: N_3  and  C_12
REMARK    5  A    between atoms: C_4  and  C_5
REMARK    6  A    between atoms: C_13  and  N_14
REMARK    7  A    between atoms: N_18  and  C_19
REMARK    8  A    between atoms: C_19  and  C_20
REMARK    9  A    between atoms: C_20  and  O_22
REMARK   10  A    between atoms: O_22  and  C_23
REMARK   11  A    between atoms: C_23  and  C_24
REMARK   12  A    between atoms: C_23  and  C_25
REMARK   13  A    between atoms: N_27  and  C_28
REMARK                            x       y       z     vdW  Elec       q    Type
REMARK                         _______ _______ _______ _____ _____    ______ ____
ROOT
ATOM      1  C   UNL     1       2.304   6.355  19.265  0.00  0.00    +0.000 C 
ATOM      2  C   UNL     1       1.742   6.048  20.453  0.00  0.00    +0.000 C 
ATOM      3  C   UNL     1       1.120   6.991  21.417  0.00  0.00    +0.000 C 
ATOM      4  N   UNL     1       1.125   8.425  21.074  0.00  0.00    +0.000 NA
ATOM      5  C   UNL     1       1.912   8.732  19.878  0.00  0.00    +0.000 C 
ATOM      6  N   UNL     1       2.270   7.711  18.890  0.00  0.00    +0.000 N 
ATOM      7  C   UNL     1       2.894   8.237  17.678  0.00  0.00    +0.000 C 
ENDROOT
BRANCH   2   8
ATOM      8  N   UNL     1       1.735   4.684  20.909  0.00  0.00    +0.000 N 
ATOM      9  O   UNL     1       0.754   4.000  20.587  0.00  0.00    +0.000 OA
ATOM     10  O   UNL     1       2.642   4.313  21.669  0.00  0.00    +0.000 OA
ENDBRANCH   2   8
BRANCH   1  11
ATOM     11  N   UNL     1       2.909   5.386  18.456  0.00  0.00    +0.000 N 
BRANCH  11  13
ATOM     12  C   UNL     1       2.409   3.028  17.670  0.00  0.00    +0.000 C 
ATOM     13  C   UNL     1       2.115   4.525  17.553  0.00  0.00    +0.000 C 
ENDBRANCH  11  13
BRANCH  11  14
ATOM     14  C   UNL     1       4.306   4.985  18.691  0.00  0.00    +0.000 C 
BRANCH  14  15
ATOM     15  C   UNL     1       5.237   5.116  17.499  0.00  0.00    +0.000 A 
ATOM     16  C   UNL     1       6.418   4.368  17.388  0.00  0.00    +0.000 A 
ATOM     17  C   UNL     1       7.145   4.375  16.194  0.00  0.00    +0.000 A 
ATOM     18  C   UNL     1       6.668   5.144  15.149  0.00  0.00    +0.000 A 
ATOM     19 CL   UNL     1       7.432   5.118  13.611  0.00  0.00    +0.000 Cl
ATOM     20  N   UNL     1       5.563   5.913  15.218  0.00  0.00    +0.000 NA
ATOM     21  C   UNL     1       4.884   5.885  16.391  0.00  0.00    +0.000 A 
ENDBRANCH  14  15
ENDBRANCH  11  14
ENDBRANCH   1  11
BRANCH   4  22
ATOM     22  C   UNL     1      -0.226   9.016  21.051  0.00  0.00    +0.000 C 
BRANCH  22  23
ATOM     23  C   UNL     1      -0.340  10.352  21.787  0.00  0.00    +0.000 C 
ATOM     24  O   UNL     1      -0.092  10.550  22.964  0.00  0.00    +0.000 OA
BRANCH  23  25
ATOM     25  O   UNL     1      -0.742  11.316  20.909  0.00  0.00    +0.000 OA
BRANCH  25  26
ATOM     26  C   UNL     1       0.171  12.425  20.773  0.00  0.00    +0.000 C 
ATOM     27  C   UNL     1       0.845  12.363  19.408  0.00  0.00    +0.000 C 
ATOM     28  C   UNL     1      -0.637  13.703  20.930  0.00  0.00    +0.000 C 
ENDBRANCH  25  26
ENDBRANCH  23  25
ENDBRANCH  22  23
ENDBRANCH   4  22
TORSDOF 9
ENDMDL
MODEL 7
REMARK VINA RESULT:      -6.1      0.942      1.377
REMARK  Name = 
REMARK  13 active torsions:
REMARK  status: ('A' for Active; 'I' for Inactive)
REMARK    1  A    between atoms: C_1  and  C_2
REMARK    2  A    between atoms: C_2  and  N_3
REMARK    3  A    between atoms: N_3  and  C_4
REMARK    4  A    between atoms: N_3  and  C_12
REMARK    5  A    between atoms: C_4  and  C_5
REMARK    6  A    between atoms: C_13  and  N_14
REMARK    7  A    between atoms: N_18  and  C_19
REMARK    8  A    between atoms: C_19  and  C_20
REMARK    9  A    between atoms: C_20  and  O_22
REMARK   10  A    between atoms: O_22  and  C_23
REMARK   11  A    between atoms: C_23  and  C_24
REMARK   12  A    between atoms: C_23  and  C_25
REMARK   13  A    between atoms: N_27  and  C_28
REMARK                            x       y       z     vdW  Elec       q    Type
REMARK                         _______ _______ _______ _____ _____    ______ ____
ROOT
ATOM      1  C   UNL     1       2.513   5.978  18.964  0.00  0.00    +0.000 C 
ATOM      2  C   UNL     1       1.923   5.875  20.173  0.00  0.00    +0.000 C 
ATOM      3  C   UNL     1       1.364   6.981  20.992  0.00  0.00    +0.000 C 
ATOM      4  N   UNL     1       1.475   8.352  20.459  0.00  0.00    +0.000 NA
ATOM      5  C   UNL     1       2.291   8.438  19.245  0.00  0.00    +0.000 C 
ATOM      6  N   UNL     1       2.580   7.269  18.410  0.00  0.00    +0.000 N 
ATOM      7  C   UNL     1       3.250   7.582  17.149  0.00  0.00    +0.000 C 
ENDROOT
BRANCH   2   8
ATOM      8  N   UNL     1       1.814   4.589  20.808  0.00  0.00    +0.000 N 
ATOM      9  O   UNL     1       0.756   3.971  20.625  0.00  0.00    +0.000 OA
ATOM     10  O   UNL     1       2.725   4.230  21.569  0.00  0.00    +0.000 OA
ENDBRANCH   2   8
BRANCH   1  11
ATOM     11  N   UNL     1       3.052   4.868  18.303  0.00  0.00    +0.000 N 
BRANCH  11  13
ATOM     12  C   UNL     1       2.386   2.443  17.986  0.00  0.00    +0.000 C 
ATOM     13  C   UNL     1       2.194   3.905  17.579  0.00  0.00    +0.000 C 
ENDBRANCH  11  13
BRANCH  11  14
ATOM     14  C   UNL     1       4.444   4.455  18.551  0.00  0.00    +0.000 C 
BRANCH  14  15
ATOM     15  C   UNL     1       5.374   4.525  17.354  0.00  0.00    +0.000 A 
ATOM     16  C   UNL     1       5.252   3.655  16.261  0.00  0.00    +0.000 A 
ATOM     17  C   UNL     1       6.000   3.875  15.100  0.00  0.00    +0.000 A 
ATOM     18  C   UNL     1       6.858   4.958  15.078  0.00  0.00    +0.000 A 
ATOM     19 CL   UNL     1       7.725   5.370  13.653  0.00  0.00    +0.000 Cl
ATOM     20  N   UNL     1       7.044   5.799  16.114  0.00  0.00    +0.000 NA
ATOM     21  C   UNL     1       6.305   5.555  17.225  0.00  0.00    +0.000 A 
ENDBRANCH  14  15
ENDBRANCH  11  14
ENDBRANCH   1  11
BRANCH   4  22
ATOM     22  C   UNL     1       0.170   9.028  20.334  0.00  0.00    +0.000 C 
BRANCH  22  23
ATOM     23  C   UNL     1       0.188  10.263  19.433  0.00  0.00    +0.000 C 
ATOM     24  O   UNL     1      -0.388  10.386  18.365  0.00  0.00    +0.000 OA
BRANCH  23  25
ATOM     25  O   UNL     1       0.936  11.240  20.024  0.00  0.00    +0.000 OA
BRANCH  25  26
ATOM     26  C   UNL     1       0.981  12.485  19.298  0.00  0.00    +0.000 C 
ATOM     27  C   UNL     1       0.876  13.648  20.278  0.00  0.00    +0.000 C 
ATOM     28  C   UNL     1       2.296  12.523  18.537  0.00  0.00    +0.000 C 
ENDBRANCH  25  26
ENDBRANCH  23  25
ENDBRANCH  22  23
ENDBRANCH   4  22
TORSDOF 9
ENDMDL
MODEL 8
REMARK VINA RESULT:      -6.0      3.561      7.851
REMARK  Name = 
REMARK  13 active torsions:
REMARK  status: ('A' for Active; 'I' for Inactive)
REMARK    1  A    between atoms: C_1  and  C_2
REMARK    2  A    between atoms: C_2  and  N_3
REMARK    3  A    between atoms: N_3  and  C_4
REMARK    4  A    between atoms: N_3  and  C_12
REMARK    5  A    between atoms: C_4  and  C_5
REMARK    6  A    between atoms: C_13  and  N_14
REMARK    7  A    between atoms: N_18  and  C_19
REMARK    8  A    between atoms: C_19  and  C_20
REMARK    9  A    between atoms: C_20  and  O_22
REMARK   10  A    between atoms: O_22  and  C_23
REMARK   11  A    between atoms: C_23  and  C_24
REMARK   12  A    between atoms: C_23  and  C_25
REMARK   13  A    between atoms: N_27  and  C_28
REMARK                            x       y       z     vdW  Elec       q    Type
REMARK                         _______ _______ _______ _____ _____    ______ ____
ROOT
ATOM      1  C   UNL     1       1.108   9.487  19.999  0.00  0.00    +0.000 C 
ATOM      2  C   UNL     1       1.006   8.517  20.932  0.00  0.00    +0.000 C 
ATOM      3  C   UNL     1       1.476   7.113  20.815  0.00  0.00    +0.000 C 
ATOM      4  N   UNL     1       2.101   6.703  19.544  0.00  0.00    +0.000 NA
ATOM      5  C   UNL     1       2.014   7.725  18.499  0.00  0.00    +0.000 C 
ATOM      6  N   UNL     1       1.752   9.135  18.799  0.00  0.00    +0.000 N 
ATOM      7  C   UNL     1       1.885  10.031  17.652  0.00  0.00    +0.000 C 
ENDROOT
BRANCH   2   8
ATOM      8  N   UNL     1       0.361   8.797  22.187  0.00  0.00    +0.000 N 
ATOM      9  O   UNL     1      -0.822   8.443  22.289  0.00  0.00    +0.000 OA
ATOM     10  O   UNL     1       0.983   9.454  23.034  0.00  0.00    +0.000 OA
ENDBRANCH   2   8
BRANCH   1  11
ATOM     11  N   UNL     1       0.582  10.769  20.200  0.00  0.00    +0.000 N 
BRANCH  11  13
ATOM     12  C   UNL     1       1.712  13.012  19.857  0.00  0.00    +0.000 C 
ATOM     13  C   UNL     1       1.389  11.852  20.801  0.00  0.00    +0.000 C 
ENDBRANCH  11  13
BRANCH  11  14
ATOM     14  C   UNL     1      -0.869  11.004  20.099  0.00  0.00    +0.000 C 
BRANCH  14  15
ATOM     15  C   UNL     1      -1.475  10.792  18.724  0.00  0.00    +0.000 A 
ATOM     16  C   UNL     1      -2.161   9.617  18.383  0.00  0.00    +0.000 A 
ATOM     17  C   UNL     1      -2.867   9.539  17.179  0.00  0.00    +0.000 A 
ATOM     18  C   UNL     1      -2.852  10.643  16.346  0.00  0.00    +0.000 A 
ATOM     19 CL   UNL     1      -3.787  10.677  14.906  0.00  0.00    +0.000 Cl
ATOM     20  N   UNL     1      -2.176  11.779  16.607  0.00  0.00    +0.000 NA
ATOM     21  C   UNL     1      -1.500  11.819  17.782  0.00  0.00    +0.000 A 
ENDBRANCH  14  15
ENDBRANCH  11  14
ENDBRANCH   1  11
BRANCH   4  22
ATOM     22  C   UNL     1       3.464   6.164  19.720  0.00  0.00    +0.000 C 
BRANCH  22  23
ATOM     23  C   UNL     1       3.682   4.790  19.086  0.00  0.00    +0.000 C 
ATOM     24  O   UNL     1       4.097   4.573  17.960  0.00  0.00    +0.000 OA
BRANCH  23  25
ATOM     25  O   UNL     1       3.363   3.821  19.992  0.00  0.00    +0.000 OA
BRANCH  25  26
ATOM     26  C   UNL     1       2.012   3.327  19.896  0.00  0.00    +0.000 C 
ATOM     27  C   UNL     1       1.995   2.050  19.066  0.00  0.00    +0.000 C 
ATOM     28  C   UNL     1       1.518   3.071  21.311  0.00  0.00    +0.000 C 
ENDBRANCH  25  26
ENDBRANCH  23  25
ENDBRANCH  22  23
ENDBRANCH   4  22
TORSDOF 9
ENDMDL
MODEL 9
REMARK VINA RESULT:      -5.9      2.444      3.529
REMARK  Name = 
REMARK  13 active torsions:
REMARK  status: ('A' for Active; 'I' for Inactive)
REMARK    1  A    between atoms: C_1  and  C_2
REMARK    2  A    between atoms: C_2  and  N_3
REMARK    3  A    between atoms: N_3  and  C_4
REMARK    4  A    between atoms: N_3  and  C_12
REMARK    5  A    between atoms: C_4  and  C_5
REMARK    6  A    between atoms: C_13  and  N_14
REMARK    7  A    between atoms: N_18  and  C_19
REMARK    8  A    between atoms: C_19  and  C_20
REMARK    9  A    between atoms: C_20  and  O_22
REMARK   10  A    between atoms: O_22  and  C_23
REMARK   11  A    between atoms: C_23  and  C_24
REMARK   12  A    between atoms: C_23  and  C_25
REMARK   13  A    between atoms: N_27  and  C_28
REMARK                            x       y       z     vdW  Elec       q    Type
REMARK                         _______ _______ _______ _____ _____    ______ ____
ROOT
ATOM      1  C   UNL     1       4.475   5.441  18.091  0.00  0.00    +0.000 C 
ATOM      2  C   UNL     1       4.304   6.666  17.550  0.00  0.00    +0.000 C 
ATOM      3  C   UNL     1       3.225   7.637  17.862  0.00  0.00    +0.000 C 
ATOM      4  N   UNL     1       2.204   7.234  18.847  0.00  0.00    +0.000 NA
ATOM      5  C   UNL     1       2.317   5.834  19.259  0.00  0.00    +0.000 C 
ATOM      6  N   UNL     1       3.546   5.057  19.075  0.00  0.00    +0.000 N 
ATOM      7  C   UNL     1       3.529   3.742  19.712  0.00  0.00    +0.000 C 
ENDROOT
BRANCH   2   8
ATOM      8  N   UNL     1       5.213   7.132  16.537  0.00  0.00    +0.000 N 
ATOM      9  O   UNL     1       6.251   7.679  16.937  0.00  0.00    +0.000 OA
ATOM     10  O   UNL     1       4.861   7.056  15.351  0.00  0.00    +0.000 OA
ENDBRANCH   2   8
BRANCH   1  11
ATOM     11  N   UNL     1       5.506   4.585  17.683  0.00  0.00    +0.000 N 
BRANCH  11  13
ATOM     12  C   UNL     1       7.040   5.478  19.492  0.00  0.00    +0.000 C 
ATOM     13  C   UNL     1       6.899   4.776  18.139  0.00  0.00    +0.000 C 
ENDBRANCH  11  13
BRANCH  11  14
ATOM     14  C   UNL     1       5.301   3.655  16.560  0.00  0.00    +0.000 C 
BRANCH  14  15
ATOM     15  C   UNL     1       6.053   3.988  15.284  0.00  0.00    +0.000 A 
ATOM     16  C   UNL     1       5.574   3.623  14.018  0.00  0.00    +0.000 A 
ATOM     17  C   UNL     1       6.193   4.113  12.863  0.00  0.00    +0.000 A 
ATOM     18  C   UNL     1       7.284   4.948  13.018  0.00  0.00    +0.000 A 
ATOM     19 CL   UNL     1       8.029   5.689  11.659  0.00  0.00    +0.000 Cl
ATOM     20  N   UNL     1       7.808   5.296  14.209  0.00  0.00    +0.000 NA
ATOM     21  C   UNL     1       7.185   4.800  15.307  0.00  0.00    +0.000 A 
ENDBRANCH  14  15
ENDBRANCH  11  14
ENDBRANCH   1  11
BRANCH   4  22
ATOM     22  C   UNL     1       2.100   8.170  19.982  0.00  0.00    +0.000 C 
BRANCH  22  23
ATOM     23  C   UNL     1       0.773   8.926  20.052  0.00  0.00    +0.000 C 
ATOM     24  O   UNL     1       0.004   8.949  20.999  0.00  0.00    +0.000 OA
BRANCH  23  25
ATOM     25  O   UNL     1       0.582   9.609  18.886  0.00  0.00    +0.000 OA
BRANCH  25  26
ATOM     26  C   UNL     1      -0.583  10.458  18.869  0.00  0.00    +0.000 C 
ATOM     27  C   UNL     1      -0.148  11.918  18.841  0.00  0.00    +0.000 C 
ATOM     28  C   UNL     1      -1.391  10.100  17.631  0.00  0.00    +0.000 C 
ENDBRANCH  25  26
ENDBRANCH  23  25
ENDBRANCH  22  23
ENDBRANCH   4  22
TORSDOF 9
ENDMDL
