MODEL 1
REMARK VINA RESULT:      -8.4      0.000      0.000
REMARK  Name = 
REMARK  6 active torsions:
REMARK  status: ('A' for Active; 'I' for Inactive)
REMARK    1  A    between atoms: C_2  and  C_17
REMARK    2  A    between atoms: N_3  and  C_4
REMARK    3  A    between atoms: C_4  and  C_5
REMARK    4  A    between atoms: C_4  and  C_12
REMARK    5  A    between atoms: C_5  and  C_6
REMARK    6  A    between atoms: C_14  and  O_15
REMARK                            x       y       z     vdW  Elec       q    Type
REMARK                         _______ _______ _______ _____ _____    ______ ____
ROOT
ATOM      1  C   UNL     1       3.869   4.243  18.092  0.00  0.00    +0.000 C 
ENDROOT
BRANCH   1   4
ATOM      2  O   UNL     1       2.862   5.407  20.460  0.00  0.00    +0.000 OA
ATOM      3  C   UNL     1       2.849   6.086  19.432  0.00  0.00    +0.000 C 
ATOM      4  N   UNL     1       3.331   5.613  18.235  0.00  0.00    +0.000 N 
ATOM      5  H   UNL     1       3.320   6.209  17.416  0.00  0.00    +0.000 HD
BRANCH   3   6
ATOM      6  C   UNL     1       2.224   7.459  19.474  0.00  0.00    +0.000 A 
ATOM      7  C   UNL     1       2.212   8.225  18.213  0.00  0.00    +0.000 A 
ATOM      8  C   UNL     1       1.527   9.377  18.123  0.00  0.00    +0.000 A 
ATOM      9  N   UNL     1       0.860   9.835  19.247  0.00  0.00    +0.000 N 
ATOM     10  C   UNL     1       0.081  10.942  19.436  0.00  0.00    +0.000 A 
ATOM     11  N   UNL     1      -0.342  10.984  20.677  0.00  0.00    +0.000 NA
ATOM     12  N   UNL     1       0.157   9.876  21.332  0.00  0.00    +0.000 NA
ATOM     13  C   UNL     1       0.875   9.183  20.472  0.00  0.00    +0.000 A 
ATOM     14  C   UNL     1       1.576   7.939  20.562  0.00  0.00    +0.000 A 
ENDBRANCH   3   6
ENDBRANCH   1   4
BRANCH   1  15
ATOM     15  C   UNL     1       2.760   3.412  17.408  0.00  0.00    +0.000 C 
ATOM     16  C   UNL     1       2.284   2.067  18.044  0.00  0.00    +0.000 C 
ATOM     17  C   UNL     1       1.023   2.763  18.569  0.00  0.00    +0.000 C 
ATOM     18  C   UNL     1       1.299   3.918  17.592  0.00  0.00    +0.000 C 
BRANCH  17  19
ATOM     19  O   UNL     1       1.010   3.069  19.977  0.00  0.00    +0.000 OA
ATOM     20  H   UNL     1       1.054   2.217  20.442  0.00  0.00    +0.000 HD
ENDBRANCH  17  19
ENDBRANCH   1  15
BRANCH   1  21
ATOM     21  C   UNL     1       5.160   4.208  17.248  0.00  0.00    +0.000 C 
BRANCH  21  22
ATOM     22  C   UNL     1       6.185   5.203  17.730  0.00  0.00    +0.000 A 
ATOM     23  C   UNL     1       6.537   6.297  16.938  0.00  0.00    +0.000 A 
ATOM     24  C   UNL     1       7.532   7.159  17.387  0.00  0.00    +0.000 A 
ATOM     25  C   UNL     1       8.137   6.916  18.613  0.00  0.00    +0.000 A 
ATOM     26  C   UNL     1       7.710   5.823  19.347  0.00  0.00    +0.000 A 
ATOM     27  N   UNL     1       6.755   4.960  18.935  0.00  0.00    +0.000 NA
ENDBRANCH  21  22
ENDBRANCH   1  21
TORSDOF 6
ENDMDL
MODEL 2
REMARK VINA RESULT:      -8.3      1.989      4.381
REMARK  Name = 
REMARK  6 active torsions:
REMARK  status: ('A' for Active; 'I' for Inactive)
REMARK    1  A    between atoms: C_2  and  C_17
REMARK    2  A    between atoms: N_3  and  C_4
REMARK    3  A    between atoms: C_4  and  C_5
REMARK    4  A    between atoms: C_4  and  C_12
REMARK    5  A    between atoms: C_5  and  C_6
REMARK    6  A    between atoms: C_14  and  O_15
REMARK                            x       y       z     vdW  Elec       q    Type
REMARK                         _______ _______ _______ _____ _____    ______ ____
ROOT
ATOM      1  C   UNL     1       4.722   4.346  17.637  0.00  0.00    +0.000 C 
ENDROOT
BRANCH   1   4
ATOM      2  O   UNL     1       4.058   6.884  16.591  0.00  0.00    +0.000 OA
ATOM      3  C   UNL     1       3.601   6.576  17.693  0.00  0.00    +0.000 C 
ATOM      4  N   UNL     1       3.854   5.358  18.277  0.00  0.00    +0.000 N 
ATOM      5  H   UNL     1       3.445   5.135  19.177  0.00  0.00    +0.000 HD
BRANCH   3   6
ATOM      6  C   UNL     1       2.788   7.594  18.454  0.00  0.00    +0.000 A 
ATOM      7  C   UNL     1       2.375   8.804  17.717  0.00  0.00    +0.000 A 
ATOM      8  C   UNL     1       1.511   9.674  18.266  0.00  0.00    +0.000 A 
ATOM      9  N   UNL     1       1.042   9.417  19.545  0.00  0.00    +0.000 N 
ATOM     10  C   UNL     1       0.157  10.103  20.326  0.00  0.00    +0.000 A 
ATOM     11  N   UNL     1       0.015   9.495  21.480  0.00  0.00    +0.000 NA
ATOM     12  N   UNL     1       0.818   8.372  21.468  0.00  0.00    +0.000 NA
ATOM     13  C   UNL     1       1.431   8.322  20.303  0.00  0.00    +0.000 A 
ATOM     14  C   UNL     1       2.326   7.377  19.708  0.00  0.00    +0.000 A 
ENDBRANCH   3   6
ENDBRANCH   1   4
BRANCH   1  15
ATOM     15  C   UNL     1       6.090   4.434  18.352  0.00  0.00    +0.000 C 
ATOM     16  C   UNL     1       7.398   4.623  17.520  0.00  0.00    +0.000 C 
ATOM     17  C   UNL     1       7.433   6.104  17.917  0.00  0.00    +0.000 C 
ATOM     18  C   UNL     1       6.429   5.789  19.037  0.00  0.00    +0.000 C 
BRANCH  17  19
ATOM     19  O   UNL     1       7.026   7.040  16.899  0.00  0.00    +0.000 OA
ATOM     20  H   UNL     1       7.622   6.900  16.145  0.00  0.00    +0.000 HD
ENDBRANCH  17  19
ENDBRANCH   1  15
BRANCH   1  21
ATOM     21  C   UNL     1       4.145   2.921  17.760  0.00  0.00    +0.000 C 
BRANCH  21  22
ATOM     22  C   UNL     1       3.094   2.821  18.837  0.00  0.00    +0.000 A 
ATOM     23  C   UNL     1       1.740   2.774  18.503  0.00  0.00    +0.000 A 
ATOM     24  C   UNL     1       0.796   2.746  19.524  0.00  0.00    +0.000 A 
ATOM     25  C   UNL     1       1.225   2.751  20.845  0.00  0.00    +0.000 A 
ATOM     26  C   UNL     1       2.588   2.771  21.088  0.00  0.00    +0.000 A 
ATOM     27  N   UNL     1       3.530   2.811  20.120  0.00  0.00    +0.000 NA
ENDBRANCH  21  22
ENDBRANCH   1  21
TORSDOF 6
ENDMDL
MODEL 3
REMARK VINA RESULT:      -8.1      1.594      1.844
REMARK  Name = 
REMARK  6 active torsions:
REMARK  status: ('A' for Active; 'I' for Inactive)
REMARK    1  A    between atoms: C_2  and  C_17
REMARK    2  A    between atoms: N_3  and  C_4
REMARK    3  A    between atoms: C_4  and  C_5
REMARK    4  A    between atoms: C_4  and  C_12
REMARK    5  A    between atoms: C_5  and  C_6
REMARK    6  A    between atoms: C_14  and  O_15
REMARK                            x       y       z     vdW  Elec       q    Type
REMARK                         _______ _______ _______ _____ _____    ______ ____
ROOT
ATOM      1  C   UNL     1       3.348   4.904  19.508  0.00  0.00    +0.000 C 
ENDROOT
BRANCH   1   4
ATOM      2  O   UNL     1       2.181   7.091  18.154  0.00  0.00    +0.000 OA
ATOM      3  C   UNL     1       2.170   7.102  19.386  0.00  0.00    +0.000 C 
ATOM      4  N   UNL     1       2.699   6.076  20.133  0.00  0.00    +0.000 N 
ATOM      5  H   UNL     1       2.654   6.113  21.145  0.00  0.00    +0.000 HD
BRANCH   3   6
ATOM      6  C   UNL     1       1.614   8.310  20.099  0.00  0.00    +0.000 A 
ATOM      7  C   UNL     1       1.199   9.449  19.257  0.00  0.00    +0.000 A 
ATOM      8  C   UNL     1       0.539  10.489  19.794  0.00  0.00    +0.000 A 
ATOM      9  N   UNL     1       0.287  10.474  21.157  0.00  0.00    +0.000 N 
ATOM     10  C   UNL     1      -0.370  11.368  21.953  0.00  0.00    +0.000 A 
ATOM     11  N   UNL     1      -0.360  10.949  23.197  0.00  0.00    +0.000 NA
ATOM     12  N   UNL     1       0.310   9.743  23.232  0.00  0.00    +0.000 NA
ATOM     13  C   UNL     1       0.694   9.454  22.005  0.00  0.00    +0.000 A 
ATOM     14  C   UNL     1       1.368   8.331  21.430  0.00  0.00    +0.000 A 
ENDBRANCH   3   6
ENDBRANCH   1   4
BRANCH   1  15
ATOM     15  C   UNL     1       2.234   3.853  19.297  0.00  0.00    +0.000 C 
ATOM     16  C   UNL     1       2.404   2.408  19.862  0.00  0.00    +0.000 C 
ATOM     17  C   UNL     1       1.450   2.748  21.013  0.00  0.00    +0.000 C 
ATOM     18  C   UNL     1       0.982   3.975  20.213  0.00  0.00    +0.000 C 
BRANCH  17  19
ATOM     19  O   UNL     1       2.065   2.983  22.295  0.00  0.00    +0.000 OA
ATOM     20  H   UNL     1       1.881   3.909  22.521  0.00  0.00    +0.000 HD
ENDBRANCH  17  19
ENDBRANCH   1  15
BRANCH   1  21
ATOM     21  C   UNL     1       4.014   5.255  18.161  0.00  0.00    +0.000 C 
BRANCH  21  22
ATOM     22  C   UNL     1       5.428   5.748  18.334  0.00  0.00    +0.000 A 
ATOM     23  C   UNL     1       5.962   6.689  17.452  0.00  0.00    +0.000 A 
ATOM     24  C   UNL     1       7.290   7.074  17.603  0.00  0.00    +0.000 A 
ATOM     25  C   UNL     1       8.043   6.524  18.633  0.00  0.00    +0.000 A 
ATOM     26  C   UNL     1       7.427   5.617  19.479  0.00  0.00    +0.000 A 
ATOM     27  N   UNL     1       6.143   5.213  19.352  0.00  0.00    +0.000 NA
ENDBRANCH  21  22
ENDBRANCH   1  21
TORSDOF 6
ENDMDL
MODEL 4
REMARK VINA RESULT:      -8.1      0.682      1.387
REMARK  Name = 
REMARK  6 active torsions:
REMARK  status: ('A' for Active; 'I' for Inactive)
REMARK    1  A    between atoms: C_2  and  C_17
REMARK    2  A    between atoms: N_3  and  C_4
REMARK    3  A    between atoms: C_4  and  C_5
REMARK    4  A    between atoms: C_4  and  C_12
REMARK    5  A    between atoms: C_5  and  C_6
REMARK    6  A    between atoms: C_14  and  O_15
REMARK                            x       y       z     vdW  Elec       q    Type
REMARK                         _______ _______ _______ _____ _____    ______ ____
ROOT
ATOM      1  C   UNL     1       3.723   3.993  18.316  0.00  0.00    +0.000 C 
ENDROOT
BRANCH   1   4
ATOM      2  O   UNL     1       2.805   5.208  20.695  0.00  0.00    +0.000 OA
ATOM      3  C   UNL     1       2.723   5.853  19.649  0.00  0.00    +0.000 C 
ATOM      4  N   UNL     1       3.158   5.354  18.444  0.00  0.00    +0.000 N 
ATOM      5  H   UNL     1       3.090   5.922  17.608  0.00  0.00    +0.000 HD
BRANCH   3   6
ATOM      6  C   UNL     1       2.066   7.211  19.680  0.00  0.00    +0.000 A 
ATOM      7  C   UNL     1       1.410   7.606  20.941  0.00  0.00    +0.000 A 
ATOM      8  C   UNL     1       0.954   8.859  21.108  0.00  0.00    +0.000 A 
ATOM      9  N   UNL     1       1.092   9.754  20.060  0.00  0.00    +0.000 N 
ATOM     10  C   UNL     1       0.746  11.072  19.959  0.00  0.00    +0.000 A 
ATOM     11  N   UNL     1       1.056  11.525  18.768  0.00  0.00    +0.000 NA
ATOM     12  N   UNL     1       1.630  10.489  18.058  0.00  0.00    +0.000 NA
ATOM     13  C   UNL     1       1.657   9.427  18.836  0.00  0.00    +0.000 A 
ATOM     14  C   UNL     1       2.173   8.103  18.667  0.00  0.00    +0.000 A 
ENDBRANCH   3   6
ENDBRANCH   1   4
BRANCH   1  15
ATOM     15  C   UNL     1       2.603   3.115  17.712  0.00  0.00    +0.000 C 
ATOM     16  C   UNL     1       2.087   1.861  18.487  0.00  0.00    +0.000 C 
ATOM     17  C   UNL     1       0.835   2.640  18.909  0.00  0.00    +0.000 C 
ATOM     18  C   UNL     1       1.153   3.671  17.813  0.00  0.00    +0.000 C 
BRANCH  17  19
ATOM     19  O   UNL     1       0.809   3.104  20.273  0.00  0.00    +0.000 OA
ATOM     20  H   UNL     1      -0.099   3.402  20.443  0.00  0.00    +0.000 HD
ENDBRANCH  17  19
ENDBRANCH   1  15
BRANCH   1  21
ATOM     21  C   UNL     1       4.972   3.963  17.412  0.00  0.00    +0.000 C 
BRANCH  21  22
ATOM     22  C   UNL     1       6.005   4.979  17.830  0.00  0.00    +0.000 A 
ATOM     23  C   UNL     1       6.407   5.983  16.948  0.00  0.00    +0.000 A 
ATOM     24  C   UNL     1       7.407   6.865  17.345  0.00  0.00    +0.000 A 
ATOM     25  C   UNL     1       7.967   6.731  18.608  0.00  0.00    +0.000 A 
ATOM     26  C   UNL     1       7.491   5.724  19.430  0.00  0.00    +0.000 A 
ATOM     27  N   UNL     1       6.530   4.844  19.071  0.00  0.00    +0.000 NA
ENDBRANCH  21  22
ENDBRANCH   1  21
TORSDOF 6
ENDMDL
MODEL 5
REMARK VINA RESULT:      -8.0      0.910      1.647
REMARK  Name = 
REMARK  6 active torsions:
REMARK  status: ('A' for Active; 'I' for Inactive)
REMARK    1  A    between atoms: C_2  and  C_17
REMARK    2  A    between atoms: N_3  and  C_4
REMARK    3  A    between atoms: C_4  and  C_5
REMARK    4  A    between atoms: C_4  and  C_12
REMARK    5  A    between atoms: C_5  and  C_6
REMARK    6  A    between atoms: C_14  and  O_15
REMARK                            x       y       z     vdW  Elec       q    Type
REMARK                         _______ _______ _______ _____ _____    ______ ____
ROOT
ATOM      1  C   UNL     1       4.031   4.339  17.829  0.00  0.00    +0.000 C 
ENDROOT
BRANCH   1   4
ATOM      2  O   UNL     1       3.104   5.247  20.338  0.00  0.00    +0.000 OA
ATOM      3  C   UNL     1       2.932   5.977  19.361  0.00  0.00    +0.000 C 
ATOM      4  N   UNL     1       3.361   5.629  18.102  0.00  0.00    +0.000 N 
ATOM      5  H   UNL     1       3.217   6.265  17.326  0.00  0.00    +0.000 HD
BRANCH   3   6
ATOM      6  C   UNL     1       2.167   7.265  19.539  0.00  0.00    +0.000 A 
ATOM      7  C   UNL     1       1.573   7.509  20.868  0.00  0.00    +0.000 A 
ATOM      8  C   UNL     1       1.026   8.701  21.161  0.00  0.00    +0.000 A 
ATOM      9  N   UNL     1       1.013   9.678  20.178  0.00  0.00    +0.000 N 
ATOM     10  C   UNL     1       0.552  10.963  20.202  0.00  0.00    +0.000 A 
ATOM     11  N   UNL     1       0.736  11.526  19.031  0.00  0.00    +0.000 NA
ATOM     12  N   UNL     1       1.342  10.599  18.207  0.00  0.00    +0.000 NA
ATOM     13  C   UNL     1       1.514   9.490  18.898  0.00  0.00    +0.000 A 
ATOM     14  C   UNL     1       2.126   8.233  18.594  0.00  0.00    +0.000 A 
ENDBRANCH   3   6
ENDBRANCH   1   4
BRANCH   1  15
ATOM     15  C   UNL     1       2.956   3.415  17.212  0.00  0.00    +0.000 C 
ATOM     16  C   UNL     1       2.681   2.009  17.834  0.00  0.00    +0.000 C 
ATOM     17  C   UNL     1       1.407   2.552  18.492  0.00  0.00    +0.000 C 
ATOM     18  C   UNL     1       1.474   3.758  17.542  0.00  0.00    +0.000 C 
BRANCH  17  19
ATOM     19  O   UNL     1       1.490   2.812  19.907  0.00  0.00    +0.000 OA
ATOM     20  H   UNL     1       2.386   2.554  20.180  0.00  0.00    +0.000 HD
ENDBRANCH  17  19
ENDBRANCH   1  15
BRANCH   1  21
ATOM     21  C   UNL     1       5.222   4.493  16.862  0.00  0.00    +0.000 C 
BRANCH  21  22
ATOM     22  C   UNL     1       6.250   5.473  17.371  0.00  0.00    +0.000 A 
ATOM     23  C   UNL     1       7.088   5.131  18.433  0.00  0.00    +0.000 A 
ATOM     24  C   UNL     1       7.980   6.082  18.917  0.00  0.00    +0.000 A 
ATOM     25  C   UNL     1       8.023   7.336  18.324  0.00  0.00    +0.000 A 
ATOM     26  C   UNL     1       7.175   7.583  17.258  0.00  0.00    +0.000 A 
ATOM     27  N   UNL     1       6.289   6.686  16.771  0.00  0.00    +0.000 NA
ENDBRANCH  21  22
ENDBRANCH   1  21
TORSDOF 6
ENDMDL
MODEL 6
REMARK VINA RESULT:      -8.0      1.439      1.877
REMARK  Name = 
REMARK  6 active torsions:
REMARK  status: ('A' for Active; 'I' for Inactive)
REMARK    1  A    between atoms: C_2  and  C_17
REMARK    2  A    between atoms: N_3  and  C_4
REMARK    3  A    between atoms: C_4  and  C_5
REMARK    4  A    between atoms: C_4  and  C_12
REMARK    5  A    between atoms: C_5  and  C_6
REMARK    6  A    between atoms: C_14  and  O_15
REMARK                            x       y       z     vdW  Elec       q    Type
REMARK                         _______ _______ _______ _____ _____    ______ ____
ROOT
ATOM      1  C   UNL     1       3.779   4.204  19.058  0.00  0.00    +0.000 C 
ENDROOT
BRANCH   1   4
ATOM      2  O   UNL     1       2.179   5.510  20.985  0.00  0.00    +0.000 OA
ATOM      3  C   UNL     1       2.513   6.146  19.984  0.00  0.00    +0.000 C 
ATOM      4  N   UNL     1       3.302   5.603  18.999  0.00  0.00    +0.000 N 
ATOM      5  H   UNL     1       3.570   6.165  18.199  0.00  0.00    +0.000 HD
BRANCH   3   6
ATOM      6  C   UNL     1       1.984   7.548  19.803  0.00  0.00    +0.000 A 
ATOM      7  C   UNL     1       2.145   8.154  18.467  0.00  0.00    +0.000 A 
ATOM      8  C   UNL     1       1.553   9.324  18.175  0.00  0.00    +0.000 A 
ATOM      9  N   UNL     1       0.816   9.954  19.164  0.00  0.00    +0.000 N 
ATOM     10  C   UNL     1       0.102  11.118  19.143  0.00  0.00    +0.000 A 
ATOM     11  N   UNL     1      -0.433  11.336  20.321  0.00  0.00    +0.000 NA
ATOM     12  N   UNL     1      -0.077  10.289  21.147  0.00  0.00    +0.000 NA
ATOM     13  C   UNL     1       0.669   9.456  20.451  0.00  0.00    +0.000 A 
ATOM     14  C   UNL     1       1.271   8.194  20.755  0.00  0.00    +0.000 A 
ENDBRANCH   3   6
ENDBRANCH   1   4
BRANCH   1  15
ATOM     15  C   UNL     1       2.848   3.390  18.131  0.00  0.00    +0.000 C 
ATOM     16  C   UNL     1       2.168   2.085  18.653  0.00  0.00    +0.000 C 
ATOM     17  C   UNL     1       0.845   2.842  18.819  0.00  0.00    +0.000 C 
ATOM     18  C   UNL     1       1.412   3.954  17.921  0.00  0.00    +0.000 C 
BRANCH  17  19
ATOM     19  O   UNL     1       0.485   3.194  20.169  0.00  0.00    +0.000 OA
ATOM     20  H   UNL     1       0.490   2.366  20.678  0.00  0.00    +0.000 HD
ENDBRANCH  17  19
ENDBRANCH   1  15
BRANCH   1  21
ATOM     21  C   UNL     1       5.244   4.067  18.596  0.00  0.00    +0.000 C 
BRANCH  21  22
ATOM     22  C   UNL     1       5.427   4.455  17.150  0.00  0.00    +0.000 A 
ATOM     23  C   UNL     1       5.824   3.506  16.207  0.00  0.00    +0.000 A 
ATOM     24  C   UNL     1       6.044   3.913  14.896  0.00  0.00    +0.000 A 
ATOM     25  C   UNL     1       5.850   5.246  14.558  0.00  0.00    +0.000 A 
ATOM     26  C   UNL     1       5.429   6.116  15.549  0.00  0.00    +0.000 A 
ATOM     27  N   UNL     1       5.218   5.756  16.834  0.00  0.00    +0.000 NA
ENDBRANCH  21  22
ENDBRANCH   1  21
TORSDOF 6
ENDMDL
MODEL 7
REMARK VINA RESULT:      -7.9      2.261      4.394
REMARK  Name = 
REMARK  6 active torsions:
REMARK  status: ('A' for Active; 'I' for Inactive)
REMARK    1  A    between atoms: C_2  and  C_17
REMARK    2  A    between atoms: N_3  and  C_4
REMARK    3  A    between atoms: C_4  and  C_5
REMARK    4  A    between atoms: C_4  and  C_12
REMARK    5  A    between atoms: C_5  and  C_6
REMARK    6  A    between atoms: C_14  and  O_15
REMARK                            x       y       z     vdW  Elec       q    Type
REMARK                         _______ _______ _______ _____ _____    ______ ____
ROOT
ATOM      1  C   UNL     1       3.471   5.861  17.628  0.00  0.00    +0.000 C 
ENDROOT
BRANCH   1   4
ATOM      2  O   UNL     1       2.454   8.458  17.176  0.00  0.00    +0.000 OA
ATOM      3  C   UNL     1       2.285   7.957  18.289  0.00  0.00    +0.000 C 
ATOM      4  N   UNL     1       2.729   6.694  18.599  0.00  0.00    +0.000 N 
ATOM      5  H   UNL     1       2.555   6.310  19.521  0.00  0.00    +0.000 HD
BRANCH   3   6
ATOM      6  C   UNL     1       1.625   8.782  19.366  0.00  0.00    +0.000 A 
ATOM      7  C   UNL     1       0.662   9.809  18.923  0.00  0.00    +0.000 A 
ATOM      8  C   UNL     1      -0.093  10.466  19.819  0.00  0.00    +0.000 A 
ATOM      9  N   UNL     1       0.077  10.174  21.163  0.00  0.00    +0.000 N 
ATOM     10  C   UNL     1      -0.557  10.661  22.270  0.00  0.00    +0.000 A 
ATOM     11  N   UNL     1      -0.062  10.102  23.349  0.00  0.00    +0.000 NA
ATOM     12  N   UNL     1       0.919   9.215  22.955  0.00  0.00    +0.000 NA
ATOM     13  C   UNL     1       0.999   9.253  21.640  0.00  0.00    +0.000 A 
ATOM     14  C   UNL     1       1.781   8.529  20.686  0.00  0.00    +0.000 A 
ENDBRANCH   3   6
ENDBRANCH   1   4
BRANCH   1  15
ATOM     15  C   UNL     1       4.960   5.942  18.036  0.00  0.00    +0.000 C 
ATOM     16  C   UNL     1       5.973   4.872  17.520  0.00  0.00    +0.000 C 
ATOM     17  C   UNL     1       6.511   5.877  16.495  0.00  0.00    +0.000 C 
ATOM     18  C   UNL     1       5.828   7.000  17.294  0.00  0.00    +0.000 C 
BRANCH  17  19
ATOM     19  O   UNL     1       6.088   5.676  15.132  0.00  0.00    +0.000 OA
ATOM     20  H   UNL     1       6.897   5.667  14.594  0.00  0.00    +0.000 HD
ENDBRANCH  17  19
ENDBRANCH   1  15
BRANCH   1  21
ATOM     21  C   UNL     1       2.995   4.395  17.633  0.00  0.00    +0.000 C 
BRANCH  21  22
ATOM     22  C   UNL     1       2.575   3.934  19.006  0.00  0.00    +0.000 A 
ATOM     23  C   UNL     1       3.444   3.183  19.798  0.00  0.00    +0.000 A 
ATOM     24  C   UNL     1       3.000   2.722  21.032  0.00  0.00    +0.000 A 
ATOM     25  C   UNL     1       1.713   3.033  21.450  0.00  0.00    +0.000 A 
ATOM     26  C   UNL     1       0.925   3.807  20.614  0.00  0.00    +0.000 A 
ATOM     27  N   UNL     1       1.321   4.260  19.404  0.00  0.00    +0.000 NA
ENDBRANCH  21  22
ENDBRANCH   1  21
TORSDOF 6
ENDMDL
MODEL 8
REMARK VINA RESULT:      -7.9      1.963      4.527
REMARK  Name = 
REMARK  6 active torsions:
REMARK  status: ('A' for Active; 'I' for Inactive)
REMARK    1  A    between atoms: C_2  and  C_17
REMARK    2  A    between atoms: N_3  and  C_4
REMARK    3  A    between atoms: C_4  and  C_5
REMARK    4  A    between atoms: C_4  and  C_12
REMARK    5  A    between atoms: C_5  and  C_6
REMARK    6  A    between atoms: C_14  and  O_15
REMARK                            x       y       z     vdW  Elec       q    Type
REMARK                         _______ _______ _______ _____ _____    ______ ____
ROOT
ATOM      1  C   UNL     1       4.796   4.395  17.523  0.00  0.00    +0.000 C 
ENDROOT
BRANCH   1   4
ATOM      2  O   UNL     1       4.127   6.963  16.555  0.00  0.00    +0.000 OA
ATOM      3  C   UNL     1       3.590   6.580  17.596  0.00  0.00    +0.000 C 
ATOM      4  N   UNL     1       3.839   5.341  18.136  0.00  0.00    +0.000 N 
ATOM      5  H   UNL     1       3.363   5.055  18.984  0.00  0.00    +0.000 HD
BRANCH   3   6
ATOM      6  C   UNL     1       2.677   7.527  18.335  0.00  0.00    +0.000 A 
ATOM      7  C   UNL     1       2.288   7.143  19.706  0.00  0.00    +0.000 A 
ATOM      8  C   UNL     1       1.621   8.006  20.491  0.00  0.00    +0.000 A 
ATOM      9  N   UNL     1       1.288   9.247  19.971  0.00  0.00    +0.000 N 
ATOM     10  C   UNL     1       0.644  10.310  20.537  0.00  0.00    +0.000 A 
ATOM     11  N   UNL     1       0.536  11.283  19.664  0.00  0.00    +0.000 NA
ATOM     12  N   UNL     1       1.129  10.865  18.489  0.00  0.00    +0.000 NA
ATOM     13  C   UNL     1       1.586   9.644  18.675  0.00  0.00    +0.000 A 
ATOM     14  C   UNL     1       2.324   8.739  17.848  0.00  0.00    +0.000 A 
ENDBRANCH   3   6
ENDBRANCH   1   4
BRANCH   1  15
ATOM     15  C   UNL     1       6.107   4.519  18.333  0.00  0.00    +0.000 C 
ATOM     16  C   UNL     1       7.469   4.708  17.594  0.00  0.00    +0.000 C 
ATOM     17  C   UNL     1       7.457   6.198  17.956  0.00  0.00    +0.000 C 
ATOM     18  C   UNL     1       6.378   5.895  19.009  0.00  0.00    +0.000 C 
BRANCH  17  19
ATOM     19  O   UNL     1       7.113   7.104  16.890  0.00  0.00    +0.000 OA
ATOM     20  H   UNL     1       7.305   6.635  16.061  0.00  0.00    +0.000 HD
ENDBRANCH  17  19
ENDBRANCH   1  15
BRANCH   1  21
ATOM     21  C   UNL     1       4.282   2.941  17.557  0.00  0.00    +0.000 C 
BRANCH  21  22
ATOM     22  C   UNL     1       3.161   2.754  18.549  0.00  0.00    +0.000 A 
ATOM     23  C   UNL     1       1.855   2.536  18.108  0.00  0.00    +0.000 A 
ATOM     24  C   UNL     1       0.838   2.431  19.049  0.00  0.00    +0.000 A 
ATOM     25  C   UNL     1       1.148   2.531  20.399  0.00  0.00    +0.000 A 
ATOM     26  C   UNL     1       2.474   2.720  20.751  0.00  0.00    +0.000 A 
ATOM     27  N   UNL     1       3.485   2.839  19.861  0.00  0.00    +0.000 NA
ENDBRANCH  21  22
ENDBRANCH   1  21
TORSDOF 6
ENDMDL
MODEL 9
REMARK VINA RESULT:      -7.9      1.299      1.763
REMARK  Name = 
REMARK  6 active torsions:
REMARK  status: ('A' for Active; 'I' for Inactive)
REMARK    1  A    between atoms: C_2  and  C_17
REMARK    2  A    between atoms: N_3  and  C_4
REMARK    3  A    between atoms: C_4  and  C_5
REMARK    4  A    between atoms: C_4  and  C_12
REMARK    5  A    between atoms: C_5  and  C_6
REMARK    6  A    between atoms: C_14  and  O_15
REMARK                            x       y       z     vdW  Elec       q    Type
REMARK                         _______ _______ _______ _____ _____    ______ ____
ROOT
ATOM      1  C   UNL     1       2.977   3.897  18.222  0.00  0.00    +0.000 C 
ENDROOT
BRANCH   1   4
ATOM      2  O   UNL     1       3.732   5.883  20.083  0.00  0.00    +0.000 OA
ATOM      3  C   UNL     1       2.897   6.182  19.227  0.00  0.00    +0.000 C 
ATOM      4  N   UNL     1       2.479   5.289  18.269  0.00  0.00    +0.000 N 
ATOM      5  H   UNL     1       1.804   5.578  17.570  0.00  0.00    +0.000 HD
BRANCH   3   6
ATOM      6  C   UNL     1       2.268   7.552  19.270  0.00  0.00    +0.000 A 
ATOM      7  C   UNL     1       2.268   8.326  18.013  0.00  0.00    +0.000 A 
ATOM      8  C   UNL     1       1.581   9.477  17.922  0.00  0.00    +0.000 A 
ATOM      9  N   UNL     1       0.898   9.926  19.041  0.00  0.00    +0.000 N 
ATOM     10  C   UNL     1       0.114  11.028  19.227  0.00  0.00    +0.000 A 
ATOM     11  N   UNL     1      -0.324  11.062  20.463  0.00  0.00    +0.000 NA
ATOM     12  N   UNL     1       0.171   9.951  21.117  0.00  0.00    +0.000 NA
ATOM     13  C   UNL     1       0.901   9.266  20.262  0.00  0.00    +0.000 A 
ATOM     14  C   UNL     1       1.605   8.024  20.352  0.00  0.00    +0.000 A 
ENDBRANCH   3   6
ENDBRANCH   1   4
BRANCH   1  15
ATOM     15  C   UNL     1       1.804   3.002  18.683  0.00  0.00    +0.000 C 
ATOM     16  C   UNL     1       2.020   1.951  19.817  0.00  0.00    +0.000 C 
ATOM     17  C   UNL     1       1.308   2.878  20.809  0.00  0.00    +0.000 C 
ATOM     18  C   UNL     1       0.748   3.666  19.614  0.00  0.00    +0.000 C 
BRANCH  17  19
ATOM     19  O   UNL     1       2.159   3.584  21.734  0.00  0.00    +0.000 OA
ATOM     20  H   UNL     1       2.449   2.931  22.392  0.00  0.00    +0.000 HD
ENDBRANCH  17  19
ENDBRANCH   1  15
BRANCH   1  21
ATOM     21  C   UNL     1       3.436   3.490  16.807  0.00  0.00    +0.000 C 
BRANCH  21  22
ATOM     22  C   UNL     1       4.814   4.009  16.480  0.00  0.00    +0.000 A 
ATOM     23  C   UNL     1       5.233   4.119  15.154  0.00  0.00    +0.000 A 
ATOM     24  C   UNL     1       6.532   4.541  14.893  0.00  0.00    +0.000 A 
ATOM     25  C   UNL     1       7.370   4.855  15.955  0.00  0.00    +0.000 A 
ATOM     26  C   UNL     1       6.865   4.744  17.239  0.00  0.00    +0.000 A 
ATOM     27  N   UNL     1       5.613   4.326  17.528  0.00  0.00    +0.000 NA
ENDBRANCH  21  22
ENDBRANCH   1  21
TORSDOF 6
ENDMDL
