MODEL 1
REMARK VINA RESULT:      -7.2      0.000      0.000
REMARK  Name = 
REMARK  3 active torsions:
REMARK  status: ('A' for Active; 'I' for Inactive)
REMARK    1  A    between atoms: C_2  and  C_3
REMARK    2  A    between atoms: C_3  and  C_4
REMARK    3  A    between atoms: C_18  and  O_19
REMARK                            x       y       z     vdW  Elec       q    Type
REMARK                         _______ _______ _______ _____ _____    ______ ____
ROOT
ATOM      1  C   UNL     1       4.729   4.500  18.829  0.00  0.00    +0.000 A 
ATOM      2  C   UNL     1       5.726   5.460  19.006  0.00  0.00    +0.000 A 
ATOM      3  C   UNL     1       6.557   5.816  17.938  0.00  0.00    +0.000 A 
ATOM      4 BR   UNL     1       7.903   7.122  18.274  0.00  0.00    +0.000 Br
ATOM      5  C   UNL     1       6.423   5.246  16.665  0.00  0.00    +0.000 A 
ATOM      6  N   UNL     1       7.222   5.589  15.625  0.00  0.00    +0.000 NA
ATOM      7  C   UNL     1       7.015   5.000  14.436  0.00  0.00    +0.000 A 
ATOM      8  C   UNL     1       7.819   5.344  13.356  0.00  0.00    +0.000 A 
ATOM      9  C   UNL     1       7.637   4.761  12.103  0.00  0.00    +0.000 A 
ATOM     10  C   UNL     1       6.635   3.816  11.927  0.00  0.00    +0.000 A 
ATOM     11  C   UNL     1       5.825   3.464  13.009  0.00  0.00    +0.000 A 
ATOM     12  C   UNL     1       5.997   4.040  14.263  0.00  0.00    +0.000 A 
ATOM     13  N   UNL     1       5.200   3.681  15.287  0.00  0.00    +0.000 NA
ATOM     14  C   UNL     1       5.411   4.284  16.480  0.00  0.00    +0.000 A 
ATOM     15  C   UNL     1       4.594   3.935  17.558  0.00  0.00    +0.000 A 
ENDROOT
BRANCH  15  16
ATOM     16  O   UNL     1       3.614   2.989  17.351  0.00  0.00    +0.000 OA
ATOM     17  H   UNL     1       3.606   2.848  16.379  0.00  0.00    +0.000 HD
ENDBRANCH  15  16
BRANCH   1  18
ATOM     18  C   UNL     1       3.824   4.125  19.978  0.00  0.00    +0.000 C 
BRANCH  18  20
ATOM     19  C   UNL     1       1.437   4.715  20.517  0.00  0.00    +0.000 C 
ATOM     20  C   UNL     1       2.669   5.075  20.134  0.00  0.00    +0.000 C 
ENDBRANCH  18  20
ENDBRANCH   1  18
TORSDOF 3
ENDMDL
MODEL 2
REMARK VINA RESULT:      -7.0      3.187      6.602
REMARK  Name = 
REMARK  3 active torsions:
REMARK  status: ('A' for Active; 'I' for Inactive)
REMARK    1  A    between atoms: C_2  and  C_3
REMARK    2  A    between atoms: C_3  and  C_4
REMARK    3  A    between atoms: C_18  and  O_19
REMARK                            x       y       z     vdW  Elec       q    Type
REMARK                         _______ _______ _______ _____ _____    ______ ____
ROOT
ATOM      1  C   UNL     1       5.610   4.853  16.169  0.00  0.00    +0.000 A 
ATOM      2  C   UNL     1       5.406   3.923  17.189  0.00  0.00    +0.000 A 
ATOM      3  C   UNL     1       4.568   4.234  18.266  0.00  0.00    +0.000 A 
ATOM      4 BR   UNL     1       4.362   2.912  19.623  0.00  0.00    +0.000 Br
ATOM      5  C   UNL     1       3.900   5.461  18.363  0.00  0.00    +0.000 A 
ATOM      6  N   UNL     1       3.083   5.766  19.401  0.00  0.00    +0.000 NA
ATOM      7  C   UNL     1       2.474   6.963  19.408  0.00  0.00    +0.000 A 
ATOM      8  C   UNL     1       1.628   7.291  20.459  0.00  0.00    +0.000 A 
ATOM      9  C   UNL     1       0.971   8.520  20.504  0.00  0.00    +0.000 A 
ATOM     10  C   UNL     1       1.165   9.438  19.480  0.00  0.00    +0.000 A 
ATOM     11  C   UNL     1       2.016   9.115  18.421  0.00  0.00    +0.000 A 
ATOM     12  C   UNL     1       2.676   7.892  18.366  0.00  0.00    +0.000 A 
ATOM     13  N   UNL     1       3.489   7.608  17.331  0.00  0.00    +0.000 NA
ATOM     14  C   UNL     1       4.095   6.398  17.329  0.00  0.00    +0.000 A 
ATOM     15  C   UNL     1       4.940   6.075  16.264  0.00  0.00    +0.000 A 
ENDROOT
BRANCH  15  16
ATOM     16  O   UNL     1       5.115   7.011  15.268  0.00  0.00    +0.000 OA
ATOM     17  H   UNL     1       4.263   7.018  14.781  0.00  0.00    +0.000 HD
ENDBRANCH  15  16
BRANCH   1  18
ATOM     18  C   UNL     1       6.503   4.514  15.000  0.00  0.00    +0.000 C 
BRANCH  18  20
ATOM     19  C   UNL     1       6.260   3.619  12.660  0.00  0.00    +0.000 C 
ATOM     20  C   UNL     1       5.757   3.842  13.881  0.00  0.00    +0.000 C 
ENDBRANCH  18  20
ENDBRANCH   1  18
TORSDOF 3
ENDMDL
MODEL 3
REMARK VINA RESULT:      -7.0      3.627      6.521
REMARK  Name = 
REMARK  3 active torsions:
REMARK  status: ('A' for Active; 'I' for Inactive)
REMARK    1  A    between atoms: C_2  and  C_3
REMARK    2  A    between atoms: C_3  and  C_4
REMARK    3  A    between atoms: C_18  and  O_19
REMARK                            x       y       z     vdW  Elec       q    Type
REMARK                         _______ _______ _______ _____ _____    ______ ____
ROOT
ATOM      1  C   UNL     1       6.096   6.613  17.596  0.00  0.00    +0.000 A 
ATOM      2  C   UNL     1       4.979   7.429  17.411  0.00  0.00    +0.000 A 
ATOM      3  C   UNL     1       3.742   7.061  17.953  0.00  0.00    +0.000 A 
ATOM      4 BR   UNL     1       2.267   8.224  17.635  0.00  0.00    +0.000 Br
ATOM      5  C   UNL     1       3.574   5.889  18.702  0.00  0.00    +0.000 A 
ATOM      6  N   UNL     1       2.380   5.530  19.233  0.00  0.00    +0.000 NA
ATOM      7  C   UNL     1       2.311   4.393  19.947  0.00  0.00    +0.000 A 
ATOM      8  C   UNL     1       1.098   4.012  20.506  0.00  0.00    +0.000 A 
ATOM      9  C   UNL     1       0.982   2.844  21.258  0.00  0.00    +0.000 A 
ATOM     10  C   UNL     1       2.099   2.042  21.452  0.00  0.00    +0.000 A 
ATOM     11  C   UNL     1       3.321   2.418  20.891  0.00  0.00    +0.000 A 
ATOM     12  C   UNL     1       3.448   3.582  20.140  0.00  0.00    +0.000 A 
ATOM     13  N   UNL     1       4.640   3.920  19.613  0.00  0.00    +0.000 NA
ATOM     14  C   UNL     1       4.701   5.069  18.900  0.00  0.00    +0.000 A 
ATOM     15  C   UNL     1       5.927   5.446  18.346  0.00  0.00    +0.000 A 
ENDROOT
BRANCH  15  16
ATOM     16  O   UNL     1       7.013   4.624  18.553  0.00  0.00    +0.000 OA
ATOM     17  H   UNL     1       6.743   3.756  18.182  0.00  0.00    +0.000 HD
ENDBRANCH  15  16
BRANCH   1  18
ATOM     18  C   UNL     1       7.433   7.015  17.023  0.00  0.00    +0.000 C 
BRANCH  18  20
ATOM     19  C   UNL     1       8.184   9.262  17.873  0.00  0.00    +0.000 C 
ATOM     20  C   UNL     1       8.203   7.924  17.939  0.00  0.00    +0.000 C 
ENDBRANCH  18  20
ENDBRANCH   1  18
TORSDOF 3
ENDMDL
MODEL 4
REMARK VINA RESULT:      -6.9      3.575      4.891
REMARK  Name = 
REMARK  3 active torsions:
REMARK  status: ('A' for Active; 'I' for Inactive)
REMARK    1  A    between atoms: C_2  and  C_3
REMARK    2  A    between atoms: C_3  and  C_4
REMARK    3  A    between atoms: C_18  and  O_19
REMARK                            x       y       z     vdW  Elec       q    Type
REMARK                         _______ _______ _______ _____ _____    ______ ____
ROOT
ATOM      1  C   UNL     1       1.510   7.847  20.223  0.00  0.00    +0.000 A 
ATOM      2  C   UNL     1       1.478   6.598  20.844  0.00  0.00    +0.000 A 
ATOM      3  C   UNL     1       2.187   5.522  20.297  0.00  0.00    +0.000 A 
ATOM      4 BR   UNL     1       2.073   3.849  21.200  0.00  0.00    +0.000 Br
ATOM      5  C   UNL     1       2.954   5.649  19.131  0.00  0.00    +0.000 A 
ATOM      6  N   UNL     1       3.645   4.612  18.598  0.00  0.00    +0.000 NA
ATOM      7  C   UNL     1       4.363   4.826  17.483  0.00  0.00    +0.000 A 
ATOM      8  C   UNL     1       5.085   3.778  16.926  0.00  0.00    +0.000 A 
ATOM      9  C   UNL     1       5.848   3.956  15.773  0.00  0.00    +0.000 A 
ATOM     10  C   UNL     1       5.888   5.204  15.165  0.00  0.00    +0.000 A 
ATOM     11  C   UNL     1       5.163   6.262  15.719  0.00  0.00    +0.000 A 
ATOM     12  C   UNL     1       4.400   6.095  16.869  0.00  0.00    +0.000 A 
ATOM     13  N   UNL     1       3.713   7.134  17.381  0.00  0.00    +0.000 NA
ATOM     14  C   UNL     1       2.996   6.911  18.507  0.00  0.00    +0.000 A 
ATOM     15  C   UNL     1       2.278   7.973  19.063  0.00  0.00    +0.000 A 
ENDROOT
BRANCH  15  16
ATOM     16  O   UNL     1       2.335   9.196  18.431  0.00  0.00    +0.000 OA
ATOM     17  H   UNL     1       1.447   9.590  18.571  0.00  0.00    +0.000 HD
ENDBRANCH  15  16
BRANCH   1  18
ATOM     18  C   UNL     1       0.757   9.011  20.820  0.00  0.00    +0.000 C 
BRANCH  18  20
ATOM     19  C   UNL     1      -0.101   9.534  23.129  0.00  0.00    +0.000 C 
ATOM     20  C   UNL     1       0.851   9.049  22.320  0.00  0.00    +0.000 C 
ENDBRANCH  18  20
ENDBRANCH   1  18
TORSDOF 3
ENDMDL
MODEL 5
REMARK VINA RESULT:      -6.7      3.435      5.822
REMARK  Name = 
REMARK  3 active torsions:
REMARK  status: ('A' for Active; 'I' for Inactive)
REMARK    1  A    between atoms: C_2  and  C_3
REMARK    2  A    between atoms: C_3  and  C_4
REMARK    3  A    between atoms: C_18  and  O_19
REMARK                            x       y       z     vdW  Elec       q    Type
REMARK                         _______ _______ _______ _____ _____    ______ ____
ROOT
ATOM      1  C   UNL     1       6.239   6.703  17.356  0.00  0.00    +0.000 A 
ATOM      2  C   UNL     1       5.175   7.604  17.414  0.00  0.00    +0.000 A 
ATOM      3  C   UNL     1       3.880   7.146  17.684  0.00  0.00    +0.000 A 
ATOM      4 BR   UNL     1       2.485   8.444  17.726  0.00  0.00    +0.000 Br
ATOM      5  C   UNL     1       3.599   5.794  17.916  0.00  0.00    +0.000 A 
ATOM      6  N   UNL     1       2.347   5.345  18.182  0.00  0.00    +0.000 NA
ATOM      7  C   UNL     1       2.170   4.032  18.402  0.00  0.00    +0.000 A 
ATOM      8  C   UNL     1       0.897   3.554  18.684  0.00  0.00    +0.000 A 
ATOM      9  C   UNL     1       0.668   2.200  18.923  0.00  0.00    +0.000 A 
ATOM     10  C   UNL     1       1.731   1.308  18.879  0.00  0.00    +0.000 A 
ATOM     11  C   UNL     1       3.014   1.781  18.594  0.00  0.00    +0.000 A 
ATOM     12  C   UNL     1       3.253   3.130  18.354  0.00  0.00    +0.000 A 
ATOM     13  N   UNL     1       4.501   3.557  18.084  0.00  0.00    +0.000 NA
ATOM     14  C   UNL     1       4.672   4.883  17.869  0.00  0.00    +0.000 A 
ATOM     15  C   UNL     1       5.957   5.354  17.591  0.00  0.00    +0.000 A 
ENDROOT
BRANCH  15  16
ATOM     16  O   UNL     1       6.988   4.441  17.548  0.00  0.00    +0.000 OA
ATOM     17  H   UNL     1       7.698   4.891  17.040  0.00  0.00    +0.000 HD
ENDBRANCH  15  16
BRANCH   1  18
ATOM     18  C   UNL     1       7.638   7.197  17.078  0.00  0.00    +0.000 C 
BRANCH  18  20
ATOM     19  C   UNL     1       8.398   9.364  18.110  0.00  0.00    +0.000 C 
ATOM     20  C   UNL     1       8.182   8.044  18.194  0.00  0.00    +0.000 C 
ENDBRANCH  18  20
ENDBRANCH   1  18
TORSDOF 3
ENDMDL
MODEL 6
REMARK VINA RESULT:      -6.7      2.252      6.372
REMARK  Name = 
REMARK  3 active torsions:
REMARK  status: ('A' for Active; 'I' for Inactive)
REMARK    1  A    between atoms: C_2  and  C_3
REMARK    2  A    between atoms: C_3  and  C_4
REMARK    3  A    between atoms: C_18  and  O_19
REMARK                            x       y       z     vdW  Elec       q    Type
REMARK                         _______ _______ _______ _____ _____    ______ ____
ROOT
ATOM      1  C   UNL     1       5.491   5.245  15.656  0.00  0.00    +0.000 A 
ATOM      2  C   UNL     1       4.916   6.475  15.977  0.00  0.00    +0.000 A 
ATOM      3  C   UNL     1       4.115   6.600  17.119  0.00  0.00    +0.000 A 
ATOM      4 BR   UNL     1       3.355   8.311  17.471  0.00  0.00    +0.000 Br
ATOM      5  C   UNL     1       3.869   5.522  17.980  0.00  0.00    +0.000 A 
ATOM      6  N   UNL     1       3.098   5.638  19.089  0.00  0.00    +0.000 NA
ATOM      7  C   UNL     1       2.923   4.555  19.864  0.00  0.00    +0.000 A 
ATOM      8  C   UNL     1       2.143   4.655  21.009  0.00  0.00    +0.000 A 
ATOM      9  C   UNL     1       1.939   3.558  21.845  0.00  0.00    +0.000 A 
ATOM     10  C   UNL     1       2.524   2.340  21.529  0.00  0.00    +0.000 A 
ATOM     11  C   UNL     1       3.309   2.231  20.379  0.00  0.00    +0.000 A 
ATOM     12  C   UNL     1       3.519   3.319  19.538  0.00  0.00    +0.000 A 
ATOM     13  N   UNL     1       4.281   3.185  18.436  0.00  0.00    +0.000 NA
ATOM     14  C   UNL     1       4.456   4.282  17.664  0.00  0.00    +0.000 A 
ATOM     15  C   UNL     1       5.247   4.172  16.517  0.00  0.00    +0.000 A 
ENDROOT
BRANCH  15  16
ATOM     16  O   UNL     1       5.808   2.947  16.230  0.00  0.00    +0.000 OA
ATOM     17  H   UNL     1       5.194   2.293  16.629  0.00  0.00    +0.000 HD
ENDBRANCH  15  16
BRANCH   1  18
ATOM     18  C   UNL     1       6.365   5.113  14.432  0.00  0.00    +0.000 C 
BRANCH  18  20
ATOM     19  C   UNL     1       6.514   3.648  12.390  0.00  0.00    +0.000 C 
ATOM     20  C   UNL     1       5.838   4.100  13.454  0.00  0.00    +0.000 C 
ENDBRANCH  18  20
ENDBRANCH   1  18
TORSDOF 3
ENDMDL
MODEL 7
REMARK VINA RESULT:      -6.7      2.886      5.876
REMARK  Name = 
REMARK  3 active torsions:
REMARK  status: ('A' for Active; 'I' for Inactive)
REMARK    1  A    between atoms: C_2  and  C_3
REMARK    2  A    between atoms: C_3  and  C_4
REMARK    3  A    between atoms: C_18  and  O_19
REMARK                            x       y       z     vdW  Elec       q    Type
REMARK                         _______ _______ _______ _____ _____    ______ ____
ROOT
ATOM      1  C   UNL     1       7.181   6.148  17.750  0.00  0.00    +0.000 A 
ATOM      2  C   UNL     1       6.889   5.781  16.436  0.00  0.00    +0.000 A 
ATOM      3  C   UNL     1       5.825   4.912  16.168  0.00  0.00    +0.000 A 
ATOM      4 BR   UNL     1       5.510   4.451  14.347  0.00  0.00    +0.000 Br
ATOM      5  C   UNL     1       5.014   4.389  17.183  0.00  0.00    +0.000 A 
ATOM      6  N   UNL     1       3.980   3.550  16.930  0.00  0.00    +0.000 NA
ATOM      7  C   UNL     1       3.247   3.105  17.964  0.00  0.00    +0.000 A 
ATOM      8  C   UNL     1       2.179   2.251  17.725  0.00  0.00    +0.000 A 
ATOM      9  C   UNL     1       1.389   1.768  18.767  0.00  0.00    +0.000 A 
ATOM     10  C   UNL     1       1.674   2.146  20.073  0.00  0.00    +0.000 A 
ATOM     11  C   UNL     1       2.748   3.004  20.321  0.00  0.00    +0.000 A 
ATOM     12  C   UNL     1       3.542   3.491  19.288  0.00  0.00    +0.000 A 
ATOM     13  N   UNL     1       4.570   4.317  19.559  0.00  0.00    +0.000 NA
ATOM     14  C   UNL     1       5.299   4.765  18.510  0.00  0.00    +0.000 A 
ATOM     15  C   UNL     1       6.369   5.629  18.762  0.00  0.00    +0.000 A 
ENDROOT
BRANCH  15  16
ATOM     16  O   UNL     1       6.627   5.978  20.069  0.00  0.00    +0.000 OA
ATOM     17  H   UNL     1       7.589   6.177  20.087  0.00  0.00    +0.000 HD
ENDBRANCH  15  16
BRANCH   1  18
ATOM     18  C   UNL     1       8.320   7.096  18.038  0.00  0.00    +0.000 C 
BRANCH  18  20
ATOM     19  C   UNL     1       8.601   9.583  18.306  0.00  0.00    +0.000 C 
ATOM     20  C   UNL     1       7.951   8.532  17.790  0.00  0.00    +0.000 C 
ENDBRANCH  18  20
ENDBRANCH   1  18
TORSDOF 3
ENDMDL
MODEL 8
REMARK VINA RESULT:      -6.6      3.331      5.677
REMARK  Name = 
REMARK  3 active torsions:
REMARK  status: ('A' for Active; 'I' for Inactive)
REMARK    1  A    between atoms: C_2  and  C_3
REMARK    2  A    between atoms: C_3  and  C_4
REMARK    3  A    between atoms: C_18  and  O_19
REMARK                            x       y       z     vdW  Elec       q    Type
REMARK                         _______ _______ _______ _____ _____    ______ ____
ROOT
ATOM      1  C   UNL     1       7.473   6.912  18.258  0.00  0.00    +0.000 A 
ATOM      2  C   UNL     1       6.837   7.187  17.047  0.00  0.00    +0.000 A 
ATOM      3  C   UNL     1       5.743   6.416  16.635  0.00  0.00    +0.000 A 
ATOM      4 BR   UNL     1       4.948   6.850  14.959  0.00  0.00    +0.000 Br
ATOM      5  C   UNL     1       5.240   5.362  17.409  0.00  0.00    +0.000 A 
ATOM      6  N   UNL     1       4.179   4.614  17.018  0.00  0.00    +0.000 NA
ATOM      7  C   UNL     1       3.756   3.630  17.827  0.00  0.00    +0.000 A 
ATOM      8  C   UNL     1       2.665   2.857  17.448  0.00  0.00    +0.000 A 
ATOM      9  C   UNL     1       2.189   1.828  18.259  0.00  0.00    +0.000 A 
ATOM     10  C   UNL     1       2.816   1.566  19.470  0.00  0.00    +0.000 A 
ATOM     11  C   UNL     1       3.914   2.338  19.857  0.00  0.00    +0.000 A 
ATOM     12  C   UNL     1       4.396   3.367  19.056  0.00  0.00    +0.000 A 
ATOM     13  N   UNL     1       5.456   4.095  19.456  0.00  0.00    +0.000 NA
ATOM     14  C   UNL     1       5.872   5.089  18.637  0.00  0.00    +0.000 A 
ATOM     15  C   UNL     1       6.967   5.863  19.030  0.00  0.00    +0.000 A 
ENDROOT
BRANCH  15  16
ATOM     16  O   UNL     1       7.569   5.573  20.235  0.00  0.00    +0.000 OA
ATOM     17  H   UNL     1       7.523   6.410  20.744  0.00  0.00    +0.000 HD
ENDBRANCH  15  16
BRANCH   1  18
ATOM     18  C   UNL     1       8.643   7.752  18.708  0.00  0.00    +0.000 C 
BRANCH  18  20
ATOM     19  C   UNL     1       9.151  10.210  18.896  0.00  0.00    +0.000 C 
ATOM     20  C   UNL     1       8.505   9.194  18.309  0.00  0.00    +0.000 C 
ENDBRANCH  18  20
ENDBRANCH   1  18
TORSDOF 3
ENDMDL
MODEL 9
REMARK VINA RESULT:      -6.6      2.570      6.484
REMARK  Name = 
REMARK  3 active torsions:
REMARK  status: ('A' for Active; 'I' for Inactive)
REMARK    1  A    between atoms: C_2  and  C_3
REMARK    2  A    between atoms: C_3  and  C_4
REMARK    3  A    between atoms: C_18  and  O_19
REMARK                            x       y       z     vdW  Elec       q    Type
REMARK                         _______ _______ _______ _____ _____    ______ ____
ROOT
ATOM      1  C   UNL     1       5.973   5.941  17.031  0.00  0.00    +0.000 A 
ATOM      2  C   UNL     1       4.954   6.893  16.995  0.00  0.00    +0.000 A 
ATOM      3  C   UNL     1       3.792   6.708  17.754  0.00  0.00    +0.000 A 
ATOM      4 BR   UNL     1       2.444   8.049  17.630  0.00  0.00    +0.000 Br
ATOM      5  C   UNL     1       3.608   5.590  18.578  0.00  0.00    +0.000 A 
ATOM      6  N   UNL     1       2.488   5.408  19.319  0.00  0.00    +0.000 NA
ATOM      7  C   UNL     1       2.400   4.311  20.089  0.00  0.00    +0.000 A 
ATOM      8  C   UNL     1       1.263   4.110  20.862  0.00  0.00    +0.000 A 
ATOM      9  C   UNL     1       1.132   2.989  21.679  0.00  0.00    +0.000 A 
ATOM     10  C   UNL     1       2.154   2.051  21.723  0.00  0.00    +0.000 A 
ATOM     11  C   UNL     1       3.299   2.245  20.948  0.00  0.00    +0.000 A 
ATOM     12  C   UNL     1       3.441   3.361  20.129  0.00  0.00    +0.000 A 
ATOM     13  N   UNL     1       4.557   3.522  19.394  0.00  0.00    +0.000 NA
ATOM     14  C   UNL     1       4.640   4.633  18.625  0.00  0.00    +0.000 A 
ATOM     15  C   UNL     1       5.790   4.828  17.856  0.00  0.00    +0.000 A 
ENDROOT
BRANCH  15  16
ATOM     16  O   UNL     1       6.782   3.875  17.918  0.00  0.00    +0.000 OA
ATOM     17  H   UNL     1       7.455   4.172  17.267  0.00  0.00    +0.000 HD
ENDBRANCH  15  16
BRANCH   1  18
ATOM     18  C   UNL     1       7.231   6.145  16.222  0.00  0.00    +0.000 C 
BRANCH  18  20
ATOM     19  C   UNL     1       6.299   4.720  14.368  0.00  0.00    +0.000 C 
ATOM     20  C   UNL     1       7.340   5.183  15.073  0.00  0.00    +0.000 C 
ENDBRANCH  18  20
ENDBRANCH   1  18
TORSDOF 3
ENDMDL
