MODEL 1
REMARK VINA RESULT:      -7.7      0.000      0.000
REMARK  Name = 
REMARK  5 active torsions:
REMARK  status: ('A' for Active; 'I' for Inactive)
REMARK    1  A    between atoms: C_1  and  C_2
REMARK    2  A    between atoms: C_5  and  C_6
REMARK    3  A    between atoms: N_8  and  C_9
REMARK    4  A    between atoms: C_10  and  C_11
REMARK    5  A    between atoms: N_21  and  C_22
REMARK                            x       y       z     vdW  Elec       q    Type
REMARK                         _______ _______ _______ _____ _____    ______ ____
ROOT
ATOM      1  C   UNL     1       3.955   5.041  18.040  0.00  0.00    +0.000 A 
ATOM      2  C   UNL     1       4.846   5.008  16.987  0.00  0.00    +0.000 A 
ATOM      3  C   UNL     1       4.980   3.625  16.726  0.00  0.00    +0.000 A 
ATOM      4  N   UNL     1       4.316   2.842  17.586  0.00  0.00    +0.000 NA
ATOM      5  N   UNL     1       3.677   3.726  18.369  0.00  0.00    +0.000 N 
ENDROOT
BRANCH   2   6
ATOM      6  C   UNL     1       5.617   6.110  16.458  0.00  0.00    +0.000 C 
ATOM      7  O   UNL     1       5.148   6.793  15.546  0.00  0.00    +0.000 OA
ATOM      8  N   UNL     1       6.843   6.403  17.028  0.00  0.00    +0.000 N 
ATOM      9  C   UNL     1       7.571   5.632  18.039  0.00  0.00    +0.000 C 
ATOM     10  C   UNL     1       7.974   6.519  19.222  0.00  0.00    +0.000 C 
ATOM     11  O   UNL     1       8.688   7.680  18.769  0.00  0.00    +0.000 OA
ATOM     12  C   UNL     1       7.906   8.443  17.832  0.00  0.00    +0.000 C 
ATOM     13  C   UNL     1       7.566   7.600  16.602  0.00  0.00    +0.000 C 
ENDBRANCH   2   6
BRANCH   5  14
ATOM     14  C   UNL     1       2.783   3.299  19.377  0.00  0.00    +0.000 A 
ATOM     15  C   UNL     1       3.274   2.911  20.622  0.00  0.00    +0.000 A 
ATOM     16  C   UNL     1       2.364   2.573  21.621  0.00  0.00    +0.000 A 
ATOM     17  C   UNL     1       0.992   2.578  21.357  0.00  0.00    +0.000 A 
ATOM     18  C   UNL     1       0.517   2.926  20.099  0.00  0.00    +0.000 A 
ATOM     19  C   UNL     1       1.412   3.295  19.107  0.00  0.00    +0.000 A 
ENDBRANCH   5  14
BRANCH   1  22
ATOM     20  C   UNL     1       2.294   6.801  18.361  0.00  0.00    +0.000 C 
ATOM     21  O   UNL     1       1.649   6.354  17.447  0.00  0.00    +0.000 OA
ATOM     22  N   UNL     1       3.537   6.176  18.734  0.00  0.00    +0.000 N 
ATOM     23  H   UNL     1       4.091   6.497  19.506  0.00  0.00    +0.000 HD
BRANCH  20  28
ATOM     24  C   UNL     1       0.367  11.455  21.245  0.00  0.00    +0.000 C 
ATOM     25  C   UNL     1       0.910  10.258  20.519  0.00  0.00    +0.000 A 
ATOM     26  C   UNL     1       1.148  10.303  19.143  0.00  0.00    +0.000 A 
ATOM     27  C   UNL     1       1.630   9.177  18.473  0.00  0.00    +0.000 A 
ATOM     28  C   UNL     1       1.872   7.986  19.168  0.00  0.00    +0.000 A 
ATOM     29  C   UNL     1       1.662   7.946  20.554  0.00  0.00    +0.000 A 
ATOM     30  C   UNL     1       1.175   9.077  21.221  0.00  0.00    +0.000 A 
ENDBRANCH  20  28
ENDBRANCH   1  22
TORSDOF 4
ENDMDL
MODEL 2
REMARK VINA RESULT:      -7.2      2.430      6.388
REMARK  Name = 
REMARK  5 active torsions:
REMARK  status: ('A' for Active; 'I' for Inactive)
REMARK    1  A    between atoms: C_1  and  C_2
REMARK    2  A    between atoms: C_5  and  C_6
REMARK    3  A    between atoms: N_8  and  C_9
REMARK    4  A    between atoms: C_10  and  C_11
REMARK    5  A    between atoms: N_21  and  C_22
REMARK                            x       y       z     vdW  Elec       q    Type
REMARK                         _______ _______ _______ _____ _____    ______ ____
ROOT
ATOM      1  C   UNL     1       2.092   7.067  19.388  0.00  0.00    +0.000 A 
ATOM      2  C   UNL     1       1.739   8.366  19.689  0.00  0.00    +0.000 A 
ATOM      3  C   UNL     1       1.029   8.231  20.903  0.00  0.00    +0.000 A 
ATOM      4  N   UNL     1       0.859   6.963  21.296  0.00  0.00    +0.000 NA
ATOM      5  N   UNL     1       1.535   6.265  20.369  0.00  0.00    +0.000 N 
ENDROOT
BRANCH   2   6
ATOM      6  C   UNL     1       1.869   9.528  18.839  0.00  0.00    +0.000 C 
ATOM      7  O   UNL     1       2.268   9.389  17.681  0.00  0.00    +0.000 OA
ATOM      8  N   UNL     1       1.487  10.763  19.332  0.00  0.00    +0.000 N 
ATOM      9  C   UNL     1       1.092  11.101  20.701  0.00  0.00    +0.000 C 
ATOM     10  C   UNL     1      -0.253  11.835  20.720  0.00  0.00    +0.000 C 
ATOM     11  O   UNL     1      -0.228  12.969  19.839  0.00  0.00    +0.000 OA
ATOM     12  C   UNL     1       0.095  12.578  18.492  0.00  0.00    +0.000 C 
ATOM     13  C   UNL     1       1.474  11.921  18.439  0.00  0.00    +0.000 C 
ENDBRANCH   2   6
BRANCH   5  14
ATOM     14  C   UNL     1       1.674   4.862  20.465  0.00  0.00    +0.000 A 
ATOM     15  C   UNL     1       2.365   4.304  21.539  0.00  0.00    +0.000 A 
ATOM     16  C   UNL     1       2.415   2.917  21.649  0.00  0.00    +0.000 A 
ATOM     17  C   UNL     1       1.826   2.108  20.674  0.00  0.00    +0.000 A 
ATOM     18  C   UNL     1       1.177   2.677  19.585  0.00  0.00    +0.000 A 
ATOM     19  C   UNL     1       1.093   4.056  19.482  0.00  0.00    +0.000 A 
ENDBRANCH   5  14
BRANCH   1  22
ATOM     20  C   UNL     1       4.062   6.053  18.363  0.00  0.00    +0.000 C 
ATOM     21  O   UNL     1       4.580   5.971  19.449  0.00  0.00    +0.000 OA
ATOM     22  N   UNL     1       2.751   6.635  18.238  0.00  0.00    +0.000 N 
ATOM     23  H   UNL     1       2.272   6.696  17.359  0.00  0.00    +0.000 HD
BRANCH  20  28
ATOM     24  C   UNL     1       6.270   3.897  13.448  0.00  0.00    +0.000 C 
ATOM     25  C   UNL     1       5.743   4.472  14.730  0.00  0.00    +0.000 A 
ATOM     26  C   UNL     1       5.422   3.643  15.809  0.00  0.00    +0.000 A 
ATOM     27  C   UNL     1       4.911   4.186  16.989  0.00  0.00    +0.000 A 
ATOM     28  C   UNL     1       4.703   5.565  17.105  0.00  0.00    +0.000 A 
ATOM     29  C   UNL     1       5.050   6.403  16.036  0.00  0.00    +0.000 A 
ATOM     30  C   UNL     1       5.560   5.855  14.853  0.00  0.00    +0.000 A 
ENDBRANCH  20  28
ENDBRANCH   1  22
TORSDOF 4
ENDMDL
MODEL 3
REMARK VINA RESULT:      -6.7      4.837      8.378
REMARK  Name = 
REMARK  5 active torsions:
REMARK  status: ('A' for Active; 'I' for Inactive)
REMARK    1  A    between atoms: C_1  and  C_2
REMARK    2  A    between atoms: C_5  and  C_6
REMARK    3  A    between atoms: N_8  and  C_9
REMARK    4  A    between atoms: C_10  and  C_11
REMARK    5  A    between atoms: N_21  and  C_22
REMARK                            x       y       z     vdW  Elec       q    Type
REMARK                         _______ _______ _______ _____ _____    ______ ____
ROOT
ATOM      1  C   UNL     1       0.133  11.990  19.175  0.00  0.00    +0.000 A 
ATOM      2  C   UNL     1       0.483  13.062  19.969  0.00  0.00    +0.000 A 
ATOM      3  C   UNL     1      -0.681  13.864  19.954  0.00  0.00    +0.000 A 
ATOM      4  N   UNL     1      -1.650  13.402  19.154  0.00  0.00    +0.000 NA
ATOM      5  N   UNL     1      -1.144  12.243  18.703  0.00  0.00    +0.000 N 
ENDROOT
BRANCH   2   6
ATOM      6  C   UNL     1       1.796  13.381  20.482  0.00  0.00    +0.000 C 
ATOM      7  O   UNL     1       2.323  12.629  21.304  0.00  0.00    +0.000 OA
ATOM      8  N   UNL     1       2.453  14.496  19.992  0.00  0.00    +0.000 N 
ATOM      9  C   UNL     1       1.925  15.529  19.098  0.00  0.00    +0.000 C 
ATOM     10  C   UNL     1       2.849  15.738  17.893  0.00  0.00    +0.000 C 
ATOM     11  O   UNL     1       4.196  15.990  18.321  0.00  0.00    +0.000 OA
ATOM     12  C   UNL     1       4.696  14.916  19.137  0.00  0.00    +0.000 C 
ATOM     13  C   UNL     1       3.836  14.749  20.391  0.00  0.00    +0.000 C 
ENDBRANCH   2   6
BRANCH   5  14
ATOM     14  C   UNL     1      -1.902  11.385  17.875  0.00  0.00    +0.000 A 
ATOM     15  C   UNL     1      -2.506  10.252  18.417  0.00  0.00    +0.000 A 
ATOM     16  C   UNL     1      -3.313   9.470  17.593  0.00  0.00    +0.000 A 
ATOM     17  C   UNL     1      -3.469   9.795  16.243  0.00  0.00    +0.000 A 
ATOM     18  C   UNL     1      -2.828  10.903  15.706  0.00  0.00    +0.000 A 
ATOM     19  C   UNL     1      -2.048  11.706  16.523  0.00  0.00    +0.000 A 
ENDBRANCH   5  14
BRANCH   1  22
ATOM     20  C   UNL     1       0.968   9.736  19.599  0.00  0.00    +0.000 C 
ATOM     21  O   UNL     1       0.280   9.671  20.587  0.00  0.00    +0.000 OA
ATOM     22  N   UNL     1       0.962  10.934  18.800  0.00  0.00    +0.000 N 
ATOM     23  H   UNL     1       1.496  11.020  17.956  0.00  0.00    +0.000 HD
BRANCH  20  28
ATOM     24  C   UNL     1       4.069   5.155  17.843  0.00  0.00    +0.000 C 
ATOM     25  C   UNL     1       3.309   6.364  18.304  0.00  0.00    +0.000 A 
ATOM     26  C   UNL     1       2.686   6.384  19.555  0.00  0.00    +0.000 A 
ATOM     27  C   UNL     1       1.960   7.505  19.965  0.00  0.00    +0.000 A 
ATOM     28  C   UNL     1       1.840   8.619  19.126  0.00  0.00    +0.000 A 
ATOM     29  C   UNL     1       2.488   8.614  17.882  0.00  0.00    +0.000 A 
ATOM     30  C   UNL     1       3.211   7.487  17.474  0.00  0.00    +0.000 A 
ENDBRANCH  20  28
ENDBRANCH   1  22
TORSDOF 4
ENDMDL
MODEL 4
REMARK VINA RESULT:      -6.7      6.498     10.531
REMARK  Name = 
REMARK  5 active torsions:
REMARK  status: ('A' for Active; 'I' for Inactive)
REMARK    1  A    between atoms: C_1  and  C_2
REMARK    2  A    between atoms: C_5  and  C_6
REMARK    3  A    between atoms: N_8  and  C_9
REMARK    4  A    between atoms: C_10  and  C_11
REMARK    5  A    between atoms: N_21  and  C_22
REMARK                            x       y       z     vdW  Elec       q    Type
REMARK                         _______ _______ _______ _____ _____    ______ ____
ROOT
ATOM      1  C   UNL     1      -0.719  12.372  21.571  0.00  0.00    +0.000 A 
ATOM      2  C   UNL     1      -1.108  12.447  22.893  0.00  0.00    +0.000 A 
ATOM      3  C   UNL     1      -1.171  11.089  23.284  0.00  0.00    +0.000 A 
ATOM      4  N   UNL     1      -0.937  10.225  22.288  0.00  0.00    +0.000 NA
ATOM      5  N   UNL     1      -0.640  11.028  21.253  0.00  0.00    +0.000 N 
ENDROOT
BRANCH   2   6
ATOM      6  C   UNL     1      -1.563  13.618  23.607  0.00  0.00    +0.000 C 
ATOM      7  O   UNL     1      -0.775  14.542  23.818  0.00  0.00    +0.000 OA
ATOM      8  N   UNL     1      -2.891  13.694  23.989  0.00  0.00    +0.000 N 
ATOM      9  C   UNL     1      -3.913  12.649  23.900  0.00  0.00    +0.000 C 
ATOM     10  C   UNL     1      -5.166  13.165  23.184  0.00  0.00    +0.000 C 
ATOM     11  O   UNL     1      -5.641  14.375  23.795  0.00  0.00    +0.000 OA
ATOM     12  C   UNL     1      -4.625  15.395  23.796  0.00  0.00    +0.000 C 
ATOM     13  C   UNL     1      -3.398  14.931  24.581  0.00  0.00    +0.000 C 
ENDBRANCH   2   6
BRANCH   5  14
ATOM     14  C   UNL     1      -0.245  10.497  20.005  0.00  0.00    +0.000 A 
ATOM     15  C   UNL     1       1.047  10.004  19.838  0.00  0.00    +0.000 A 
ATOM     16  C   UNL     1       1.382   9.413  18.621  0.00  0.00    +0.000 A 
ATOM     17  C   UNL     1       0.451   9.365  17.580  0.00  0.00    +0.000 A 
ATOM     18  C   UNL     1      -0.821   9.898  17.745  0.00  0.00    +0.000 A 
ATOM     19  C   UNL     1      -1.175  10.459  18.962  0.00  0.00    +0.000 A 
ENDBRANCH   5  14
BRANCH   1  22
ATOM     20  C   UNL     1       0.700  14.095  20.581  0.00  0.00    +0.000 C 
ATOM     21  O   UNL     1       1.620  13.726  21.266  0.00  0.00    +0.000 OA
ATOM     22  N   UNL     1      -0.580  13.443  20.690  0.00  0.00    +0.000 N 
ATOM     23  H   UNL     1      -1.364  13.698  20.119  0.00  0.00    +0.000 HD
BRANCH  20  28
ATOM     24  C   UNL     1       0.871  18.614  16.944  0.00  0.00    +0.000 C 
ATOM     25  C   UNL     1       0.840  17.416  17.847  0.00  0.00    +0.000 A 
ATOM     26  C   UNL     1      -0.374  16.886  18.291  0.00  0.00    +0.000 A 
ATOM     27  C   UNL     1      -0.393  15.786  19.151  0.00  0.00    +0.000 A 
ATOM     28  C   UNL     1       0.804  15.206  19.587  0.00  0.00    +0.000 A 
ATOM     29  C   UNL     1       2.024  15.717  19.121  0.00  0.00    +0.000 A 
ATOM     30  C   UNL     1       2.038  16.822  18.262  0.00  0.00    +0.000 A 
ENDBRANCH  20  28
ENDBRANCH   1  22
TORSDOF 4
ENDMDL
MODEL 5
REMARK VINA RESULT:      -6.7      5.447      9.530
REMARK  Name = 
REMARK  5 active torsions:
REMARK  status: ('A' for Active; 'I' for Inactive)
REMARK    1  A    between atoms: C_1  and  C_2
REMARK    2  A    between atoms: C_5  and  C_6
REMARK    3  A    between atoms: N_8  and  C_9
REMARK    4  A    between atoms: C_10  and  C_11
REMARK    5  A    between atoms: N_21  and  C_22
REMARK                            x       y       z     vdW  Elec       q    Type
REMARK                         _______ _______ _______ _____ _____    ______ ____
ROOT
ATOM      1  C   UNL     1      -0.076  11.557  21.387  0.00  0.00    +0.000 A 
ATOM      2  C   UNL     1      -0.777  11.767  22.557  0.00  0.00    +0.000 A 
ATOM      3  C   UNL     1      -0.928  10.461  23.077  0.00  0.00    +0.000 A 
ATOM      4  N   UNL     1      -0.454   9.498  22.276  0.00  0.00    +0.000 NA
ATOM      5  N   UNL     1       0.084  10.188  21.258  0.00  0.00    +0.000 N 
ENDROOT
BRANCH   2   6
ATOM      6  C   UNL     1      -1.398  12.995  22.997  0.00  0.00    +0.000 C 
ATOM      7  O   UNL     1      -0.775  13.755  23.741  0.00  0.00    +0.000 OA
ATOM      8  N   UNL     1      -2.659  13.314  22.526  0.00  0.00    +0.000 N 
ATOM      9  C   UNL     1      -3.557  12.477  21.726  0.00  0.00    +0.000 C 
ATOM     10  C   UNL     1      -4.035  13.223  20.476  0.00  0.00    +0.000 C 
ATOM     11  O   UNL     1      -4.604  14.494  20.826  0.00  0.00    +0.000 OA
ATOM     12  C   UNL     1      -3.662  15.308  21.548  0.00  0.00    +0.000 C 
ATOM     13  C   UNL     1      -3.238  14.617  22.845  0.00  0.00    +0.000 C 
ENDBRANCH   2   6
BRANCH   5  14
ATOM     14  C   UNL     1       0.775   9.534  20.214  0.00  0.00    +0.000 A 
ATOM     15  C   UNL     1       1.526   8.392  20.486  0.00  0.00    +0.000 A 
ATOM     16  C   UNL     1       2.129   7.723  19.423  0.00  0.00    +0.000 A 
ATOM     17  C   UNL     1       2.020   8.220  18.122  0.00  0.00    +0.000 A 
ATOM     18  C   UNL     1       1.303   9.383  17.870  0.00  0.00    +0.000 A 
ATOM     19  C   UNL     1       0.672  10.038  18.914  0.00  0.00    +0.000 A 
ENDBRANCH   5  14
BRANCH   1  22
ATOM     20  C   UNL     1       1.549  13.179  20.557  0.00  0.00    +0.000 C 
ATOM     21  O   UNL     1       2.288  12.900  21.468  0.00  0.00    +0.000 OA
ATOM     22  N   UNL     1       0.270  12.526  20.446  0.00  0.00    +0.000 N 
ATOM     23  H   UNL     1      -0.362  12.706  19.689  0.00  0.00    +0.000 HD
BRANCH  20  28
ATOM     24  C   UNL     1       2.866  17.317  16.707  0.00  0.00    +0.000 C 
ATOM     25  C   UNL     1       2.507  16.220  17.666  0.00  0.00    +0.000 A 
ATOM     26  C   UNL     1       1.432  16.362  18.547  0.00  0.00    +0.000 A 
ATOM     27  C   UNL     1       1.121  15.345  19.452  0.00  0.00    +0.000 A 
ATOM     28  C   UNL     1       1.888  14.175  19.496  0.00  0.00    +0.000 A 
ATOM     29  C   UNL     1       2.949  14.016  18.593  0.00  0.00    +0.000 A 
ATOM     30  C   UNL     1       3.259  15.039  17.690  0.00  0.00    +0.000 A 
ENDBRANCH  20  28
ENDBRANCH   1  22
TORSDOF 4
ENDMDL
MODEL 6
REMARK VINA RESULT:      -6.7      5.017      8.582
REMARK  Name = 
REMARK  5 active torsions:
REMARK  status: ('A' for Active; 'I' for Inactive)
REMARK    1  A    between atoms: C_1  and  C_2
REMARK    2  A    between atoms: C_5  and  C_6
REMARK    3  A    between atoms: N_8  and  C_9
REMARK    4  A    between atoms: C_10  and  C_11
REMARK    5  A    between atoms: N_21  and  C_22
REMARK                            x       y       z     vdW  Elec       q    Type
REMARK                         _______ _______ _______ _____ _____    ______ ____
ROOT
ATOM      1  C   UNL     1       0.170  12.520  19.675  0.00  0.00    +0.000 A 
ATOM      2  C   UNL     1       0.748  13.572  20.356  0.00  0.00    +0.000 A 
ATOM      3  C   UNL     1      -0.324  14.482  20.507  0.00  0.00    +0.000 A 
ATOM      4  N   UNL     1      -1.454  14.097  19.901  0.00  0.00    +0.000 NA
ATOM      5  N   UNL     1      -1.140  12.884  19.417  0.00  0.00    +0.000 N 
ENDROOT
BRANCH   2   6
ATOM      6  C   UNL     1       2.153  13.774  20.626  0.00  0.00    +0.000 C 
ATOM      7  O   UNL     1       2.733  13.020  21.411  0.00  0.00    +0.000 OA
ATOM      8  N   UNL     1       2.827  14.777  19.952  0.00  0.00    +0.000 N 
ATOM      9  C   UNL     1       2.262  15.805  19.075  0.00  0.00    +0.000 C 
ATOM     10  C   UNL     1       2.988  15.836  17.725  0.00  0.00    +0.000 C 
ATOM     11  O   UNL     1       4.406  15.963  17.912  0.00  0.00    +0.000 OA
ATOM     12  C   UNL     1       4.926  14.893  18.721  0.00  0.00    +0.000 C 
ATOM     13  C   UNL     1       4.275  14.899  20.105  0.00  0.00    +0.000 C 
ENDBRANCH   2   6
BRANCH   5  14
ATOM     14  C   UNL     1      -2.104  12.085  18.763  0.00  0.00    +0.000 A 
ATOM     15  C   UNL     1      -3.434  12.121  19.178  0.00  0.00    +0.000 A 
ATOM     16  C   UNL     1      -4.375  11.384  18.463  0.00  0.00    +0.000 A 
ATOM     17  C   UNL     1      -3.979  10.590  17.384  0.00  0.00    +0.000 A 
ATOM     18  C   UNL     1      -2.643  10.530  17.006  0.00  0.00    +0.000 A 
ATOM     19  C   UNL     1      -1.703  11.284  17.690  0.00  0.00    +0.000 A 
ENDBRANCH   5  14
BRANCH   1  22
ATOM     20  C   UNL     1       0.833  10.198  20.028  0.00  0.00    +0.000 C 
ATOM     21  O   UNL     1       0.302  10.214  21.110  0.00  0.00    +0.000 OA
ATOM     22  N   UNL     1       0.823  11.381  19.207  0.00  0.00    +0.000 N 
ATOM     23  H   UNL     1       1.226  11.402  18.289  0.00  0.00    +0.000 HD
BRANCH  20  28
ATOM     24  C   UNL     1       3.730   5.743  17.694  0.00  0.00    +0.000 C 
ATOM     25  C   UNL     1       2.940   6.869  18.294  0.00  0.00    +0.000 A 
ATOM     26  C   UNL     1       2.666   8.024  17.558  0.00  0.00    +0.000 A 
ATOM     27  C   UNL     1       1.950   9.076  18.133  0.00  0.00    +0.000 A 
ATOM     28  C   UNL     1       1.506   8.992  19.457  0.00  0.00    +0.000 A 
ATOM     29  C   UNL     1       1.753   7.822  20.190  0.00  0.00    +0.000 A 
ATOM     30  C   UNL     1       2.474   6.771  19.611  0.00  0.00    +0.000 A 
ENDBRANCH  20  28
ENDBRANCH   1  22
TORSDOF 4
ENDMDL
MODEL 7
REMARK VINA RESULT:      -6.6      8.027     11.790
REMARK  Name = 
REMARK  5 active torsions:
REMARK  status: ('A' for Active; 'I' for Inactive)
REMARK    1  A    between atoms: C_1  and  C_2
REMARK    2  A    between atoms: C_5  and  C_6
REMARK    3  A    between atoms: N_8  and  C_9
REMARK    4  A    between atoms: C_10  and  C_11
REMARK    5  A    between atoms: N_21  and  C_22
REMARK                            x       y       z     vdW  Elec       q    Type
REMARK                         _______ _______ _______ _____ _____    ______ ____
ROOT
ATOM      1  C   UNL     1      -1.557  13.725  21.516  0.00  0.00    +0.000 A 
ATOM      2  C   UNL     1      -2.274  13.717  22.694  0.00  0.00    +0.000 A 
ATOM      3  C   UNL     1      -1.383  14.316  23.615  0.00  0.00    +0.000 A 
ATOM      4  N   UNL     1      -0.178  14.595  23.102  0.00  0.00    +0.000 NA
ATOM      5  N   UNL     1      -0.310  14.248  21.812  0.00  0.00    +0.000 N 
ENDROOT
BRANCH   2   6
ATOM      6  C   UNL     1      -3.527  13.044  22.952  0.00  0.00    +0.000 C 
ATOM      7  O   UNL     1      -3.518  11.930  23.478  0.00  0.00    +0.000 OA
ATOM      8  N   UNL     1      -4.710  13.696  22.651  0.00  0.00    +0.000 N 
ATOM      9  C   UNL     1      -4.881  14.965  21.941  0.00  0.00    +0.000 C 
ATOM     10  C   UNL     1      -5.763  15.929  22.742  0.00  0.00    +0.000 C 
ATOM     11  O   UNL     1      -7.006  15.306  23.101  0.00  0.00    +0.000 OA
ATOM     12  C   UNL     1      -6.788  14.101  23.858  0.00  0.00    +0.000 C 
ATOM     13  C   UNL     1      -5.983  13.090  23.040  0.00  0.00    +0.000 C 
ENDBRANCH   2   6
BRANCH   5  14
ATOM     14  C   UNL     1       0.734  14.465  20.885  0.00  0.00    +0.000 A 
ATOM     15  C   UNL     1       1.697  13.479  20.680  0.00  0.00    +0.000 A 
ATOM     16  C   UNL     1       2.667  13.688  19.702  0.00  0.00    +0.000 A 
ATOM     17  C   UNL     1       2.696  14.884  18.980  0.00  0.00    +0.000 A 
ATOM     18  C   UNL     1       1.755  15.877  19.224  0.00  0.00    +0.000 A 
ATOM     19  C   UNL     1       0.767  15.666  20.171  0.00  0.00    +0.000 A 
ENDBRANCH   5  14
BRANCH   1  22
ATOM     20  C   UNL     1      -1.650  11.794  20.026  0.00  0.00    +0.000 C 
ATOM     21  O   UNL     1      -1.032  11.146  20.833  0.00  0.00    +0.000 OA
ATOM     22  N   UNL     1      -1.958  13.174  20.300  0.00  0.00    +0.000 N 
ATOM     23  H   UNL     1      -2.495  13.740  19.671  0.00  0.00    +0.000 HD
BRANCH  20  28
ATOM     24  C   UNL     1      -3.623  10.008  14.869  0.00  0.00    +0.000 C 
ATOM     25  C   UNL     1      -3.125  10.426  16.221  0.00  0.00    +0.000 A 
ATOM     26  C   UNL     1      -3.839  11.345  16.994  0.00  0.00    +0.000 A 
ATOM     27  C   UNL     1      -3.356  11.746  18.241  0.00  0.00    +0.000 A 
ATOM     28  C   UNL     1      -2.145  11.241  18.729  0.00  0.00    +0.000 A 
ATOM     29  C   UNL     1      -1.439  10.298  17.968  0.00  0.00    +0.000 A 
ATOM     30  C   UNL     1      -1.926   9.900  16.717  0.00  0.00    +0.000 A 
ENDBRANCH  20  28
ENDBRANCH   1  22
TORSDOF 4
ENDMDL
MODEL 8
REMARK VINA RESULT:      -6.6      5.487     10.639
REMARK  Name = 
REMARK  5 active torsions:
REMARK  status: ('A' for Active; 'I' for Inactive)
REMARK    1  A    between atoms: C_1  and  C_2
REMARK    2  A    between atoms: C_5  and  C_6
REMARK    3  A    between atoms: N_8  and  C_9
REMARK    4  A    between atoms: C_10  and  C_11
REMARK    5  A    between atoms: N_21  and  C_22
REMARK                            x       y       z     vdW  Elec       q    Type
REMARK                         _______ _______ _______ _____ _____    ______ ____
ROOT
ATOM      1  C   UNL     1       0.737  13.356  21.048  0.00  0.00    +0.000 A 
ATOM      2  C   UNL     1      -0.339  13.653  21.858  0.00  0.00    +0.000 A 
ATOM      3  C   UNL     1      -0.317  15.066  21.914  0.00  0.00    +0.000 A 
ATOM      4  N   UNL     1       0.726  15.618  21.281  0.00  0.00    +0.000 NA
ATOM      5  N   UNL     1       1.347  14.559  20.738  0.00  0.00    +0.000 N 
ENDROOT
BRANCH   2   6
ATOM      6  C   UNL     1      -1.132  12.728  22.636  0.00  0.00    +0.000 C 
ATOM      7  O   UNL     1      -0.573  11.808  23.236  0.00  0.00    +0.000 OA
ATOM      8  N   UNL     1      -2.497  12.933  22.732  0.00  0.00    +0.000 N 
ATOM      9  C   UNL     1      -3.312  13.910  22.007  0.00  0.00    +0.000 C 
ATOM     10  C   UNL     1      -4.167  14.739  22.972  0.00  0.00    +0.000 C 
ATOM     11  O   UNL     1      -4.935  13.885  23.834  0.00  0.00    +0.000 OA
ATOM     12  C   UNL     1      -4.087  12.992  24.578  0.00  0.00    +0.000 C 
ATOM     13  C   UNL     1      -3.289  12.095  23.631  0.00  0.00    +0.000 C 
ENDBRANCH   2   6
BRANCH   5  14
ATOM     14  C   UNL     1       2.474  14.720  19.901  0.00  0.00    +0.000 A 
ATOM     15  C   UNL     1       3.749  14.791  20.460  0.00  0.00    +0.000 A 
ATOM     16  C   UNL     1       4.847  14.868  19.605  0.00  0.00    +0.000 A 
ATOM     17  C   UNL     1       4.662  14.923  18.221  0.00  0.00    +0.000 A 
ATOM     18  C   UNL     1       3.383  14.895  17.679  0.00  0.00    +0.000 A 
ATOM     19  C   UNL     1       2.286  14.785  18.518  0.00  0.00    +0.000 A 
ENDBRANCH   5  14
BRANCH   1  22
ATOM     20  C   UNL     1       0.571  11.354  19.661  0.00  0.00    +0.000 C 
ATOM     21  O   UNL     1      -0.363  11.841  19.075  0.00  0.00    +0.000 OA
ATOM     22  N   UNL     1       1.205  12.082  20.730  0.00  0.00    +0.000 N 
ATOM     23  H   UNL     1       2.002  11.727  21.223  0.00  0.00    +0.000 HD
BRANCH  20  28
ATOM     24  C   UNL     1       3.100   6.325  18.248  0.00  0.00    +0.000 C 
ATOM     25  C   UNL     1       2.403   7.603  18.612  0.00  0.00    +0.000 A 
ATOM     26  C   UNL     1       2.284   8.642  17.686  0.00  0.00    +0.000 A 
ATOM     27  C   UNL     1       1.654   9.837  18.041  0.00  0.00    +0.000 A 
ATOM     28  C   UNL     1       1.143  10.013  19.332  0.00  0.00    +0.000 A 
ATOM     29  C   UNL     1       1.234   8.961  20.255  0.00  0.00    +0.000 A 
ATOM     30  C   UNL     1       1.869   7.767  19.895  0.00  0.00    +0.000 A 
ENDBRANCH  20  28
ENDBRANCH   1  22
TORSDOF 4
ENDMDL
MODEL 9
REMARK VINA RESULT:      -6.5      5.498     10.722
REMARK  Name = 
REMARK  5 active torsions:
REMARK  status: ('A' for Active; 'I' for Inactive)
REMARK    1  A    between atoms: C_1  and  C_2
REMARK    2  A    between atoms: C_5  and  C_6
REMARK    3  A    between atoms: N_8  and  C_9
REMARK    4  A    between atoms: C_10  and  C_11
REMARK    5  A    between atoms: N_21  and  C_22
REMARK                            x       y       z     vdW  Elec       q    Type
REMARK                         _______ _______ _______ _____ _____    ______ ____
ROOT
ATOM      1  C   UNL     1       0.789  13.399  20.954  0.00  0.00    +0.000 A 
ATOM      2  C   UNL     1      -0.293  13.687  21.761  0.00  0.00    +0.000 A 
ATOM      3  C   UNL     1      -0.293  15.101  21.801  0.00  0.00    +0.000 A 
ATOM      4  N   UNL     1       0.740  15.663  21.163  0.00  0.00    +0.000 NA
ATOM      5  N   UNL     1       1.379  14.608  20.632  0.00  0.00    +0.000 N 
ENDROOT
BRANCH   2   6
ATOM      6  C   UNL     1      -1.071  12.758  22.548  0.00  0.00    +0.000 C 
ATOM      7  O   UNL     1      -0.498  11.852  23.156  0.00  0.00    +0.000 OA
ATOM      8  N   UNL     1      -2.439  12.945  22.644  0.00  0.00    +0.000 N 
ATOM      9  C   UNL     1      -3.268  13.903  21.911  0.00  0.00    +0.000 C 
ATOM     10  C   UNL     1      -4.134  14.728  22.870  0.00  0.00    +0.000 C 
ATOM     11  O   UNL     1      -4.889  13.871  23.741  0.00  0.00    +0.000 OA
ATOM     12  C   UNL     1      -4.027  12.997  24.492  0.00  0.00    +0.000 C 
ATOM     13  C   UNL     1      -3.217  12.103  23.552  0.00  0.00    +0.000 C 
ENDBRANCH   2   6
BRANCH   5  14
ATOM     14  C   UNL     1       2.505  14.779  19.795  0.00  0.00    +0.000 A 
ATOM     15  C   UNL     1       2.330  14.954  18.423  0.00  0.00    +0.000 A 
ATOM     16  C   UNL     1       3.453  15.200  17.636  0.00  0.00    +0.000 A 
ATOM     17  C   UNL     1       4.727  15.222  18.208  0.00  0.00    +0.000 A 
ATOM     18  C   UNL     1       4.891  15.004  19.571  0.00  0.00    +0.000 A 
ATOM     19  C   UNL     1       3.779  14.790  20.369  0.00  0.00    +0.000 A 
ENDBRANCH   5  14
BRANCH   1  22
ATOM     20  C   UNL     1       0.740  11.430  19.513  0.00  0.00    +0.000 C 
ATOM     21  O   UNL     1      -0.135  11.936  18.857  0.00  0.00    +0.000 OA
ATOM     22  N   UNL     1       1.278  12.129  20.651  0.00  0.00    +0.000 N 
ATOM     23  H   UNL     1       2.026  11.758  21.206  0.00  0.00    +0.000 HD
BRANCH  20  28
ATOM     24  C   UNL     1       2.721   6.078  18.456  0.00  0.00    +0.000 C 
ATOM     25  C   UNL     1       2.255   7.478  18.730  0.00  0.00    +0.000 A 
ATOM     26  C   UNL     1       1.745   7.830  19.982  0.00  0.00    +0.000 A 
ATOM     27  C   UNL     1       1.291   9.129  20.221  0.00  0.00    +0.000 A 
ATOM     28  C   UNL     1       1.333  10.093  19.206  0.00  0.00    +0.000 A 
ATOM     29  C   UNL     1       1.871   9.751  17.957  0.00  0.00    +0.000 A 
ATOM     30  C   UNL     1       2.322   8.446  17.722  0.00  0.00    +0.000 A 
ENDBRANCH  20  28
ENDBRANCH   1  22
TORSDOF 4
ENDMDL
