MODEL 1
REMARK VINA RESULT:      -7.0      0.000      0.000
REMARK  Name = 
REMARK  12 active torsions:
REMARK  status: ('A' for Active; 'I' for Inactive)
REMARK    1  A    between atoms: C_1  and  C_2
REMARK    2  A    between atoms: C_5  and  N_6
REMARK    3  A    between atoms: C_9  and  O_10
REMARK    4  A    between atoms: O_10  and  C_11
REMARK    5  A    between atoms: C_11  and  C_12
REMARK    6  A    between atoms: C_12  and  O_13
REMARK    7  A    between atoms: C_12  and  C_14
REMARK    8  A    between atoms: C_14  and  N_15
REMARK    9  A    between atoms: N_15  and  C_16
REMARK   10  A    between atoms: C_16  and  C_17
REMARK   11  A    between atoms: C_16  and  C_18
REMARK   12  A    between atoms: C_16  and  C_19
REMARK                            x       y       z     vdW  Elec       q    Type
REMARK                         _______ _______ _______ _____ _____    ______ ____
ROOT
ATOM      1  O   UNL     1       5.819   4.354  19.325  0.00  0.00    +0.000 OA
ENDROOT
BRANCH   1   7
ATOM      2  C   UNL     1       2.260   7.525  17.963  0.00  0.00    +0.000 C 
ATOM      3  C   UNL     1       2.724   6.129  18.269  0.00  0.00    +0.000 A 
ATOM      4  C   UNL     1       1.852   5.038  18.167  0.00  0.00    +0.000 A 
ATOM      5  C   UNL     1       2.305   3.754  18.460  0.00  0.00    +0.000 A 
ATOM      6  C   UNL     1       3.634   3.570  18.859  0.00  0.00    +0.000 A 
ATOM      7  C   UNL     1       4.533   4.637  18.962  0.00  0.00    +0.000 A 
ATOM      8  C   UNL     1       4.056   5.919  18.664  0.00  0.00    +0.000 A 
BRANCH   6   9
ATOM      9  N   UNL     1       4.069   2.220  19.167  0.00  0.00    +0.000 N 
ATOM     10  O   UNL     1       4.745   2.073  20.196  0.00  0.00    +0.000 OA
ATOM     11  O   UNL     1       3.802   1.333  18.347  0.00  0.00    +0.000 OA
ENDBRANCH   6   9
ENDBRANCH   1   7
BRANCH   1  12
ATOM     12  C   UNL     1       6.708   5.462  19.477  0.00  0.00    +0.000 C 
BRANCH  12  13
ATOM     13  C   UNL     1       7.779   5.407  18.381  0.00  0.00    +0.000 C 
BRANCH  13  14
ATOM     14  O   UNL     1       8.074   4.049  18.021  0.00  0.00    +0.000 OA
ATOM     15  H   UNL     1       7.556   3.463  18.598  0.00  0.00    +0.000 HD
ENDBRANCH  13  14
BRANCH  13  16
ATOM     16  C   UNL     1       7.309   6.143  17.115  0.00  0.00    +0.000 C 
BRANCH  16  17
ATOM     17  N   UNL     1       7.532   5.381  15.882  0.00  0.00    +0.000 NA
ATOM     18  H   UNL     1       8.075   4.545  16.109  0.00  0.00    +0.000 HD
BRANCH  17  19
ATOM     19  C   UNL     1       6.302   4.974  15.171  0.00  0.00    +0.000 C 
ATOM     20  C   UNL     1       5.231   6.076  15.227  0.00  0.00    +0.000 C 
ATOM     21  C   UNL     1       6.689   4.756  13.695  0.00  0.00    +0.000 C 
ATOM     22  C   UNL     1       5.741   3.653  15.724  0.00  0.00    +0.000 C 
ENDBRANCH  17  19
ENDBRANCH  16  17
ENDBRANCH  13  16
ENDBRANCH  12  13
ENDBRANCH   1  12
TORSDOF 8
ENDMDL
MODEL 2
REMARK VINA RESULT:      -6.7      1.066      1.432
REMARK  Name = 
REMARK  12 active torsions:
REMARK  status: ('A' for Active; 'I' for Inactive)
REMARK    1  A    between atoms: C_1  and  C_2
REMARK    2  A    between atoms: C_5  and  N_6
REMARK    3  A    between atoms: C_9  and  O_10
REMARK    4  A    between atoms: O_10  and  C_11
REMARK    5  A    between atoms: C_11  and  C_12
REMARK    6  A    between atoms: C_12  and  O_13
REMARK    7  A    between atoms: C_12  and  C_14
REMARK    8  A    between atoms: C_14  and  N_15
REMARK    9  A    between atoms: N_15  and  C_16
REMARK   10  A    between atoms: C_16  and  C_17
REMARK   11  A    between atoms: C_16  and  C_18
REMARK   12  A    between atoms: C_16  and  C_19
REMARK                            x       y       z     vdW  Elec       q    Type
REMARK                         _______ _______ _______ _____ _____    ______ ____
ROOT
ATOM      1  O   UNL     1       5.394   4.734  18.787  0.00  0.00    +0.000 OA
ENDROOT
BRANCH   1   7
ATOM      2  C   UNL     1       1.558   7.431  20.396  0.00  0.00    +0.000 C 
ATOM      3  C   UNL     1       2.213   6.102  20.151  0.00  0.00    +0.000 A 
ATOM      4  C   UNL     1       1.560   4.904  20.467  0.00  0.00    +0.000 A 
ATOM      5  C   UNL     1       2.190   3.683  20.234  0.00  0.00    +0.000 A 
ATOM      6  C   UNL     1       3.478   3.671  19.686  0.00  0.00    +0.000 A 
ATOM      7  C   UNL     1       4.154   4.849  19.350  0.00  0.00    +0.000 A 
ATOM      8  C   UNL     1       3.502   6.063  19.594  0.00  0.00    +0.000 A 
BRANCH   6   9
ATOM      9  N   UNL     1       4.108   2.383  19.466  0.00  0.00    +0.000 N 
ATOM     10  O   UNL     1       4.975   2.039  20.283  0.00  0.00    +0.000 OA
ATOM     11  O   UNL     1       3.792   1.758  18.445  0.00  0.00    +0.000 OA
ENDBRANCH   6   9
ENDBRANCH   1   7
BRANCH   1  12
ATOM     12  C   UNL     1       6.462   5.435  19.427  0.00  0.00    +0.000 C 
BRANCH  12  13
ATOM     13  C   UNL     1       7.650   5.538  18.463  0.00  0.00    +0.000 C 
BRANCH  13  14
ATOM     14  O   UNL     1       8.286   4.262  18.294  0.00  0.00    +0.000 OA
ATOM     15  H   UNL     1       7.592   3.583  18.229  0.00  0.00    +0.000 HD
ENDBRANCH  13  14
BRANCH  13  16
ATOM     16  C   UNL     1       7.192   6.026  17.078  0.00  0.00    +0.000 C 
BRANCH  16  17
ATOM     17  N   UNL     1       7.418   5.047  16.010  0.00  0.00    +0.000 NA
ATOM     18  H   UNL     1       7.789   4.190  16.428  0.00  0.00    +0.000 HD
BRANCH  17  19
ATOM     19  C   UNL     1       6.222   4.710  15.210  0.00  0.00    +0.000 C 
ATOM     20  C   UNL     1       5.497   3.478  15.778  0.00  0.00    +0.000 C 
ATOM     21  C   UNL     1       5.265   5.914  15.306  0.00  0.00    +0.000 C 
ATOM     22  C   UNL     1       6.576   4.489  13.730  0.00  0.00    +0.000 C 
ENDBRANCH  17  19
ENDBRANCH  16  17
ENDBRANCH  13  16
ENDBRANCH  12  13
ENDBRANCH   1  12
TORSDOF 8
ENDMDL
MODEL 3
REMARK VINA RESULT:      -6.7      1.932      2.560
REMARK  Name = 
REMARK  12 active torsions:
REMARK  status: ('A' for Active; 'I' for Inactive)
REMARK    1  A    between atoms: C_1  and  C_2
REMARK    2  A    between atoms: C_5  and  N_6
REMARK    3  A    between atoms: C_9  and  O_10
REMARK    4  A    between atoms: O_10  and  C_11
REMARK    5  A    between atoms: C_11  and  C_12
REMARK    6  A    between atoms: C_12  and  O_13
REMARK    7  A    between atoms: C_12  and  C_14
REMARK    8  A    between atoms: C_14  and  N_15
REMARK    9  A    between atoms: N_15  and  C_16
REMARK   10  A    between atoms: C_16  and  C_17
REMARK   11  A    between atoms: C_16  and  C_18
REMARK   12  A    between atoms: C_16  and  C_19
REMARK                            x       y       z     vdW  Elec       q    Type
REMARK                         _______ _______ _______ _____ _____    ______ ____
ROOT
ATOM      1  O   UNL     1       4.855   4.076  17.028  0.00  0.00    +0.000 OA
ENDROOT
BRANCH   1   7
ATOM      2  C   UNL     1       2.406   8.247  18.114  0.00  0.00    +0.000 C 
ATOM      3  C   UNL     1       2.818   6.843  18.456  0.00  0.00    +0.000 A 
ATOM      4  C   UNL     1       2.383   6.228  19.635  0.00  0.00    +0.000 A 
ATOM      5  C   UNL     1       2.781   4.927  19.932  0.00  0.00    +0.000 A 
ATOM      6  C   UNL     1       3.622   4.248  19.042  0.00  0.00    +0.000 A 
ATOM      7  C   UNL     1       4.067   4.830  17.850  0.00  0.00    +0.000 A 
ATOM      8  C   UNL     1       3.654   6.139  17.573  0.00  0.00    +0.000 A 
BRANCH   6   9
ATOM      9  N   UNL     1       4.026   2.898  19.387  0.00  0.00    +0.000 N 
ATOM     10  O   UNL     1       5.090   2.778  20.013  0.00  0.00    +0.000 OA
ATOM     11  O   UNL     1       3.326   1.967  18.971  0.00  0.00    +0.000 OA
ENDBRANCH   6   9
ENDBRANCH   1   7
BRANCH   1  12
ATOM     12  C   UNL     1       6.182   4.550  16.791  0.00  0.00    +0.000 C 
BRANCH  12  13
ATOM     13  C   UNL     1       6.261   5.154  15.384  0.00  0.00    +0.000 C 
BRANCH  13  14
ATOM     14  O   UNL     1       7.624   5.250  14.943  0.00  0.00    +0.000 OA
ATOM     15  H   UNL     1       8.197   4.921  15.656  0.00  0.00    +0.000 HD
ENDBRANCH  13  14
BRANCH  13  16
ATOM     16  C   UNL     1       5.493   4.288  14.371  0.00  0.00    +0.000 C 
BRANCH  16  17
ATOM     17  N   UNL     1       6.342   3.315  13.676  0.00  0.00    +0.000 NA
ATOM     18  H   UNL     1       6.147   2.385  14.054  0.00  0.00    +0.000 HD
BRANCH  17  19
ATOM     19  C   UNL     1       6.174   3.279  12.208  0.00  0.00    +0.000 C 
ATOM     20  C   UNL     1       4.728   3.605  11.800  0.00  0.00    +0.000 C 
ATOM     21  C   UNL     1       7.094   4.370  11.625  0.00  0.00    +0.000 C 
ATOM     22  C   UNL     1       6.602   1.922  11.623  0.00  0.00    +0.000 C 
ENDBRANCH  17  19
ENDBRANCH  16  17
ENDBRANCH  13  16
ENDBRANCH  12  13
ENDBRANCH   1  12
TORSDOF 8
ENDMDL
MODEL 4
REMARK VINA RESULT:      -6.7      2.135      5.916
REMARK  Name = 
REMARK  12 active torsions:
REMARK  status: ('A' for Active; 'I' for Inactive)
REMARK    1  A    between atoms: C_1  and  C_2
REMARK    2  A    between atoms: C_5  and  N_6
REMARK    3  A    between atoms: C_9  and  O_10
REMARK    4  A    between atoms: O_10  and  C_11
REMARK    5  A    between atoms: C_11  and  C_12
REMARK    6  A    between atoms: C_12  and  O_13
REMARK    7  A    between atoms: C_12  and  C_14
REMARK    8  A    between atoms: C_14  and  N_15
REMARK    9  A    between atoms: N_15  and  C_16
REMARK   10  A    between atoms: C_16  and  C_17
REMARK   11  A    between atoms: C_16  and  C_18
REMARK   12  A    between atoms: C_16  and  C_19
REMARK                            x       y       z     vdW  Elec       q    Type
REMARK                         _______ _______ _______ _____ _____    ______ ____
ROOT
ATOM      1  O   UNL     1       4.638   4.956  16.727  0.00  0.00    +0.000 OA
ENDROOT
BRANCH   1   7
ATOM      2  C   UNL     1       5.274   3.277  12.106  0.00  0.00    +0.000 C 
ATOM      3  C   UNL     1       5.803   3.955  13.337  0.00  0.00    +0.000 A 
ATOM      4  C   UNL     1       7.120   4.427  13.394  0.00  0.00    +0.000 A 
ATOM      5  C   UNL     1       7.589   5.050  14.549  0.00  0.00    +0.000 A 
ATOM      6  C   UNL     1       6.732   5.192  15.647  0.00  0.00    +0.000 A 
ATOM      7  C   UNL     1       5.408   4.740  15.619  0.00  0.00    +0.000 A 
ATOM      8  C   UNL     1       4.959   4.117  14.449  0.00  0.00    +0.000 A 
BRANCH   6   9
ATOM      9  N   UNL     1       7.256   5.836  16.836  0.00  0.00    +0.000 N 
ATOM     10  O   UNL     1       7.581   5.093  17.775  0.00  0.00    +0.000 OA
ATOM     11  O   UNL     1       7.271   7.073  16.859  0.00  0.00    +0.000 OA
ENDBRANCH   6   9
ENDBRANCH   1   7
BRANCH   1  12
ATOM     12  C   UNL     1       3.679   3.949  17.054  0.00  0.00    +0.000 C 
BRANCH  12  13
ATOM     13  C   UNL     1       4.356   2.858  17.892  0.00  0.00    +0.000 C 
BRANCH  13  14
ATOM     14  O   UNL     1       5.311   3.427  18.801  0.00  0.00    +0.000 OA
ATOM     15  H   UNL     1       5.108   3.104  19.695  0.00  0.00    +0.000 HD
ENDBRANCH  13  14
BRANCH  13  16
ATOM     16  C   UNL     1       3.320   2.079  18.720  0.00  0.00    +0.000 C 
BRANCH  16  17
ATOM     17  N   UNL     1       3.212   2.545  20.106  0.00  0.00    +0.000 NA
ATOM     18  H   UNL     1       3.960   3.219  20.282  0.00  0.00    +0.000 HD
BRANCH  17  19
ATOM     19  C   UNL     1       1.917   3.164  20.456  0.00  0.00    +0.000 C 
ATOM     20  C   UNL     1       2.017   4.698  20.479  0.00  0.00    +0.000 C 
ATOM     21  C   UNL     1       0.917   2.765  19.354  0.00  0.00    +0.000 C 
ATOM     22  C   UNL     1       1.387   2.642  21.803  0.00  0.00    +0.000 C 
ENDBRANCH  17  19
ENDBRANCH  16  17
ENDBRANCH  13  16
ENDBRANCH  12  13
ENDBRANCH   1  12
TORSDOF 8
ENDMDL
MODEL 5
REMARK VINA RESULT:      -6.7      1.669      2.535
REMARK  Name = 
REMARK  12 active torsions:
REMARK  status: ('A' for Active; 'I' for Inactive)
REMARK    1  A    between atoms: C_1  and  C_2
REMARK    2  A    between atoms: C_5  and  N_6
REMARK    3  A    between atoms: C_9  and  O_10
REMARK    4  A    between atoms: O_10  and  C_11
REMARK    5  A    between atoms: C_11  and  C_12
REMARK    6  A    between atoms: C_12  and  O_13
REMARK    7  A    between atoms: C_12  and  C_14
REMARK    8  A    between atoms: C_14  and  N_15
REMARK    9  A    between atoms: N_15  and  C_16
REMARK   10  A    between atoms: C_16  and  C_17
REMARK   11  A    between atoms: C_16  and  C_18
REMARK   12  A    between atoms: C_16  and  C_19
REMARK                            x       y       z     vdW  Elec       q    Type
REMARK                         _______ _______ _______ _____ _____    ______ ____
ROOT
ATOM      1  O   UNL     1       5.420   3.872  17.560  0.00  0.00    +0.000 OA
ENDROOT
BRANCH   1   7
ATOM      2  C   UNL     1       2.422   7.671  18.638  0.00  0.00    +0.000 C 
ATOM      3  C   UNL     1       2.862   6.249  18.846  0.00  0.00    +0.000 A 
ATOM      4  C   UNL     1       2.210   5.418  19.763  0.00  0.00    +0.000 A 
ATOM      5  C   UNL     1       2.638   4.104  19.941  0.00  0.00    +0.000 A 
ATOM      6  C   UNL     1       3.726   3.631  19.197  0.00  0.00    +0.000 A 
ATOM      7  C   UNL     1       4.392   4.434  18.264  0.00  0.00    +0.000 A 
ATOM      8  C   UNL     1       3.945   5.750  18.104  0.00  0.00    +0.000 A 
BRANCH   6   9
ATOM      9  N   UNL     1       4.152   2.261  19.414  0.00  0.00    +0.000 N 
ATOM     10  O   UNL     1       3.619   1.393  18.706  0.00  0.00    +0.000 OA
ATOM     11  O   UNL     1       4.952   2.050  20.334  0.00  0.00    +0.000 OA
ENDBRANCH   6   9
ENDBRANCH   1   7
BRANCH   1  12
ATOM     12  C   UNL     1       5.395   4.034  16.141  0.00  0.00    +0.000 C 
BRANCH  12  13
ATOM     13  C   UNL     1       6.639   4.814  15.698  0.00  0.00    +0.000 C 
BRANCH  13  14
ATOM     14  O   UNL     1       7.799   4.391  16.432  0.00  0.00    +0.000 OA
ATOM     15  H   UNL     1       8.569   4.448  15.841  0.00  0.00    +0.000 HD
ENDBRANCH  13  14
BRANCH  13  16
ATOM     16  C   UNL     1       6.919   4.597  14.201  0.00  0.00    +0.000 C 
BRANCH  16  17
ATOM     17  N   UNL     1       6.323   3.368  13.669  0.00  0.00    +0.000 NA
ATOM     18  H   UNL     1       5.408   3.234  14.106  0.00  0.00    +0.000 HD
BRANCH  17  19
ATOM     19  C   UNL     1       6.161   3.340  12.201  0.00  0.00    +0.000 C 
ATOM     20  C   UNL     1       7.093   4.352  11.514  0.00  0.00    +0.000 C 
ATOM     21  C   UNL     1       6.560   1.927  11.732  0.00  0.00    +0.000 C 
ATOM     22  C   UNL     1       4.701   3.592  11.788  0.00  0.00    +0.000 C 
ENDBRANCH  17  19
ENDBRANCH  16  17
ENDBRANCH  13  16
ENDBRANCH  12  13
ENDBRANCH   1  12
TORSDOF 8
ENDMDL
MODEL 6
REMARK VINA RESULT:      -6.6      2.140      5.732
REMARK  Name = 
REMARK  12 active torsions:
REMARK  status: ('A' for Active; 'I' for Inactive)
REMARK    1  A    between atoms: C_1  and  C_2
REMARK    2  A    between atoms: C_5  and  N_6
REMARK    3  A    between atoms: C_9  and  O_10
REMARK    4  A    between atoms: O_10  and  C_11
REMARK    5  A    between atoms: C_11  and  C_12
REMARK    6  A    between atoms: C_12  and  O_13
REMARK    7  A    between atoms: C_12  and  C_14
REMARK    8  A    between atoms: C_14  and  N_15
REMARK    9  A    between atoms: N_15  and  C_16
REMARK   10  A    between atoms: C_16  and  C_17
REMARK   11  A    between atoms: C_16  and  C_18
REMARK   12  A    between atoms: C_16  and  C_19
REMARK                            x       y       z     vdW  Elec       q    Type
REMARK                         _______ _______ _______ _____ _____    ______ ____
ROOT
ATOM      1  O   UNL     1       4.748   3.572  17.473  0.00  0.00    +0.000 OA
ENDROOT
BRANCH   1   7
ATOM      2  C   UNL     1       5.577   3.586  12.585  0.00  0.00    +0.000 C 
ATOM      3  C   UNL     1       5.959   3.994  13.980  0.00  0.00    +0.000 A 
ATOM      4  C   UNL     1       7.087   4.787  14.218  0.00  0.00    +0.000 A 
ATOM      5  C   UNL     1       7.423   5.150  15.520  0.00  0.00    +0.000 A 
ATOM      6  C   UNL     1       6.624   4.709  16.582  0.00  0.00    +0.000 A 
ATOM      7  C   UNL     1       5.484   3.924  16.377  0.00  0.00    +0.000 A 
ATOM      8  C   UNL     1       5.167   3.571  15.060  0.00  0.00    +0.000 A 
BRANCH   6   9
ATOM      9  N   UNL     1       7.009   5.097  17.926  0.00  0.00    +0.000 N 
ATOM     10  O   UNL     1       7.949   4.471  18.439  0.00  0.00    +0.000 OA
ATOM     11  O   UNL     1       6.329   5.964  18.488  0.00  0.00    +0.000 OA
ENDBRANCH   6   9
ENDBRANCH   1   7
BRANCH   1  12
ATOM     12  C   UNL     1       3.666   2.663  17.261  0.00  0.00    +0.000 C 
BRANCH  12  13
ATOM     13  C   UNL     1       3.501   1.773  18.499  0.00  0.00    +0.000 C 
BRANCH  13  14
ATOM     14  O   UNL     1       4.371   0.633  18.431  0.00  0.00    +0.000 OA
ATOM     15  H   UNL     1       4.056  -0.026  19.072  0.00  0.00    +0.000 HD
ENDBRANCH  13  14
BRANCH  13  16
ATOM     16  C   UNL     1       3.838   2.551  19.783  0.00  0.00    +0.000 C 
BRANCH  16  17
ATOM     17  N   UNL     1       3.246   3.892  19.824  0.00  0.00    +0.000 NA
ATOM     18  H   UNL     1       3.136   4.229  18.865  0.00  0.00    +0.000 HD
BRANCH  17  19
ATOM     19  C   UNL     1       1.942   3.976  20.513  0.00  0.00    +0.000 C 
ATOM     20  C   UNL     1       1.952   3.184  21.831  0.00  0.00    +0.000 C 
ATOM     21  C   UNL     1       1.706   5.461  20.848  0.00  0.00    +0.000 C 
ATOM     22  C   UNL     1       0.794   3.495  19.609  0.00  0.00    +0.000 C 
ENDBRANCH  17  19
ENDBRANCH  16  17
ENDBRANCH  13  16
ENDBRANCH  12  13
ENDBRANCH   1  12
TORSDOF 8
ENDMDL
MODEL 7
REMARK VINA RESULT:      -6.6      1.666      2.771
REMARK  Name = 
REMARK  12 active torsions:
REMARK  status: ('A' for Active; 'I' for Inactive)
REMARK    1  A    between atoms: C_1  and  C_2
REMARK    2  A    between atoms: C_5  and  N_6
REMARK    3  A    between atoms: C_9  and  O_10
REMARK    4  A    between atoms: O_10  and  C_11
REMARK    5  A    between atoms: C_11  and  C_12
REMARK    6  A    between atoms: C_12  and  O_13
REMARK    7  A    between atoms: C_12  and  C_14
REMARK    8  A    between atoms: C_14  and  N_15
REMARK    9  A    between atoms: N_15  and  C_16
REMARK   10  A    between atoms: C_16  and  C_17
REMARK   11  A    between atoms: C_16  and  C_18
REMARK   12  A    between atoms: C_16  and  C_19
REMARK                            x       y       z     vdW  Elec       q    Type
REMARK                         _______ _______ _______ _____ _____    ______ ____
ROOT
ATOM      1  O   UNL     1       5.194   3.930  18.212  0.00  0.00    +0.000 OA
ENDROOT
BRANCH   1   7
ATOM      2  C   UNL     1       1.826   6.910  20.298  0.00  0.00    +0.000 C 
ATOM      3  C   UNL     1       2.459   5.557  20.140  0.00  0.00    +0.000 A 
ATOM      4  C   UNL     1       1.992   4.451  20.860  0.00  0.00    +0.000 A 
ATOM      5  C   UNL     1       2.597   3.207  20.700  0.00  0.00    +0.000 A 
ATOM      6  C   UNL     1       3.676   3.079  19.816  0.00  0.00    +0.000 A 
ATOM      7  C   UNL     1       4.160   4.162  19.074  0.00  0.00    +0.000 A 
ATOM      8  C   UNL     1       3.537   5.402  19.253  0.00  0.00    +0.000 A 
BRANCH   6   9
ATOM      9  N   UNL     1       4.289   1.771  19.681  0.00  0.00    +0.000 N 
ATOM     10  O   UNL     1       3.827   1.027  18.803  0.00  0.00    +0.000 OA
ATOM     11  O   UNL     1       5.170   1.465  20.494  0.00  0.00    +0.000 OA
ENDBRANCH   6   9
ENDBRANCH   1   7
BRANCH   1  12
ATOM     12  C   UNL     1       4.884   3.924  16.817  0.00  0.00    +0.000 C 
BRANCH  12  13
ATOM     13  C   UNL     1       6.174   4.108  16.009  0.00  0.00    +0.000 C 
BRANCH  13  14
ATOM     14  O   UNL     1       6.138   3.334  14.801  0.00  0.00    +0.000 OA
ATOM     15  H   UNL     1       6.202   2.394  15.042  0.00  0.00    +0.000 HD
ENDBRANCH  13  14
BRANCH  13  16
ATOM     16  C   UNL     1       6.373   5.584  15.622  0.00  0.00    +0.000 C 
BRANCH  16  17
ATOM     17  N   UNL     1       7.517   6.212  16.289  0.00  0.00    +0.000 NA
ATOM     18  H   UNL     1       7.965   6.854  15.631  0.00  0.00    +0.000 HD
BRANCH  17  19
ATOM     19  C   UNL     1       7.189   6.948  17.528  0.00  0.00    +0.000 C 
ATOM     20  C   UNL     1       7.559   6.134  18.779  0.00  0.00    +0.000 C 
ATOM     21  C   UNL     1       8.038   8.234  17.524  0.00  0.00    +0.000 C 
ATOM     22  C   UNL     1       5.704   7.349  17.570  0.00  0.00    +0.000 C 
ENDBRANCH  17  19
ENDBRANCH  16  17
ENDBRANCH  13  16
ENDBRANCH  12  13
ENDBRANCH   1  12
TORSDOF 8
ENDMDL
MODEL 8
REMARK VINA RESULT:      -6.6      2.108      5.477
REMARK  Name = 
REMARK  12 active torsions:
REMARK  status: ('A' for Active; 'I' for Inactive)
REMARK    1  A    between atoms: C_1  and  C_2
REMARK    2  A    between atoms: C_5  and  N_6
REMARK    3  A    between atoms: C_9  and  O_10
REMARK    4  A    between atoms: O_10  and  C_11
REMARK    5  A    between atoms: C_11  and  C_12
REMARK    6  A    between atoms: C_12  and  O_13
REMARK    7  A    between atoms: C_12  and  C_14
REMARK    8  A    between atoms: C_14  and  N_15
REMARK    9  A    between atoms: N_15  and  C_16
REMARK   10  A    between atoms: C_16  and  C_17
REMARK   11  A    between atoms: C_16  and  C_18
REMARK   12  A    between atoms: C_16  and  C_19
REMARK                            x       y       z     vdW  Elec       q    Type
REMARK                         _______ _______ _______ _____ _____    ______ ____
ROOT
ATOM      1  O   UNL     1       5.106   7.240  17.500  0.00  0.00    +0.000 OA
ENDROOT
BRANCH   1   7
ATOM      2  C   UNL     1       5.451   4.150  13.638  0.00  0.00    +0.000 C 
ATOM      3  C   UNL     1       5.928   4.628  14.980  0.00  0.00    +0.000 A 
ATOM      4  C   UNL     1       7.015   4.020  15.619  0.00  0.00    +0.000 A 
ATOM      5  C   UNL     1       7.437   4.478  16.865  0.00  0.00    +0.000 A 
ATOM      6  C   UNL     1       6.762   5.547  17.467  0.00  0.00    +0.000 A 
ATOM      7  C   UNL     1       5.679   6.183  16.850  0.00  0.00    +0.000 A 
ATOM      8  C   UNL     1       5.271   5.704  15.599  0.00  0.00    +0.000 A 
BRANCH   6   9
ATOM      9  N   UNL     1       7.221   5.992  18.769  0.00  0.00    +0.000 N 
ATOM     10  O   UNL     1       8.100   6.867  18.780  0.00  0.00    +0.000 OA
ATOM     11  O   UNL     1       6.763   5.418  19.765  0.00  0.00    +0.000 OA
ENDBRANCH   6   9
ENDBRANCH   1   7
BRANCH   1  12
ATOM     12  C   UNL     1       3.693   7.187  17.700  0.00  0.00    +0.000 C 
BRANCH  12  13
ATOM     13  C   UNL     1       3.387   6.332  18.936  0.00  0.00    +0.000 C 
BRANCH  13  14
ATOM     14  O   UNL     1       2.605   7.069  19.888  0.00  0.00    +0.000 OA
ATOM     15  H   UNL     1       2.516   6.527  20.691  0.00  0.00    +0.000 HD
ENDBRANCH  13  14
BRANCH  13  16
ATOM     16  C   UNL     1       2.598   5.070  18.549  0.00  0.00    +0.000 C 
BRANCH  16  17
ATOM     17  N   UNL     1       3.080   3.855  19.214  0.00  0.00    +0.000 NA
ATOM     18  H   UNL     1       3.882   4.101  19.799  0.00  0.00    +0.000 HD
BRANCH  17  19
ATOM     19  C   UNL     1       2.076   3.160  20.045  0.00  0.00    +0.000 C 
ATOM     20  C   UNL     1       0.835   4.039  20.277  0.00  0.00    +0.000 C 
ATOM     21  C   UNL     1       1.635   1.907  19.263  0.00  0.00    +0.000 C 
ATOM     22  C   UNL     1       2.670   2.707  21.389  0.00  0.00    +0.000 C 
ENDBRANCH  17  19
ENDBRANCH  16  17
ENDBRANCH  13  16
ENDBRANCH  12  13
ENDBRANCH   1  12
TORSDOF 8
ENDMDL
MODEL 9
REMARK VINA RESULT:      -6.6      2.085      5.178
REMARK  Name = 
REMARK  12 active torsions:
REMARK  status: ('A' for Active; 'I' for Inactive)
REMARK    1  A    between atoms: C_1  and  C_2
REMARK    2  A    between atoms: C_5  and  N_6
REMARK    3  A    between atoms: C_9  and  O_10
REMARK    4  A    between atoms: O_10  and  C_11
REMARK    5  A    between atoms: C_11  and  C_12
REMARK    6  A    between atoms: C_12  and  O_13
REMARK    7  A    between atoms: C_12  and  C_14
REMARK    8  A    between atoms: C_14  and  N_15
REMARK    9  A    between atoms: N_15  and  C_16
REMARK   10  A    between atoms: C_16  and  C_17
REMARK   11  A    between atoms: C_16  and  C_18
REMARK   12  A    between atoms: C_16  and  C_19
REMARK                            x       y       z     vdW  Elec       q    Type
REMARK                         _______ _______ _______ _____ _____    ______ ____
ROOT
ATOM      1  O   UNL     1       4.769   6.831  17.790  0.00  0.00    +0.000 OA
ENDROOT
BRANCH   1   7
ATOM      2  C   UNL     1       5.357   4.087  13.703  0.00  0.00    +0.000 C 
ATOM      3  C   UNL     1       5.834   4.548  15.051  0.00  0.00    +0.000 A 
ATOM      4  C   UNL     1       7.036   4.079  15.592  0.00  0.00    +0.000 A 
ATOM      5  C   UNL     1       7.456   4.518  16.846  0.00  0.00    +0.000 A 
ATOM      6  C   UNL     1       6.660   5.426  17.555  0.00  0.00    +0.000 A 
ATOM      7  C   UNL     1       5.458   5.921  17.039  0.00  0.00    +0.000 A 
ATOM      8  C   UNL     1       5.056   5.465  15.778  0.00  0.00    +0.000 A 
BRANCH   6   9
ATOM      9  N   UNL     1       7.122   5.854  18.862  0.00  0.00    +0.000 N 
ATOM     10  O   UNL     1       8.042   6.685  18.884  0.00  0.00    +0.000 OA
ATOM     11  O   UNL     1       6.621   5.309  19.853  0.00  0.00    +0.000 OA
ENDBRANCH   6   9
ENDBRANCH   1   7
BRANCH   1  12
ATOM     12  C   UNL     1       3.387   6.558  18.030  0.00  0.00    +0.000 C 
BRANCH  12  13
ATOM     13  C   UNL     1       3.187   6.222  19.513  0.00  0.00    +0.000 C 
BRANCH  13  14
ATOM     14  O   UNL     1       2.375   7.214  20.158  0.00  0.00    +0.000 OA
ATOM     15  H   UNL     1       1.711   7.524  19.519  0.00  0.00    +0.000 HD
ENDBRANCH  13  14
BRANCH  13  16
ATOM     16  C   UNL     1       2.493   4.859  19.678  0.00  0.00    +0.000 C 
BRANCH  16  17
ATOM     17  N   UNL     1       3.368   3.720  19.382  0.00  0.00    +0.000 NA
ATOM     18  H   UNL     1       3.653   3.290  20.265  0.00  0.00    +0.000 HD
BRANCH  17  19
ATOM     19  C   UNL     1       2.768   2.682  18.518  0.00  0.00    +0.000 C 
ATOM     20  C   UNL     1       3.659   1.431  18.443  0.00  0.00    +0.000 C 
ATOM     21  C   UNL     1       1.429   2.279  19.164  0.00  0.00    +0.000 C 
ATOM     22  C   UNL     1       2.482   3.220  17.105  0.00  0.00    +0.000 C 
ENDBRANCH  17  19
ENDBRANCH  16  17
ENDBRANCH  13  16
ENDBRANCH  12  13
ENDBRANCH   1  12
TORSDOF 8
ENDMDL
