MODEL 1
REMARK VINA RESULT:      -8.1      0.000      0.000
REMARK  Name = 
REMARK  5 active torsions:
REMARK  status: ('A' for Active; 'I' for Inactive)
REMARK    1  A    between atoms: C_2  and  C_3
REMARK    2  A    between atoms: C_7  and  C_8
REMARK    3  A    between atoms: C_8  and  N_9
REMARK    4  A    between atoms: N_12  and  C_13
REMARK    5  A    between atoms: C_18  and  C_19
REMARK                            x       y       z     vdW  Elec       q    Type
REMARK                         _______ _______ _______ _____ _____    ______ ____
ROOT
ATOM      1  N   UNL     1       1.682  10.115  19.097  0.00  0.00    +0.000 NA
ATOM      2  C   UNL     1       1.443  11.567  18.939  0.00  0.00    +0.000 C 
ATOM      3  C   UNL     1      -0.038  12.018  18.887  0.00  0.00    +0.000 C 
ATOM      4  N   UNL     1      -0.783  11.469  20.037  0.00  0.00    +0.000 N 
ATOM      5  C   UNL     1      -0.672   9.995  20.124  0.00  0.00    +0.000 C 
ATOM      6  C   UNL     1       0.825   9.588  20.183  0.00  0.00    +0.000 C 
ENDROOT
BRANCH   4   7
ATOM      7  C   UNL     1      -1.999  12.046  20.406  0.00  0.00    +0.000 A 
ATOM      8  C   UNL     1      -3.072  12.129  19.492  0.00  0.00    +0.000 A 
ATOM      9  C   UNL     1      -4.296  12.726  19.817  0.00  0.00    +0.000 A 
ATOM     10  C   UNL     1      -4.499  13.243  21.085  0.00  0.00    +0.000 A 
ATOM     11  C   UNL     1      -3.460  13.189  22.008  0.00  0.00    +0.000 A 
ATOM     12  C   UNL     1      -2.201  12.624  21.679  0.00  0.00    +0.000 A 
BRANCH  12  13
ATOM     13  C   UNL     1      -1.134  12.755  22.743  0.00  0.00    +0.000 C 
ATOM     14  F   UNL     1      -1.459  13.444  23.869  0.00  0.00    +0.000 F 
ATOM     15  F   UNL     1      -0.706  11.534  23.188  0.00  0.00    +0.000 F 
ATOM     16  F   UNL     1      -0.011  13.365  22.256  0.00  0.00    +0.000 F 
ENDBRANCH  12  13
ENDBRANCH   4   7
BRANCH   1  17
ATOM     17  C   UNL     1       1.548   9.350  17.854  0.00  0.00    +0.000 C 
BRANCH  17  22
ATOM     18  C   UNL     1       2.583   5.618  17.904  0.00  0.00    +0.000 A 
ATOM     19  C   UNL     1       3.907   5.735  17.479  0.00  0.00    +0.000 A 
ATOM     20  C   UNL     1       4.474   6.988  17.223  0.00  0.00    +0.000 A 
ATOM     21  C   UNL     1       3.718   8.151  17.370  0.00  0.00    +0.000 A 
ATOM     22  C   UNL     1       2.389   8.082  17.799  0.00  0.00    +0.000 A 
ATOM     23  C   UNL     1       1.839   6.809  18.048  0.00  0.00    +0.000 A 
BRANCH  18  25
ATOM     24  O   UNL     1       1.778   3.622  17.043  0.00  0.00    +0.000 OA
ATOM     25  C   UNL     1       1.822   4.334  18.052  0.00  0.00    +0.000 C 
ATOM     26  N   UNL     1       1.221   3.891  19.238  0.00  0.00    +0.000 N 
ATOM     27  C   UNL     1       1.123   4.557  20.531  0.00  0.00    +0.000 C 
ATOM     28  C   UNL     1       2.171   3.979  21.489  0.00  0.00    +0.000 C 
ATOM     29  C   UNL     1       2.118   2.445  21.547  0.00  0.00    +0.000 C 
ATOM     30  C   UNL     1       2.049   1.812  20.152  0.00  0.00    +0.000 C 
ATOM     31  C   UNL     1       0.941   2.455  19.320  0.00  0.00    +0.000 C 
ENDBRANCH  18  25
ENDBRANCH  17  22
ENDBRANCH   1  17
TORSDOF 5
ENDMDL
MODEL 2
REMARK VINA RESULT:      -8.0      2.515      4.176
REMARK  Name = 
REMARK  5 active torsions:
REMARK  status: ('A' for Active; 'I' for Inactive)
REMARK    1  A    between atoms: C_2  and  C_3
REMARK    2  A    between atoms: C_7  and  C_8
REMARK    3  A    between atoms: C_8  and  N_9
REMARK    4  A    between atoms: N_12  and  C_13
REMARK    5  A    between atoms: C_18  and  C_19
REMARK                            x       y       z     vdW  Elec       q    Type
REMARK                         _______ _______ _______ _____ _____    ______ ____
ROOT
ATOM      1  N   UNL     1       1.609   8.368  20.912  0.00  0.00    +0.000 NA
ATOM      2  C   UNL     1       1.011   9.324  19.954  0.00  0.00    +0.000 C 
ATOM      3  C   UNL     1      -0.272  10.055  20.421  0.00  0.00    +0.000 C 
ATOM      4  N   UNL     1      -0.057  10.678  21.742  0.00  0.00    +0.000 N 
ATOM      5  C   UNL     1       0.404   9.699  22.753  0.00  0.00    +0.000 C 
ATOM      6  C   UNL     1       1.694   8.997  22.249  0.00  0.00    +0.000 C 
ENDROOT
BRANCH   4   7
ATOM      7  C   UNL     1      -0.913  11.692  22.172  0.00  0.00    +0.000 A 
ATOM      8  C   UNL     1      -2.005  11.410  23.022  0.00  0.00    +0.000 A 
ATOM      9  C   UNL     1      -2.902  12.396  23.451  0.00  0.00    +0.000 A 
ATOM     10  C   UNL     1      -2.723  13.712  23.059  0.00  0.00    +0.000 A 
ATOM     11  C   UNL     1      -1.665  14.024  22.212  0.00  0.00    +0.000 A 
ATOM     12  C   UNL     1      -0.772  13.029  21.738  0.00  0.00    +0.000 A 
BRANCH  12  13
ATOM     13  C   UNL     1       0.246  13.501  20.725  0.00  0.00    +0.000 C 
ATOM     14  F   UNL     1       0.046  13.144  19.428  0.00  0.00    +0.000 F 
ATOM     15  F   UNL     1       0.347  14.865  20.702  0.00  0.00    +0.000 F 
ATOM     16  F   UNL     1       1.503  13.060  21.033  0.00  0.00    +0.000 F 
ENDBRANCH  12  13
ENDBRANCH   4   7
BRANCH   1  17
ATOM     17  C   UNL     1       0.941   7.063  20.947  0.00  0.00    +0.000 C 
BRANCH  17  22
ATOM     18  C   UNL     1       3.890   5.043  19.457  0.00  0.00    +0.000 A 
ATOM     19  C   UNL     1       3.381   3.750  19.588  0.00  0.00    +0.000 A 
ATOM     20  C   UNL     1       2.098   3.530  20.101  0.00  0.00    +0.000 A 
ATOM     21  C   UNL     1       1.306   4.601  20.513  0.00  0.00    +0.000 A 
ATOM     22  C   UNL     1       1.774   5.914  20.396  0.00  0.00    +0.000 A 
ATOM     23  C   UNL     1       3.069   6.111  19.878  0.00  0.00    +0.000 A 
BRANCH  18  25
ATOM     24  O   UNL     1       6.152   5.186  19.944  0.00  0.00    +0.000 OA
ATOM     25  C   UNL     1       5.298   5.394  19.075  0.00  0.00    +0.000 C 
ATOM     26  N   UNL     1       5.691   5.879  17.822  0.00  0.00    +0.000 N 
ATOM     27  C   UNL     1       4.873   6.218  16.663  0.00  0.00    +0.000 C 
ATOM     28  C   UNL     1       4.940   5.082  15.635  0.00  0.00    +0.000 C 
ATOM     29  C   UNL     1       6.386   4.680  15.310  0.00  0.00    +0.000 C 
ATOM     30  C   UNL     1       7.240   4.506  16.572  0.00  0.00    +0.000 C 
ATOM     31  C   UNL     1       7.109   5.723  17.486  0.00  0.00    +0.000 C 
ENDBRANCH  18  25
ENDBRANCH  17  22
ENDBRANCH   1  17
TORSDOF 5
ENDMDL
MODEL 3
REMARK VINA RESULT:      -8.0      2.057      2.691
REMARK  Name = 
REMARK  5 active torsions:
REMARK  status: ('A' for Active; 'I' for Inactive)
REMARK    1  A    between atoms: C_2  and  C_3
REMARK    2  A    between atoms: C_7  and  C_8
REMARK    3  A    between atoms: C_8  and  N_9
REMARK    4  A    between atoms: N_12  and  C_13
REMARK    5  A    between atoms: C_18  and  C_19
REMARK                            x       y       z     vdW  Elec       q    Type
REMARK                         _______ _______ _______ _____ _____    ______ ____
ROOT
ATOM      1  N   UNL     1       0.951   9.951  21.679  0.00  0.00    +0.000 NA
ATOM      2  C   UNL     1       0.768  11.312  21.129  0.00  0.00    +0.000 C 
ATOM      3  C   UNL     1      -0.643  11.931  21.280  0.00  0.00    +0.000 C 
ATOM      4  N   UNL     1      -1.093  11.851  22.684  0.00  0.00    +0.000 N 
ATOM      5  C   UNL     1      -1.053  10.465  23.205  0.00  0.00    +0.000 C 
ATOM      6  C   UNL     1       0.379   9.888  23.043  0.00  0.00    +0.000 C 
ENDROOT
BRANCH   4   7
ATOM      7  C   UNL     1      -2.131  12.674  23.121  0.00  0.00    +0.000 A 
ATOM      8  C   UNL     1      -3.353  12.126  23.572  0.00  0.00    +0.000 A 
ATOM      9  C   UNL     1      -4.427  12.920  23.991  0.00  0.00    +0.000 A 
ATOM     10  C   UNL     1      -4.307  14.300  23.996  0.00  0.00    +0.000 A 
ATOM     11  C   UNL     1      -3.122  14.874  23.547  0.00  0.00    +0.000 A 
ATOM     12  C   UNL     1      -2.040  14.083  23.082  0.00  0.00    +0.000 A 
BRANCH  12  13
ATOM     13  C   UNL     1      -0.873  14.854  22.508  0.00  0.00    +0.000 C 
ATOM     14  F   UNL     1       0.374  14.376  22.763  0.00  0.00    +0.000 F 
ATOM     15  F   UNL     1      -0.943  14.942  21.144  0.00  0.00    +0.000 F 
ATOM     16  F   UNL     1      -0.863  16.149  22.945  0.00  0.00    +0.000 F 
ENDBRANCH  12  13
ENDBRANCH   4   7
BRANCH   1  17
ATOM     17  C   UNL     1       0.448   8.883  20.809  0.00  0.00    +0.000 C 
BRANCH  17  22
ATOM     18  C   UNL     1       3.049   6.660  18.996  0.00  0.00    +0.000 A 
ATOM     19  C   UNL     1       3.144   7.347  17.785  0.00  0.00    +0.000 A 
ATOM     20  C   UNL     1       2.425   8.527  17.568  0.00  0.00    +0.000 A 
ATOM     21  C   UNL     1       1.578   9.032  18.554  0.00  0.00    +0.000 A 
ATOM     22  C   UNL     1       1.455   8.378  19.784  0.00  0.00    +0.000 A 
ATOM     23  C   UNL     1       2.187   7.191  19.979  0.00  0.00    +0.000 A 
BRANCH  18  25
ATOM     24  O   UNL     1       4.837   5.310  19.593  0.00  0.00    +0.000 OA
ATOM     25  C   UNL     1       3.640   5.311  19.285  0.00  0.00    +0.000 C 
ATOM     26  N   UNL     1       2.928   4.105  19.272  0.00  0.00    +0.000 N 
ATOM     27  C   UNL     1       1.534   3.857  18.923  0.00  0.00    +0.000 C 
ATOM     28  C   UNL     1       0.703   3.702  20.202  0.00  0.00    +0.000 C 
ATOM     29  C   UNL     1       1.317   2.681  21.171  0.00  0.00    +0.000 C 
ATOM     30  C   UNL     1       2.824   2.894  21.361  0.00  0.00    +0.000 C 
ATOM     31  C   UNL     1       3.532   2.993  20.011  0.00  0.00    +0.000 C 
ENDBRANCH  18  25
ENDBRANCH  17  22
ENDBRANCH   1  17
TORSDOF 5
ENDMDL
MODEL 4
REMARK VINA RESULT:      -7.9      1.483      2.246
REMARK  Name = 
REMARK  5 active torsions:
REMARK  status: ('A' for Active; 'I' for Inactive)
REMARK    1  A    between atoms: C_2  and  C_3
REMARK    2  A    between atoms: C_7  and  C_8
REMARK    3  A    between atoms: C_8  and  N_9
REMARK    4  A    between atoms: N_12  and  C_13
REMARK    5  A    between atoms: C_18  and  C_19
REMARK                            x       y       z     vdW  Elec       q    Type
REMARK                         _______ _______ _______ _____ _____    ______ ____
ROOT
ATOM      1  N   UNL     1       0.521   9.458  18.908  0.00  0.00    +0.000 NA
ATOM      2  C   UNL     1       0.840   9.456  20.353  0.00  0.00    +0.000 C 
ATOM      3  C   UNL     1       1.173  10.830  20.986  0.00  0.00    +0.000 C 
ATOM      4  N   UNL     1       0.117  11.812  20.667  0.00  0.00    +0.000 N 
ATOM      5  C   UNL     1      -0.113  11.932  19.209  0.00  0.00    +0.000 C 
ATOM      6  C   UNL     1      -0.451  10.537  18.618  0.00  0.00    +0.000 C 
ENDROOT
BRANCH   4   7
ATOM      7  C   UNL     1       0.003  12.972  21.434  0.00  0.00    +0.000 A 
ATOM      8  C   UNL     1       0.919  14.037  21.284  0.00  0.00    +0.000 A 
ATOM      9  C   UNL     1       0.854  15.203  22.055  0.00  0.00    +0.000 A 
ATOM     10  C   UNL     1      -0.152  15.356  22.996  0.00  0.00    +0.000 A 
ATOM     11  C   UNL     1      -1.065  14.322  23.178  0.00  0.00    +0.000 A 
ATOM     12  C   UNL     1      -0.986  13.118  22.432  0.00  0.00    +0.000 A 
BRANCH  12  13
ATOM     13  C   UNL     1      -1.967  12.040  22.835  0.00  0.00    +0.000 C 
ATOM     14  F   UNL     1      -1.452  10.843  23.221  0.00  0.00    +0.000 F 
ATOM     15  F   UNL     1      -2.757  12.436  23.880  0.00  0.00    +0.000 F 
ATOM     16  F   UNL     1      -2.840  11.752  21.823  0.00  0.00    +0.000 F 
ENDBRANCH  12  13
ENDBRANCH   4   7
BRANCH   1  17
ATOM     17  C   UNL     1       1.699   9.515  18.037  0.00  0.00    +0.000 C 
BRANCH  17  22
ATOM     18  C   UNL     1       2.518   5.731  17.969  0.00  0.00    +0.000 A 
ATOM     19  C   UNL     1       3.829   5.781  17.494  0.00  0.00    +0.000 A 
ATOM     20  C   UNL     1       4.458   7.005  17.244  0.00  0.00    +0.000 A 
ATOM     21  C   UNL     1       3.777   8.206  17.445  0.00  0.00    +0.000 A 
ATOM     22  C   UNL     1       2.463   8.203  17.923  0.00  0.00    +0.000 A 
ATOM     23  C   UNL     1       1.850   6.958  18.166  0.00  0.00    +0.000 A 
BRANCH  18  25
ATOM     24  O   UNL     1       1.519   3.834  17.085  0.00  0.00    +0.000 OA
ATOM     25  C   UNL     1       1.689   4.489  18.119  0.00  0.00    +0.000 C 
ATOM     26  N   UNL     1       1.159   4.022  19.328  0.00  0.00    +0.000 N 
ATOM     27  C   UNL     1       1.208   4.624  20.655  0.00  0.00    +0.000 C 
ATOM     28  C   UNL     1       2.291   3.934  21.494  0.00  0.00    +0.000 C 
ATOM     29  C   UNL     1       2.143   2.405  21.484  0.00  0.00    +0.000 C 
ATOM     30  C   UNL     1       1.921   1.851  20.071  0.00  0.00    +0.000 C 
ATOM     31  C   UNL     1       0.794   2.603  19.366  0.00  0.00    +0.000 C 
ENDBRANCH  18  25
ENDBRANCH  17  22
ENDBRANCH   1  17
TORSDOF 5
ENDMDL
MODEL 5
REMARK VINA RESULT:      -7.8      2.205      3.465
REMARK  Name = 
REMARK  5 active torsions:
REMARK  status: ('A' for Active; 'I' for Inactive)
REMARK    1  A    between atoms: C_2  and  C_3
REMARK    2  A    between atoms: C_7  and  C_8
REMARK    3  A    between atoms: C_8  and  N_9
REMARK    4  A    between atoms: N_12  and  C_13
REMARK    5  A    between atoms: C_18  and  C_19
REMARK                            x       y       z     vdW  Elec       q    Type
REMARK                         _______ _______ _______ _____ _____    ______ ____
ROOT
ATOM      1  N   UNL     1       2.512   8.401  17.353  0.00  0.00    +0.000 NA
ATOM      2  C   UNL     1       1.702   7.487  18.188  0.00  0.00    +0.000 C 
ATOM      3  C   UNL     1       1.482   7.913  19.660  0.00  0.00    +0.000 C 
ATOM      4  N   UNL     1       0.973   9.298  19.724  0.00  0.00    +0.000 N 
ATOM      5  C   UNL     1       1.855  10.251  19.014  0.00  0.00    +0.000 C 
ATOM      6  C   UNL     1       2.041   9.792  17.542  0.00  0.00    +0.000 C 
ENDROOT
BRANCH   4   7
ATOM      7  C   UNL     1       0.345   9.746  20.887  0.00  0.00    +0.000 A 
ATOM      8  C   UNL     1       0.652   9.180  22.144  0.00  0.00    +0.000 A 
ATOM      9  C   UNL     1       0.022   9.584  23.327  0.00  0.00    +0.000 A 
ATOM     10  C   UNL     1      -0.927  10.593  23.298  0.00  0.00    +0.000 A 
ATOM     11  C   UNL     1      -1.261  11.165  22.075  0.00  0.00    +0.000 A 
ATOM     12  C   UNL     1      -0.661  10.738  20.863  0.00  0.00    +0.000 A 
BRANCH  12  13
ATOM     13  C   UNL     1      -1.222  11.364  19.606  0.00  0.00    +0.000 C 
ATOM     14  F   UNL     1      -0.445  12.278  18.966  0.00  0.00    +0.000 F 
ATOM     15  F   UNL     1      -1.512  10.424  18.655  0.00  0.00    +0.000 F 
ATOM     16  F   UNL     1      -2.408  12.000  19.847  0.00  0.00    +0.000 F 
ENDBRANCH  12  13
ENDBRANCH   4   7
BRANCH   1  17
ATOM     17  C   UNL     1       3.959   8.266  17.553  0.00  0.00    +0.000 C 
BRANCH  17  22
ATOM     18  C   UNL     1       4.859   4.518  17.919  0.00  0.00    +0.000 A 
ATOM     19  C   UNL     1       5.327   4.260  16.630  0.00  0.00    +0.000 A 
ATOM     20  C   UNL     1       5.398   5.277  15.673  0.00  0.00    +0.000 A 
ATOM     21  C   UNL     1       4.980   6.572  15.982  0.00  0.00    +0.000 A 
ATOM     22  C   UNL     1       4.508   6.876  17.263  0.00  0.00    +0.000 A 
ATOM     23  C   UNL     1       4.444   5.835  18.210  0.00  0.00    +0.000 A 
BRANCH  18  25
ATOM     24  O   UNL     1       5.529   3.241  19.735  0.00  0.00    +0.000 OA
ATOM     25  C   UNL     1       4.587   3.485  18.974  0.00  0.00    +0.000 C 
ATOM     26  N   UNL     1       3.358   2.842  19.166  0.00  0.00    +0.000 N 
ATOM     27  C   UNL     1       2.126   2.948  18.393  0.00  0.00    +0.000 C 
ATOM     28  C   UNL     1       1.138   3.867  19.122  0.00  0.00    +0.000 C 
ATOM     29  C   UNL     1       0.946   3.462  20.590  0.00  0.00    +0.000 C 
ATOM     30  C   UNL     1       2.280   3.197  21.301  0.00  0.00    +0.000 C 
ATOM     31  C   UNL     1       3.146   2.239  20.485  0.00  0.00    +0.000 C 
ENDBRANCH  18  25
ENDBRANCH  17  22
ENDBRANCH   1  17
TORSDOF 5
ENDMDL
MODEL 6
REMARK VINA RESULT:      -7.8      1.311      1.560
REMARK  Name = 
REMARK  5 active torsions:
REMARK  status: ('A' for Active; 'I' for Inactive)
REMARK    1  A    between atoms: C_2  and  C_3
REMARK    2  A    between atoms: C_7  and  C_8
REMARK    3  A    between atoms: C_8  and  N_9
REMARK    4  A    between atoms: N_12  and  C_13
REMARK    5  A    between atoms: C_18  and  C_19
REMARK                            x       y       z     vdW  Elec       q    Type
REMARK                         _______ _______ _______ _____ _____    ______ ____
ROOT
ATOM      1  N   UNL     1       1.950   9.312  19.152  0.00  0.00    +0.000 NA
ATOM      2  C   UNL     1       1.699  10.671  18.622  0.00  0.00    +0.000 C 
ATOM      3  C   UNL     1       0.218  11.116  18.545  0.00  0.00    +0.000 C 
ATOM      4  N   UNL     1      -0.449  10.912  19.847  0.00  0.00    +0.000 N 
ATOM      5  C   UNL     1      -0.330   9.514  20.322  0.00  0.00    +0.000 C 
ATOM      6  C   UNL     1       1.168   9.114  20.393  0.00  0.00    +0.000 C 
ENDROOT
BRANCH   4   7
ATOM      7  C   UNL     1      -1.638  11.587  20.123  0.00  0.00    +0.000 A 
ATOM      8  C   UNL     1      -2.668  11.672  19.160  0.00  0.00    +0.000 A 
ATOM      9  C   UNL     1      -3.862  12.364  19.391  0.00  0.00    +0.000 A 
ATOM     10  C   UNL     1      -4.080  12.982  20.611  0.00  0.00    +0.000 A 
ATOM     11  C   UNL     1      -3.083  12.928  21.579  0.00  0.00    +0.000 A 
ATOM     12  C   UNL     1      -1.851  12.264  21.344  0.00  0.00    +0.000 A 
BRANCH  12  13
ATOM     13  C   UNL     1      -0.820  12.404  22.442  0.00  0.00    +0.000 C 
ATOM     14  F   UNL     1      -1.127  13.221  23.484  0.00  0.00    +0.000 F 
ATOM     15  F   UNL     1      -0.521  11.198  23.015  0.00  0.00    +0.000 F 
ATOM     16  F   UNL     1       0.371  12.868  21.955  0.00  0.00    +0.000 F 
ENDBRANCH  12  13
ENDBRANCH   4   7
BRANCH   1  17
ATOM     17  C   UNL     1       1.734   8.242  18.173  0.00  0.00    +0.000 C 
BRANCH  17  22
ATOM     18  C   UNL     1       4.320   5.364  18.338  0.00  0.00    +0.000 A 
ATOM     19  C   UNL     1       5.106   5.689  17.233  0.00  0.00    +0.000 A 
ATOM     20  C   UNL     1       4.843   6.834  16.473  0.00  0.00    +0.000 A 
ATOM     21  C   UNL     1       3.772   7.667  16.795  0.00  0.00    +0.000 A 
ATOM     22  C   UNL     1       2.961   7.382  17.898  0.00  0.00    +0.000 A 
ATOM     23  C   UNL     1       3.243   6.223  18.646  0.00  0.00    +0.000 A 
BRANCH  18  25
ATOM     24  O   UNL     1       5.477   3.890  19.704  0.00  0.00    +0.000 OA
ATOM     25  C   UNL     1       4.403   4.089  19.126  0.00  0.00    +0.000 C 
ATOM     26  N   UNL     1       3.355   3.171  19.276  0.00  0.00    +0.000 N 
ATOM     27  C   UNL     1       2.024   3.180  18.682  0.00  0.00    +0.000 C 
ATOM     28  C   UNL     1       1.004   3.682  19.712  0.00  0.00    +0.000 C 
ATOM     29  C   UNL     1       1.111   2.929  21.045  0.00  0.00    +0.000 C 
ATOM     30  C   UNL     1       2.561   2.804  21.530  0.00  0.00    +0.000 C 
ATOM     31  C   UNL     1       3.457   2.260  20.419  0.00  0.00    +0.000 C 
ENDBRANCH  18  25
ENDBRANCH  17  22
ENDBRANCH   1  17
TORSDOF 5
ENDMDL
MODEL 7
REMARK VINA RESULT:      -7.7      2.196      2.684
REMARK  Name = 
REMARK  5 active torsions:
REMARK  status: ('A' for Active; 'I' for Inactive)
REMARK    1  A    between atoms: C_2  and  C_3
REMARK    2  A    between atoms: C_7  and  C_8
REMARK    3  A    between atoms: C_8  and  N_9
REMARK    4  A    between atoms: N_12  and  C_13
REMARK    5  A    between atoms: C_18  and  C_19
REMARK                            x       y       z     vdW  Elec       q    Type
REMARK                         _______ _______ _______ _____ _____    ______ ____
ROOT
ATOM      1  N   UNL     1       1.266   9.662  18.250  0.00  0.00    +0.000 NA
ATOM      2  C   UNL     1      -0.192   9.832  18.068  0.00  0.00    +0.000 C 
ATOM      3  C   UNL     1      -0.960  10.487  19.243  0.00  0.00    +0.000 C 
ATOM      4  N   UNL     1      -0.313  11.755  19.637  0.00  0.00    +0.000 N 
ATOM      5  C   UNL     1       1.120  11.573  19.963  0.00  0.00    +0.000 C 
ATOM      6  C   UNL     1       1.851  10.924  18.758  0.00  0.00    +0.000 C 
ENDROOT
BRANCH   4   7
ATOM      7  C   UNL     1      -1.030  12.690  20.384  0.00  0.00    +0.000 A 
ATOM      8  C   UNL     1      -1.876  12.282  21.440  0.00  0.00    +0.000 A 
ATOM      9  C   UNL     1      -2.632  13.188  22.192  0.00  0.00    +0.000 A 
ATOM     10  C   UNL     1      -2.551  14.546  21.929  0.00  0.00    +0.000 A 
ATOM     11  C   UNL     1      -1.736  14.981  20.889  0.00  0.00    +0.000 A 
ATOM     12  C   UNL     1      -0.996  14.071  20.092  0.00  0.00    +0.000 A 
BRANCH  12  13
ATOM     13  C   UNL     1      -0.261  14.685  18.921  0.00  0.00    +0.000 C 
ATOM     14  F   UNL     1       1.092  14.780  19.017  0.00  0.00    +0.000 F 
ATOM     15  F   UNL     1      -0.483  13.993  17.762  0.00  0.00    +0.000 F 
ATOM     16  F   UNL     1      -0.698  15.954  18.664  0.00  0.00    +0.000 F 
ENDBRANCH  12  13
ENDBRANCH   4   7
BRANCH   1  17
ATOM     17  C   UNL     1       1.634   8.502  19.068  0.00  0.00    +0.000 C 
BRANCH  17  22
ATOM     18  C   UNL     1       4.061   5.548  18.452  0.00  0.00    +0.000 A 
ATOM     19  C   UNL     1       4.628   5.956  17.244  0.00  0.00    +0.000 A 
ATOM     20  C   UNL     1       4.275   7.176  16.658  0.00  0.00    +0.000 A 
ATOM     21  C   UNL     1       3.330   8.005  17.262  0.00  0.00    +0.000 A 
ATOM     22  C   UNL     1       2.740   7.638  18.476  0.00  0.00    +0.000 A 
ATOM     23  C   UNL     1       3.109   6.404  19.046  0.00  0.00    +0.000 A 
BRANCH  18  25
ATOM     24  O   UNL     1       5.373   3.956  19.511  0.00  0.00    +0.000 OA
ATOM     25  C   UNL     1       4.237   4.201  19.091  0.00  0.00    +0.000 C 
ATOM     26  N   UNL     1       3.214   3.262  19.273  0.00  0.00    +0.000 N 
ATOM     27  C   UNL     1       1.820   3.317  18.848  0.00  0.00    +0.000 C 
ATOM     28  C   UNL     1       0.934   3.701  20.039  0.00  0.00    +0.000 C 
ATOM     29  C   UNL     1       1.201   2.818  21.267  0.00  0.00    +0.000 C 
ATOM     30  C   UNL     1       2.699   2.661  21.557  0.00  0.00    +0.000 C 
ATOM     31  C   UNL     1       3.453   2.241  20.297  0.00  0.00    +0.000 C 
ENDBRANCH  18  25
ENDBRANCH  17  22
ENDBRANCH   1  17
TORSDOF 5
ENDMDL
MODEL 8
REMARK VINA RESULT:      -7.6      2.290      2.960
REMARK  Name = 
REMARK  5 active torsions:
REMARK  status: ('A' for Active; 'I' for Inactive)
REMARK    1  A    between atoms: C_2  and  C_3
REMARK    2  A    between atoms: C_7  and  C_8
REMARK    3  A    between atoms: C_8  and  N_9
REMARK    4  A    between atoms: N_12  and  C_13
REMARK    5  A    between atoms: C_18  and  C_19
REMARK                            x       y       z     vdW  Elec       q    Type
REMARK                         _______ _______ _______ _____ _____    ______ ____
ROOT
ATOM      1  N   UNL     1       1.968   8.055  18.210  0.00  0.00    +0.000 NA
ATOM      2  C   UNL     1       1.921   8.004  19.688  0.00  0.00    +0.000 C 
ATOM      3  C   UNL     1       1.908   9.367  20.423  0.00  0.00    +0.000 C 
ATOM      4  N   UNL     1       0.845  10.235  19.878  0.00  0.00    +0.000 N 
ATOM      5  C   UNL     1       0.966  10.414  18.413  0.00  0.00    +0.000 C 
ATOM      6  C   UNL     1       0.966   9.026  17.717  0.00  0.00    +0.000 C 
ENDROOT
BRANCH   4   7
ATOM      7  C   UNL     1       0.397  11.325  20.624  0.00  0.00    +0.000 A 
ATOM      8  C   UNL     1       0.637  12.649  20.194  0.00  0.00    +0.000 A 
ATOM      9  C   UNL     1       0.228  13.767  20.931  0.00  0.00    +0.000 A 
ATOM     10  C   UNL     1      -0.460  13.599  22.121  0.00  0.00    +0.000 A 
ATOM     11  C   UNL     1      -0.704  12.309  22.580  0.00  0.00    +0.000 A 
ATOM     12  C   UNL     1      -0.260  11.167  21.865  0.00  0.00    +0.000 A 
BRANCH  12  13
ATOM     13  C   UNL     1      -0.486   9.841  22.556  0.00  0.00    +0.000 C 
ATOM     14  F   UNL     1      -1.430   9.802  23.533  0.00  0.00    +0.000 F 
ATOM     15  F   UNL     1      -0.853   8.863  21.672  0.00  0.00    +0.000 F 
ATOM     16  F   UNL     1       0.660   9.377  23.139  0.00  0.00    +0.000 F 
ENDBRANCH  12  13
ENDBRANCH   4   7
BRANCH   1  17
ATOM     17  C   UNL     1       3.307   8.302  17.665  0.00  0.00    +0.000 C 
BRANCH  17  22
ATOM     18  C   UNL     1       4.757   4.718  17.879  0.00  0.00    +0.000 A 
ATOM     19  C   UNL     1       5.395   4.646  16.639  0.00  0.00    +0.000 A 
ATOM     20  C   UNL     1       5.400   5.741  15.768  0.00  0.00    +0.000 A 
ATOM     21  C   UNL     1       4.749   6.925  16.113  0.00  0.00    +0.000 A 
ATOM     22  C   UNL     1       4.101   7.042  17.347  0.00  0.00    +0.000 A 
ATOM     23  C   UNL     1       4.107   5.926  18.207  0.00  0.00    +0.000 A 
BRANCH  18  25
ATOM     24  O   UNL     1       5.457   3.372  19.632  0.00  0.00    +0.000 OA
ATOM     25  C   UNL     1       4.546   3.569  18.821  0.00  0.00    +0.000 C 
ATOM     26  N   UNL     1       3.398   2.768  18.862  0.00  0.00    +0.000 N 
ATOM     27  C   UNL     1       2.219   2.795  18.005  0.00  0.00    +0.000 C 
ATOM     28  C   UNL     1       1.075   3.520  18.725  0.00  0.00    +0.000 C 
ATOM     29  C   UNL     1       0.835   2.963  20.136  0.00  0.00    +0.000 C 
ATOM     30  C   UNL     1       2.139   2.797  20.926  0.00  0.00    +0.000 C 
ATOM     31  C   UNL     1       3.174   2.028  20.107  0.00  0.00    +0.000 C 
ENDBRANCH  18  25
ENDBRANCH  17  22
ENDBRANCH   1  17
TORSDOF 5
ENDMDL
MODEL 9
REMARK VINA RESULT:      -7.6      1.800      2.423
REMARK  Name = 
REMARK  5 active torsions:
REMARK  status: ('A' for Active; 'I' for Inactive)
REMARK    1  A    between atoms: C_2  and  C_3
REMARK    2  A    between atoms: C_7  and  C_8
REMARK    3  A    between atoms: C_8  and  N_9
REMARK    4  A    between atoms: N_12  and  C_13
REMARK    5  A    between atoms: C_18  and  C_19
REMARK                            x       y       z     vdW  Elec       q    Type
REMARK                         _______ _______ _______ _____ _____    ______ ____
ROOT
ATOM      1  N   UNL     1       0.652  10.165  21.750  0.00  0.00    +0.000 NA
ATOM      2  C   UNL     1       0.572  11.366  20.889  0.00  0.00    +0.000 C 
ATOM      3  C   UNL     1      -0.842  11.957  20.663  0.00  0.00    +0.000 C 
ATOM      4  N   UNL     1      -1.522  12.172  21.956  0.00  0.00    +0.000 N 
ATOM      5  C   UNL     1      -1.578  10.937  22.770  0.00  0.00    +0.000 C 
ATOM      6  C   UNL     1      -0.142  10.385  22.980  0.00  0.00    +0.000 C 
ENDROOT
BRANCH   4   7
ATOM      7  C   UNL     1      -2.615  13.037  22.022  0.00  0.00    +0.000 A 
ATOM      8  C   UNL     1      -3.851  12.694  21.428  0.00  0.00    +0.000 A 
ATOM      9  C   UNL     1      -4.960  13.548  21.449  0.00  0.00    +0.000 A 
ATOM     10  C   UNL     1      -4.879  14.774  22.090  0.00  0.00    +0.000 A 
ATOM     11  C   UNL     1      -3.674  15.148  22.675  0.00  0.00    +0.000 A 
ATOM     12  C   UNL     1      -2.530  14.310  22.626  0.00  0.00    +0.000 A 
BRANCH  12  13
ATOM     13  C   UNL     1      -1.262  14.911  23.192  0.00  0.00    +0.000 C 
ATOM     14  F   UNL     1      -1.304  16.218  23.562  0.00  0.00    +0.000 F 
ATOM     15  F   UNL     1      -0.838  14.243  24.309  0.00  0.00    +0.000 F 
ATOM     16  F   UNL     1      -0.223  14.816  22.309  0.00  0.00    +0.000 F 
ENDBRANCH  12  13
ENDBRANCH   4   7
BRANCH   1  17
ATOM     17  C   UNL     1       0.297   8.917  21.067  0.00  0.00    +0.000 C 
BRANCH  17  22
ATOM     18  C   UNL     1       2.930   6.818  19.155  0.00  0.00    +0.000 A 
ATOM     19  C   UNL     1       2.984   7.537  17.960  0.00  0.00    +0.000 A 
ATOM     20  C   UNL     1       2.225   8.699  17.784  0.00  0.00    +0.000 A 
ATOM     21  C   UNL     1       1.381   9.155  18.797  0.00  0.00    +0.000 A 
ATOM     22  C   UNL     1       1.300   8.468  20.013  0.00  0.00    +0.000 A 
ATOM     23  C   UNL     1       2.071   7.298  20.166  0.00  0.00    +0.000 A 
BRANCH  18  25
ATOM     24  O   UNL     1       4.755   5.511  19.735  0.00  0.00    +0.000 OA
ATOM     25  C   UNL     1       3.566   5.481  19.400  0.00  0.00    +0.000 C 
ATOM     26  N   UNL     1       2.901   4.251  19.320  0.00  0.00    +0.000 N 
ATOM     27  C   UNL     1       1.526   3.966  18.930  0.00  0.00    +0.000 C 
ATOM     28  C   UNL     1       0.674   3.725  20.182  0.00  0.00    +0.000 C 
ATOM     29  C   UNL     1       1.307   2.688  21.121  0.00  0.00    +0.000 C 
ATOM     30  C   UNL     1       2.800   2.948  21.354  0.00  0.00    +0.000 C 
ATOM     31  C   UNL     1       3.531   3.132  20.025  0.00  0.00    +0.000 C 
ENDBRANCH  18  25
ENDBRANCH  17  22
ENDBRANCH   1  17
TORSDOF 5
ENDMDL
