MODEL 1
REMARK VINA RESULT:      -6.6      0.000      0.000
REMARK  Name = 
REMARK  7 active torsions:
REMARK  status: ('A' for Active; 'I' for Inactive)
REMARK    1  A    between atoms: C_1  and  C_2
REMARK    2  A    between atoms: C_6  and  C_7
REMARK    3  A    between atoms: C_7  and  N_8
REMARK    4  A    between atoms: N_8  and  C_9
REMARK    5  A    between atoms: N_8  and  C_16
REMARK    6  A    between atoms: C_9  and  C_10
REMARK    7  A    between atoms: N_14  and  C_15
REMARK                            x       y       z     vdW  Elec       q    Type
REMARK                         _______ _______ _______ _____ _____    ______ ____
ROOT
ATOM      1  N   UNL     1       3.281   5.040  17.567  0.00  0.00    +0.000 NA
ENDROOT
BRANCH   1   2
ATOM      2  C   UNL     1       3.934   6.313  17.955  0.00  0.00    +0.000 C 
ATOM      3  C   UNL     1       4.126   7.402  16.931  0.00  0.00    +0.000 C 
ATOM      4  C   UNL     1       3.110   7.571  18.020  0.00  0.00    +0.000 C 
ENDBRANCH   1   2
BRANCH   1   5
ATOM      5  C   UNL     1       4.173   3.887  17.760  0.00  0.00    +0.000 C 
BRANCH   5  11
ATOM      6  C   UNL     1       5.613   4.451  14.817  0.00  0.00    +0.000 C 
ATOM      7  C   UNL     1       6.202   4.427  16.174  0.00  0.00    +0.000 A 
ATOM      8  N   UNL     1       7.549   4.643  16.354  0.00  0.00    +0.000 NA
ATOM      9  C   UNL     1       7.756   4.529  17.647  0.00  0.00    +0.000 A 
ATOM     10  N   UNL     1       6.593   4.282  18.315  0.00  0.00    +0.000 N 
ATOM     11  C   UNL     1       5.581   4.199  17.388  0.00  0.00    +0.000 A 
ATOM     12  H   UNL     1       6.483   4.177  19.315  0.00  0.00    +0.000 HD
ENDBRANCH   5  11
ENDBRANCH   1   5
BRANCH   1  13
ATOM     13  C   UNL     1       1.966   4.855  18.230  0.00  0.00    +0.000 C 
BRANCH  13  14
ATOM     14  C   UNL     1       1.948   4.159  19.573  0.00  0.00    +0.000 A 
ATOM     15  N   UNL     1       2.441   4.612  20.714  0.00  0.00    +0.000 NA
ATOM     16  C   UNL     1       2.099   3.701  21.676  0.00  0.00    +0.000 A 
ATOM     17  C   UNL     1       1.389   2.664  21.127  0.00  0.00    +0.000 A 
ATOM     18  N   UNL     1       1.326   2.945  19.789  0.00  0.00    +0.000 N 
ATOM     19  C   UNL     1       0.705   2.093  18.805  0.00  0.00    +0.000 C 
ENDBRANCH  13  14
ENDBRANCH   1  13
TORSDOF 5
ENDMDL
MODEL 2
REMARK VINA RESULT:      -6.5      0.650      1.373
REMARK  Name = 
REMARK  7 active torsions:
REMARK  status: ('A' for Active; 'I' for Inactive)
REMARK    1  A    between atoms: C_1  and  C_2
REMARK    2  A    between atoms: C_6  and  C_7
REMARK    3  A    between atoms: C_7  and  N_8
REMARK    4  A    between atoms: N_8  and  C_9
REMARK    5  A    between atoms: N_8  and  C_16
REMARK    6  A    between atoms: C_9  and  C_10
REMARK    7  A    between atoms: N_14  and  C_15
REMARK                            x       y       z     vdW  Elec       q    Type
REMARK                         _______ _______ _______ _____ _____    ______ ____
ROOT
ATOM      1  N   UNL     1       3.355   5.009  17.479  0.00  0.00    +0.000 NA
ENDROOT
BRANCH   1   2
ATOM      2  C   UNL     1       3.840   6.295  18.030  0.00  0.00    +0.000 C 
ATOM      3  C   UNL     1       4.286   7.393  17.098  0.00  0.00    +0.000 C 
ATOM      4  C   UNL     1       3.001   7.533  17.855  0.00  0.00    +0.000 C 
ENDBRANCH   1   2
BRANCH   1   5
ATOM      5  C   UNL     1       4.248   3.893  17.826  0.00  0.00    +0.000 C 
BRANCH   5  11
ATOM      6  C   UNL     1       5.757   4.253  14.887  0.00  0.00    +0.000 C 
ATOM      7  C   UNL     1       6.315   4.321  16.256  0.00  0.00    +0.000 A 
ATOM      8  N   UNL     1       7.658   4.545  16.452  0.00  0.00    +0.000 NA
ATOM      9  C   UNL     1       7.834   4.519  17.754  0.00  0.00    +0.000 A 
ATOM     10  N   UNL     1       6.656   4.320  18.410  0.00  0.00    +0.000 N 
ATOM     11  C   UNL     1       5.665   4.176  17.468  0.00  0.00    +0.000 A 
ATOM     12  H   UNL     1       6.522   4.283  19.413  0.00  0.00    +0.000 HD
ENDBRANCH   5  11
ENDBRANCH   1   5
BRANCH   1  13
ATOM     13  C   UNL     1       1.941   4.736  17.840  0.00  0.00    +0.000 C 
BRANCH  13  14
ATOM     14  C   UNL     1       1.681   3.875  19.057  0.00  0.00    +0.000 A 
ATOM     15  N   UNL     1       1.539   2.560  19.088  0.00  0.00    +0.000 NA
ATOM     16  C   UNL     1       1.433   2.210  20.406  0.00  0.00    +0.000 A 
ATOM     17  C   UNL     1       1.505   3.322  21.207  0.00  0.00    +0.000 A 
ATOM     18  N   UNL     1       1.629   4.375  20.343  0.00  0.00    +0.000 N 
ATOM     19  C   UNL     1       1.693   5.759  20.746  0.00  0.00    +0.000 C 
ENDBRANCH  13  14
ENDBRANCH   1  13
TORSDOF 5
ENDMDL
MODEL 3
REMARK VINA RESULT:      -6.4      1.419      1.972
REMARK  Name = 
REMARK  7 active torsions:
REMARK  status: ('A' for Active; 'I' for Inactive)
REMARK    1  A    between atoms: C_1  and  C_2
REMARK    2  A    between atoms: C_6  and  C_7
REMARK    3  A    between atoms: C_7  and  N_8
REMARK    4  A    between atoms: N_8  and  C_9
REMARK    5  A    between atoms: N_8  and  C_16
REMARK    6  A    between atoms: C_9  and  C_10
REMARK    7  A    between atoms: N_14  and  C_15
REMARK                            x       y       z     vdW  Elec       q    Type
REMARK                         _______ _______ _______ _____ _____    ______ ____
ROOT
ATOM      1  N   UNL     1       3.842   4.730  17.668  0.00  0.00    +0.000 NA
ENDROOT
BRANCH   1   2
ATOM      2  C   UNL     1       3.545   5.974  18.415  0.00  0.00    +0.000 C 
ATOM      3  C   UNL     1       3.655   7.310  17.727  0.00  0.00    +0.000 C 
ATOM      4  C   UNL     1       2.305   6.759  18.074  0.00  0.00    +0.000 C 
ENDBRANCH   1   2
BRANCH   1   5
ATOM      5  C   UNL     1       5.236   4.301  17.852  0.00  0.00    +0.000 C 
BRANCH   5  11
ATOM      6  C   UNL     1       7.375   6.799  17.372  0.00  0.00    +0.000 C 
ATOM      7  C   UNL     1       6.980   5.699  16.465  0.00  0.00    +0.000 A 
ATOM      8  N   UNL     1       7.509   5.616  15.198  0.00  0.00    +0.000 NA
ATOM      9  C   UNL     1       6.944   4.564  14.647  0.00  0.00    +0.000 A 
ATOM     10  N   UNL     1       6.097   3.944  15.517  0.00  0.00    +0.000 N 
ATOM     11  C   UNL     1       6.093   4.663  16.689  0.00  0.00    +0.000 A 
ATOM     12  H   UNL     1       5.562   3.103  15.342  0.00  0.00    +0.000 HD
ENDBRANCH   5  11
ENDBRANCH   1   5
BRANCH   1  13
ATOM     13  C   UNL     1       2.871   3.647  17.965  0.00  0.00    +0.000 C 
BRANCH  13  14
ATOM     14  C   UNL     1       2.442   3.464  19.404  0.00  0.00    +0.000 A 
ATOM     15  N   UNL     1       1.328   3.901  19.967  0.00  0.00    +0.000 NA
ATOM     16  C   UNL     1       1.316   3.408  21.243  0.00  0.00    +0.000 A 
ATOM     17  C   UNL     1       2.440   2.660  21.481  0.00  0.00    +0.000 A 
ATOM     18  N   UNL     1       3.165   2.727  20.323  0.00  0.00    +0.000 N 
ATOM     19  C   UNL     1       4.458   2.117  20.132  0.00  0.00    +0.000 C 
ENDBRANCH  13  14
ENDBRANCH   1  13
TORSDOF 5
ENDMDL
MODEL 4
REMARK VINA RESULT:      -6.3      1.360      5.122
REMARK  Name = 
REMARK  7 active torsions:
REMARK  status: ('A' for Active; 'I' for Inactive)
REMARK    1  A    between atoms: C_1  and  C_2
REMARK    2  A    between atoms: C_6  and  C_7
REMARK    3  A    between atoms: C_7  and  N_8
REMARK    4  A    between atoms: N_8  and  C_9
REMARK    5  A    between atoms: N_8  and  C_16
REMARK    6  A    between atoms: C_9  and  C_10
REMARK    7  A    between atoms: N_14  and  C_15
REMARK                            x       y       z     vdW  Elec       q    Type
REMARK                         _______ _______ _______ _____ _____    ______ ____
ROOT
ATOM      1  N   UNL     1       2.961   5.203  18.316  0.00  0.00    +0.000 NA
ENDROOT
BRANCH   1   2
ATOM      2  C   UNL     1       2.223   6.478  18.155  0.00  0.00    +0.000 C 
ATOM      3  C   UNL     1       2.310   7.538  19.224  0.00  0.00    +0.000 C 
ATOM      4  C   UNL     1       2.995   7.747  17.908  0.00  0.00    +0.000 C 
ENDBRANCH   1   2
BRANCH   1   5
ATOM      5  C   UNL     1       2.049   4.059  18.465  0.00  0.00    +0.000 C 
BRANCH   5  11
ATOM      6  C   UNL     1       4.435   2.406  20.085  0.00  0.00    +0.000 C 
ATOM      7  C   UNL     1       3.072   2.780  20.524  0.00  0.00    +0.000 A 
ATOM      8  N   UNL     1       2.619   2.422  21.772  0.00  0.00    +0.000 NA
ATOM      9  C   UNL     1       1.385   2.870  21.842  0.00  0.00    +0.000 A 
ATOM     10  N   UNL     1       1.033   3.533  20.704  0.00  0.00    +0.000 N 
ATOM     11  C   UNL     1       2.097   3.478  19.835  0.00  0.00    +0.000 A 
ATOM     12  H   UNL     1       0.148   3.989  20.521  0.00  0.00    +0.000 HD
ENDBRANCH   5  11
ENDBRANCH   1   5
BRANCH   1  13
ATOM     13  C   UNL     1       3.965   4.991  17.244  0.00  0.00    +0.000 C 
BRANCH  13  14
ATOM     14  C   UNL     1       5.427   5.052  17.629  0.00  0.00    +0.000 A 
ATOM     15  N   UNL     1       5.939   5.550  18.742  0.00  0.00    +0.000 NA
ATOM     16  C   UNL     1       7.282   5.288  18.705  0.00  0.00    +0.000 A 
ATOM     17  C   UNL     1       7.611   4.624  17.551  0.00  0.00    +0.000 A 
ATOM     18  N   UNL     1       6.436   4.507  16.859  0.00  0.00    +0.000 N 
ATOM     19  C   UNL     1       6.314   3.908  15.552  0.00  0.00    +0.000 C 
ENDBRANCH  13  14
ENDBRANCH   1  13
TORSDOF 5
ENDMDL
MODEL 5
REMARK VINA RESULT:      -6.3      1.575      2.129
REMARK  Name = 
REMARK  7 active torsions:
REMARK  status: ('A' for Active; 'I' for Inactive)
REMARK    1  A    between atoms: C_1  and  C_2
REMARK    2  A    between atoms: C_6  and  C_7
REMARK    3  A    between atoms: C_7  and  N_8
REMARK    4  A    between atoms: N_8  and  C_9
REMARK    5  A    between atoms: N_8  and  C_16
REMARK    6  A    between atoms: C_9  and  C_10
REMARK    7  A    between atoms: N_14  and  C_15
REMARK                            x       y       z     vdW  Elec       q    Type
REMARK                         _______ _______ _______ _____ _____    ______ ____
ROOT
ATOM      1  N   UNL     1       4.784   4.383  18.865  0.00  0.00    +0.000 NA
ENDROOT
BRANCH   1   2
ATOM      2  C   UNL     1       3.933   5.553  19.186  0.00  0.00    +0.000 C 
ATOM      3  C   UNL     1       3.717   6.631  18.155  0.00  0.00    +0.000 C 
ATOM      4  C   UNL     1       2.598   5.699  18.506  0.00  0.00    +0.000 C 
ENDBRANCH   1   2
BRANCH   1   5
ATOM      5  C   UNL     1       6.210   4.740  18.817  0.00  0.00    +0.000 C 
BRANCH   5  11
ATOM      6  C   UNL     1       7.524   7.425  17.364  0.00  0.00    +0.000 C 
ATOM      7  C   UNL     1       7.220   6.092  16.798  0.00  0.00    +0.000 A 
ATOM      8  N   UNL     1       7.465   5.825  15.472  0.00  0.00    +0.000 NA
ATOM      9  C   UNL     1       7.066   4.587  15.281  0.00  0.00    +0.000 A 
ATOM     10  N   UNL     1       6.604   4.031  16.437  0.00  0.00    +0.000 N 
ATOM     11  C   UNL     1       6.680   4.984  17.425  0.00  0.00    +0.000 A 
ATOM     12  H   UNL     1       6.263   3.086  16.558  0.00  0.00    +0.000 HD
ENDBRANCH   5  11
ENDBRANCH   1   5
BRANCH   1  13
ATOM     13  C   UNL     1       4.519   3.230  19.761  0.00  0.00    +0.000 C 
BRANCH  13  14
ATOM     14  C   UNL     1       3.079   2.935  20.119  0.00  0.00    +0.000 A 
ATOM     15  N   UNL     1       2.488   3.142  21.285  0.00  0.00    +0.000 NA
ATOM     16  C   UNL     1       1.166   2.833  21.112  0.00  0.00    +0.000 A 
ATOM     17  C   UNL     1       0.932   2.422  19.824  0.00  0.00    +0.000 A 
ATOM     18  N   UNL     1       2.154   2.458  19.211  0.00  0.00    +0.000 N 
ATOM     19  C   UNL     1       2.395   2.059  17.845  0.00  0.00    +0.000 C 
ENDBRANCH  13  14
ENDBRANCH   1  13
TORSDOF 5
ENDMDL
MODEL 6
REMARK VINA RESULT:      -6.3      1.521      4.898
REMARK  Name = 
REMARK  7 active torsions:
REMARK  status: ('A' for Active; 'I' for Inactive)
REMARK    1  A    between atoms: C_1  and  C_2
REMARK    2  A    between atoms: C_6  and  C_7
REMARK    3  A    between atoms: C_7  and  N_8
REMARK    4  A    between atoms: N_8  and  C_9
REMARK    5  A    between atoms: N_8  and  C_16
REMARK    6  A    between atoms: C_9  and  C_10
REMARK    7  A    between atoms: N_14  and  C_15
REMARK                            x       y       z     vdW  Elec       q    Type
REMARK                         _______ _______ _______ _____ _____    ______ ____
ROOT
ATOM      1  N   UNL     1       3.404   6.175  18.151  0.00  0.00    +0.000 NA
ENDROOT
BRANCH   1   2
ATOM      2  C   UNL     1       2.234   7.083  18.116  0.00  0.00    +0.000 C 
ATOM      3  C   UNL     1       2.005   8.058  19.242  0.00  0.00    +0.000 C 
ATOM      4  C   UNL     1       2.456   8.558  17.903  0.00  0.00    +0.000 C 
ENDBRANCH   1   2
BRANCH   1   5
ATOM      5  C   UNL     1       3.040   4.800  17.774  0.00  0.00    +0.000 C 
BRANCH   5  11
ATOM      6  C   UNL     1       1.315   4.025  20.507  0.00  0.00    +0.000 C 
ATOM      7  C   UNL     1       2.608   3.498  20.018  0.00  0.00    +0.000 A 
ATOM      8  N   UNL     1       3.293   2.549  20.742  0.00  0.00    +0.000 NA
ATOM      9  C   UNL     1       4.396   2.317  20.065  0.00  0.00    +0.000 A 
ATOM     10  N   UNL     1       4.438   3.051  18.918  0.00  0.00    +0.000 N 
ATOM     11  C   UNL     1       3.305   3.829  18.871  0.00  0.00    +0.000 A 
ATOM     12  H   UNL     1       5.168   3.035  18.217  0.00  0.00    +0.000 HD
ENDBRANCH   5  11
ENDBRANCH   1   5
BRANCH   1  13
ATOM     13  C   UNL     1       4.548   6.695  17.361  0.00  0.00    +0.000 C 
BRANCH  13  14
ATOM     14  C   UNL     1       5.816   5.869  17.335  0.00  0.00    +0.000 A 
ATOM     15  N   UNL     1       6.621   5.610  18.352  0.00  0.00    +0.000 NA
ATOM     16  C   UNL     1       7.570   4.741  17.888  0.00  0.00    +0.000 A 
ATOM     17  C   UNL     1       7.357   4.459  16.562  0.00  0.00    +0.000 A 
ATOM     18  N   UNL     1       6.264   5.203  16.211  0.00  0.00    +0.000 N 
ATOM     19  C   UNL     1       5.704   5.255  14.882  0.00  0.00    +0.000 C 
ENDBRANCH  13  14
ENDBRANCH   1  13
TORSDOF 5
ENDMDL
MODEL 7
REMARK VINA RESULT:      -6.2      1.431      1.970
REMARK  Name = 
REMARK  7 active torsions:
REMARK  status: ('A' for Active; 'I' for Inactive)
REMARK    1  A    between atoms: C_1  and  C_2
REMARK    2  A    between atoms: C_6  and  C_7
REMARK    3  A    between atoms: C_7  and  N_8
REMARK    4  A    between atoms: N_8  and  C_9
REMARK    5  A    between atoms: N_8  and  C_16
REMARK    6  A    between atoms: C_9  and  C_10
REMARK    7  A    between atoms: N_14  and  C_15
REMARK                            x       y       z     vdW  Elec       q    Type
REMARK                         _______ _______ _______ _____ _____    ______ ____
ROOT
ATOM      1  N   UNL     1       3.839   4.757  17.581  0.00  0.00    +0.000 NA
ENDROOT
BRANCH   1   2
ATOM      2  C   UNL     1       3.740   6.038  18.319  0.00  0.00    +0.000 C 
ATOM      3  C   UNL     1       3.673   7.339  17.561  0.00  0.00    +0.000 C 
ATOM      4  C   UNL     1       2.454   6.821  18.263  0.00  0.00    +0.000 C 
ENDBRANCH   1   2
BRANCH   1   5
ATOM      5  C   UNL     1       5.189   4.179  17.667  0.00  0.00    +0.000 C 
BRANCH   5  11
ATOM      6  C   UNL     1       7.352   6.676  17.299  0.00  0.00    +0.000 C 
ATOM      7  C   UNL     1       6.945   5.622  16.343  0.00  0.00    +0.000 A 
ATOM      8  N   UNL     1       7.471   5.592  15.073  0.00  0.00    +0.000 NA
ATOM      9  C   UNL     1       6.895   4.573  14.475  0.00  0.00    +0.000 A 
ATOM     10  N   UNL     1       6.043   3.921  15.317  0.00  0.00    +0.000 N 
ATOM     11  C   UNL     1       6.047   4.586  16.521  0.00  0.00    +0.000 A 
ATOM     12  H   UNL     1       5.499   3.095  15.104  0.00  0.00    +0.000 HD
ENDBRANCH   5  11
ENDBRANCH   1   5
BRANCH   1  13
ATOM     13  C   UNL     1       2.783   3.793  17.979  0.00  0.00    +0.000 C 
BRANCH  13  14
ATOM     14  C   UNL     1       2.883   3.171  19.355  0.00  0.00    +0.000 A 
ATOM     15  N   UNL     1       3.809   2.329  19.785  0.00  0.00    +0.000 NA
ATOM     16  C   UNL     1       3.561   2.124  21.115  0.00  0.00    +0.000 A 
ATOM     17  C   UNL     1       2.463   2.841  21.517  0.00  0.00    +0.000 A 
ATOM     18  N   UNL     1       2.020   3.476  20.389  0.00  0.00    +0.000 N 
ATOM     19  C   UNL     1       0.847   4.314  20.331  0.00  0.00    +0.000 C 
ENDBRANCH  13  14
ENDBRANCH   1  13
TORSDOF 5
ENDMDL
MODEL 8
REMARK VINA RESULT:      -6.1      1.570      2.242
REMARK  Name = 
REMARK  7 active torsions:
REMARK  status: ('A' for Active; 'I' for Inactive)
REMARK    1  A    between atoms: C_1  and  C_2
REMARK    2  A    between atoms: C_6  and  C_7
REMARK    3  A    between atoms: C_7  and  N_8
REMARK    4  A    between atoms: N_8  and  C_9
REMARK    5  A    between atoms: N_8  and  C_16
REMARK    6  A    between atoms: C_9  and  C_10
REMARK    7  A    between atoms: N_14  and  C_15
REMARK                            x       y       z     vdW  Elec       q    Type
REMARK                         _______ _______ _______ _____ _____    ______ ____
ROOT
ATOM      1  N   UNL     1       4.097   5.591  18.927  0.00  0.00    +0.000 NA
ENDROOT
BRANCH   1   2
ATOM      2  C   UNL     1       3.738   7.017  18.744  0.00  0.00    +0.000 C 
ATOM      3  C   UNL     1       2.733   7.411  17.692  0.00  0.00    +0.000 C 
ATOM      4  C   UNL     1       2.363   7.485  19.142  0.00  0.00    +0.000 C 
ENDBRANCH   1   2
BRANCH   1   5
ATOM      5  C   UNL     1       5.546   5.411  19.107  0.00  0.00    +0.000 C 
BRANCH   5  11
ATOM      6  C   UNL     1       7.552   7.537  17.526  0.00  0.00    +0.000 C 
ATOM      7  C   UNL     1       7.095   6.187  17.128  0.00  0.00    +0.000 A 
ATOM      8  N   UNL     1       7.490   5.643  15.928  0.00  0.00    +0.000 NA
ATOM      9  C   UNL     1       6.899   4.470  15.861  0.00  0.00    +0.000 A 
ATOM     10  N   UNL     1       6.166   4.219  16.982  0.00  0.00    +0.000 N 
ATOM     11  C   UNL     1       6.265   5.315  17.807  0.00  0.00    +0.000 A 
ATOM     12  H   UNL     1       5.639   3.379  17.182  0.00  0.00    +0.000 HD
ENDBRANCH   5  11
ENDBRANCH   1   5
BRANCH   1  13
ATOM     13  C   UNL     1       3.307   4.942  20.003  0.00  0.00    +0.000 C 
BRANCH  13  14
ATOM     14  C   UNL     1       2.419   3.780  19.619  0.00  0.00    +0.000 A 
ATOM     15  N   UNL     1       1.124   3.820  19.348  0.00  0.00    +0.000 NA
ATOM     16  C   UNL     1       0.771   2.561  18.945  0.00  0.00    +0.000 A 
ATOM     17  C   UNL     1       1.858   1.724  18.971  0.00  0.00    +0.000 A 
ATOM     18  N   UNL     1       2.890   2.495  19.430  0.00  0.00    +0.000 N 
ATOM     19  C   UNL     1       4.230   2.012  19.662  0.00  0.00    +0.000 C 
ENDBRANCH  13  14
ENDBRANCH   1  13
TORSDOF 5
ENDMDL
MODEL 9
REMARK VINA RESULT:      -6.1      1.963      3.553
REMARK  Name = 
REMARK  7 active torsions:
REMARK  status: ('A' for Active; 'I' for Inactive)
REMARK    1  A    between atoms: C_1  and  C_2
REMARK    2  A    between atoms: C_6  and  C_7
REMARK    3  A    between atoms: C_7  and  N_8
REMARK    4  A    between atoms: N_8  and  C_9
REMARK    5  A    between atoms: N_8  and  C_16
REMARK    6  A    between atoms: C_9  and  C_10
REMARK    7  A    between atoms: N_14  and  C_15
REMARK                            x       y       z     vdW  Elec       q    Type
REMARK                         _______ _______ _______ _____ _____    ______ ____
ROOT
ATOM      1  N   UNL     1       4.251   4.379  18.602  0.00  0.00    +0.000 NA
ENDROOT
BRANCH   1   2
ATOM      2  C   UNL     1       3.782   3.214  17.815  0.00  0.00    +0.000 C 
ATOM      3  C   UNL     1       2.973   2.132  18.483  0.00  0.00    +0.000 C 
ATOM      4  C   UNL     1       2.312   3.071  17.520  0.00  0.00    +0.000 C 
ENDBRANCH   1   2
BRANCH   1   5
ATOM      5  C   UNL     1       5.719   4.437  18.670  0.00  0.00    +0.000 C 
BRANCH   5  11
ATOM      6  C   UNL     1       7.327   7.120  17.545  0.00  0.00    +0.000 C 
ATOM      7  C   UNL     1       6.994   5.853  16.856  0.00  0.00    +0.000 A 
ATOM      8  N   UNL     1       7.343   5.663  15.539  0.00  0.00    +0.000 NA
ATOM      9  C   UNL     1       6.886   4.472  15.221  0.00  0.00    +0.000 A 
ATOM     10  N   UNL     1       6.286   3.870  16.287  0.00  0.00    +0.000 N 
ATOM     11  C   UNL     1       6.330   4.745  17.347  0.00  0.00    +0.000 A 
ATOM     12  H   UNL     1       5.876   2.945  16.306  0.00  0.00    +0.000 HD
ENDBRANCH   5  11
ENDBRANCH   1   5
BRANCH   1  13
ATOM     13  C   UNL     1       3.654   5.655  18.133  0.00  0.00    +0.000 C 
BRANCH  13  14
ATOM     14  C   UNL     1       2.734   6.390  19.082  0.00  0.00    +0.000 A 
ATOM     15  N   UNL     1       2.244   5.942  20.226  0.00  0.00    +0.000 NA
ATOM     16  C   UNL     1       1.559   6.983  20.792  0.00  0.00    +0.000 A 
ATOM     17  C   UNL     1       1.618   8.092  19.987  0.00  0.00    +0.000 A 
ATOM     18  N   UNL     1       2.336   7.699  18.890  0.00  0.00    +0.000 N 
ATOM     19  C   UNL     1       2.610   8.538  17.750  0.00  0.00    +0.000 C 
ENDBRANCH  13  14
ENDBRANCH   1  13
TORSDOF 5
ENDMDL
