MODEL 1
REMARK VINA RESULT:      -7.4      0.000      0.000
REMARK  Name = 
REMARK  9 active torsions:
REMARK  status: ('A' for Active; 'I' for Inactive)
REMARK    1  A    between atoms: C_1  and  N_2
REMARK    2  A    between atoms: C_4  and  C_5
REMARK    3  A    between atoms: N_9  and  C_10
REMARK    4  A    between atoms: C_10  and  C_11
REMARK    5  A    between atoms: N_13  and  C_14
REMARK    6  A    between atoms: C_16  and  C_17
REMARK    7  A    between atoms: C_17  and  C_18
REMARK    8  A    between atoms: C_17  and  C_19
REMARK    9  A    between atoms: C_17  and  C_20
REMARK                            x       y       z     vdW  Elec       q    Type
REMARK                         _______ _______ _______ _____ _____    ______ ____
ROOT
ATOM      1  C   UNL     1       7.839   6.914  18.131  0.00  0.00    +0.000 C 
ATOM      2  O   UNL     1       8.396   6.774  19.214  0.00  0.00    +0.000 OA
ATOM      3  N   UNL     1       7.713   8.096  17.421  0.00  0.00    +0.000 N 
ATOM      4  H   UNL     1       7.210   8.059  16.541  0.00  0.00    +0.000 HD
ENDROOT
BRANCH   3   5
ATOM      5  C   UNL     1       8.206   9.294  17.882  0.00  0.00    +0.000 A 
ATOM      6  C   UNL     1       9.133   9.583  18.857  0.00  0.00    +0.000 A 
ATOM      7  C   UNL     1       9.317  10.993  18.774  0.00  0.00    +0.000 A 
ATOM      8  N   UNL     1       8.480  11.519  17.870  0.00  0.00    +0.000 NA
ATOM      9  O   UNL     1       7.790  10.460  17.320  0.00  0.00    +0.000 OA
BRANCH   7  10
ATOM     10  C   UNL     1      10.352  11.878  19.448  0.00  0.00    +0.000 C 
ATOM     11  C   UNL     1      10.160  13.326  18.947  0.00  0.00    +0.000 C 
ATOM     12  C   UNL     1      10.200  11.873  20.987  0.00  0.00    +0.000 C 
ATOM     13  C   UNL     1      11.793  11.437  19.124  0.00  0.00    +0.000 C 
ENDBRANCH   7  10
ENDBRANCH   3   5
BRANCH   1  14
ATOM     14  C   UNL     1       7.135   5.709  17.474  0.00  0.00    +0.000 C 
BRANCH  14  19
ATOM     15  C   UNL     1       5.224   5.721  15.860  0.00  0.00    +0.000 C 
ATOM     16  C   UNL     1       5.148   4.314  15.279  0.00  0.00    +0.000 C 
ATOM     17  C   UNL     1       6.382   4.232  14.415  0.00  0.00    +0.000 C 
ATOM     18  C   UNL     1       7.396   5.116  15.122  0.00  0.00    +0.000 C 
ATOM     19  N   UNL     1       6.676   5.990  16.086  0.00  0.00    +0.000 NA
BRANCH  15  23
ATOM     20  C   UNL     1       2.307   5.107  19.916  0.00  0.00    +0.000 C 
ATOM     21  N   UNL     1       3.023   5.674  18.799  0.00  0.00    +0.000 N 
ATOM     22  C   UNL     1       3.740   4.989  17.863  0.00  0.00    +0.000 A 
ATOM     23  C   UNL     1       4.330   5.933  17.041  0.00  0.00    +0.000 A 
ATOM     24  C   UNL     1       3.846   7.161  17.555  0.00  0.00    +0.000 A 
ATOM     25  N   UNL     1       3.049   7.004  18.616  0.00  0.00    +0.000 NA
ENDBRANCH  15  23
ENDBRANCH  14  19
ENDBRANCH   1  14
TORSDOF 5
ENDMDL
MODEL 2
REMARK VINA RESULT:      -7.3      4.876      6.977
REMARK  Name = 
REMARK  9 active torsions:
REMARK  status: ('A' for Active; 'I' for Inactive)
REMARK    1  A    between atoms: C_1  and  N_2
REMARK    2  A    between atoms: C_4  and  C_5
REMARK    3  A    between atoms: N_9  and  C_10
REMARK    4  A    between atoms: C_10  and  C_11
REMARK    5  A    between atoms: N_13  and  C_14
REMARK    6  A    between atoms: C_16  and  C_17
REMARK    7  A    between atoms: C_17  and  C_18
REMARK    8  A    between atoms: C_17  and  C_19
REMARK    9  A    between atoms: C_17  and  C_20
REMARK                            x       y       z     vdW  Elec       q    Type
REMARK                         _______ _______ _______ _____ _____    ______ ____
ROOT
ATOM      1  C   UNL     1       5.352   5.230  17.955  0.00  0.00    +0.000 C 
ATOM      2  O   UNL     1       5.420   6.387  17.553  0.00  0.00    +0.000 OA
ATOM      3  N   UNL     1       5.733   4.096  17.258  0.00  0.00    +0.000 N 
ATOM      4  H   UNL     1       5.602   3.201  17.717  0.00  0.00    +0.000 HD
ENDROOT
BRANCH   3   5
ATOM      5  C   UNL     1       6.236   4.146  15.979  0.00  0.00    +0.000 A 
ATOM      6  C   UNL     1       5.859   3.498  14.826  0.00  0.00    +0.000 A 
ATOM      7  C   UNL     1       6.675   4.068  13.808  0.00  0.00    +0.000 A 
ATOM      8  N   UNL     1       7.548   4.933  14.340  0.00  0.00    +0.000 NA
ATOM      9  O   UNL     1       7.273   4.976  15.690  0.00  0.00    +0.000 OA
BRANCH   7  10
ATOM     10  C   UNL     1       6.594   3.913  12.297  0.00  0.00    +0.000 C 
ATOM     11  C   UNL     1       5.107   3.829  11.892  0.00  0.00    +0.000 C 
ATOM     12  C   UNL     1       7.231   5.114  11.561  0.00  0.00    +0.000 C 
ATOM     13  C   UNL     1       7.306   2.638  11.806  0.00  0.00    +0.000 C 
ENDBRANCH   7  10
ENDBRANCH   3   5
BRANCH   1  14
ATOM     14  C   UNL     1       4.730   4.939  19.336  0.00  0.00    +0.000 C 
BRANCH  14  19
ATOM     15  C   UNL     1       2.290   4.606  19.778  0.00  0.00    +0.000 C 
ATOM     16  C   UNL     1       2.178   4.154  21.228  0.00  0.00    +0.000 C 
ATOM     17  C   UNL     1       2.758   2.761  21.200  0.00  0.00    +0.000 C 
ATOM     18  C   UNL     1       3.810   2.814  20.104  0.00  0.00    +0.000 C 
ATOM     19  N   UNL     1       3.564   4.016  19.265  0.00  0.00    +0.000 NA
BRANCH  15  23
ATOM     20  C   UNL     1       1.967   9.259  17.885  0.00  0.00    +0.000 C 
ATOM     21  N   UNL     1       2.023   8.131  18.782  0.00  0.00    +0.000 N 
ATOM     22  C   UNL     1       2.265   6.833  18.440  0.00  0.00    +0.000 A 
ATOM     23  C   UNL     1       2.135   6.083  19.595  0.00  0.00    +0.000 A 
ATOM     24  C   UNL     1       1.862   7.057  20.587  0.00  0.00    +0.000 A 
ATOM     25  N   UNL     1       1.802   8.298  20.096  0.00  0.00    +0.000 NA
ENDBRANCH  15  23
ENDBRANCH  14  19
ENDBRANCH   1  14
TORSDOF 5
ENDMDL
MODEL 3
REMARK VINA RESULT:      -7.2      5.075      7.110
REMARK  Name = 
REMARK  9 active torsions:
REMARK  status: ('A' for Active; 'I' for Inactive)
REMARK    1  A    between atoms: C_1  and  N_2
REMARK    2  A    between atoms: C_4  and  C_5
REMARK    3  A    between atoms: N_9  and  C_10
REMARK    4  A    between atoms: C_10  and  C_11
REMARK    5  A    between atoms: N_13  and  C_14
REMARK    6  A    between atoms: C_16  and  C_17
REMARK    7  A    between atoms: C_17  and  C_18
REMARK    8  A    between atoms: C_17  and  C_19
REMARK    9  A    between atoms: C_17  and  C_20
REMARK                            x       y       z     vdW  Elec       q    Type
REMARK                         _______ _______ _______ _____ _____    ______ ____
ROOT
ATOM      1  C   UNL     1       5.648   4.436  18.210  0.00  0.00    +0.000 C 
ATOM      2  O   UNL     1       6.863   4.354  18.352  0.00  0.00    +0.000 OA
ATOM      3  N   UNL     1       4.962   4.441  17.008  0.00  0.00    +0.000 N 
ATOM      4  H   UNL     1       3.952   4.531  17.048  0.00  0.00    +0.000 HD
ENDROOT
BRANCH   3   5
ATOM      5  C   UNL     1       5.598   4.368  15.791  0.00  0.00    +0.000 A 
ATOM      6  C   UNL     1       5.374   3.571  14.692  0.00  0.00    +0.000 A 
ATOM      7  C   UNL     1       6.272   4.060  13.701  0.00  0.00    +0.000 A 
ATOM      8  N   UNL     1       7.048   5.026  14.211  0.00  0.00    +0.000 NA
ATOM      9  O   UNL     1       6.627   5.212  15.511  0.00  0.00    +0.000 OA
BRANCH   7  10
ATOM     10  C   UNL     1       6.361   3.726  12.220  0.00  0.00    +0.000 C 
ATOM     11  C   UNL     1       7.162   4.841  11.514  0.00  0.00    +0.000 C 
ATOM     12  C   UNL     1       7.082   2.380  11.977  0.00  0.00    +0.000 C 
ATOM     13  C   UNL     1       4.971   3.632  11.562  0.00  0.00    +0.000 C 
ENDBRANCH   7  10
ENDBRANCH   3   5
BRANCH   1  14
ATOM     14  C   UNL     1       4.747   4.619  19.448  0.00  0.00    +0.000 C 
BRANCH  14  19
ATOM     15  C   UNL     1       2.296   4.399  19.900  0.00  0.00    +0.000 C 
ATOM     16  C   UNL     1       2.166   4.041  21.376  0.00  0.00    +0.000 C 
ATOM     17  C   UNL     1       2.697   2.631  21.435  0.00  0.00    +0.000 C 
ATOM     18  C   UNL     1       3.752   2.579  20.342  0.00  0.00    +0.000 C 
ATOM     19  N   UNL     1       3.549   3.735  19.429  0.00  0.00    +0.000 NA
BRANCH  15  23
ATOM     20  C   UNL     1       2.212   8.942  17.734  0.00  0.00    +0.000 C 
ATOM     21  N   UNL     1       2.186   7.866  18.694  0.00  0.00    +0.000 N 
ATOM     22  C   UNL     1       2.409   6.546  18.441  0.00  0.00    +0.000 A 
ATOM     23  C   UNL     1       2.193   5.866  19.626  0.00  0.00    +0.000 A 
ATOM     24  C   UNL     1       1.893   6.903  20.545  0.00  0.00    +0.000 A 
ATOM     25  N   UNL     1       1.895   8.115  19.982  0.00  0.00    +0.000 NA
ENDBRANCH  15  23
ENDBRANCH  14  19
ENDBRANCH   1  14
TORSDOF 5
ENDMDL
MODEL 4
REMARK VINA RESULT:      -7.2      4.950      6.918
REMARK  Name = 
REMARK  9 active torsions:
REMARK  status: ('A' for Active; 'I' for Inactive)
REMARK    1  A    between atoms: C_1  and  N_2
REMARK    2  A    between atoms: C_4  and  C_5
REMARK    3  A    between atoms: N_9  and  C_10
REMARK    4  A    between atoms: C_10  and  C_11
REMARK    5  A    between atoms: N_13  and  C_14
REMARK    6  A    between atoms: C_16  and  C_17
REMARK    7  A    between atoms: C_17  and  C_18
REMARK    8  A    between atoms: C_17  and  C_19
REMARK    9  A    between atoms: C_17  and  C_20
REMARK                            x       y       z     vdW  Elec       q    Type
REMARK                         _______ _______ _______ _____ _____    ______ ____
ROOT
ATOM      1  C   UNL     1       2.423   7.215  18.631  0.00  0.00    +0.000 C 
ATOM      2  O   UNL     1       2.411   7.267  19.856  0.00  0.00    +0.000 OA
ATOM      3  N   UNL     1       2.045   8.226  17.764  0.00  0.00    +0.000 N 
ATOM      4  H   UNL     1       2.095   8.030  16.770  0.00  0.00    +0.000 HD
ENDROOT
BRANCH   3   5
ATOM      5  C   UNL     1       1.581   9.444  18.203  0.00  0.00    +0.000 A 
ATOM      6  C   UNL     1       0.438   9.791  18.886  0.00  0.00    +0.000 A 
ATOM      7  C   UNL     1       0.593  11.178  19.167  0.00  0.00    +0.000 A 
ATOM      8  N   UNL     1       1.714  11.646  18.603  0.00  0.00    +0.000 NA
ATOM      9  O   UNL     1       2.324  10.565  18.003  0.00  0.00    +0.000 OA
BRANCH   7  10
ATOM     10  C   UNL     1      -0.236  12.086  20.062  0.00  0.00    +0.000 C 
ATOM     11  C   UNL     1      -1.607  12.318  19.392  0.00  0.00    +0.000 C 
ATOM     12  C   UNL     1      -0.474  11.458  21.455  0.00  0.00    +0.000 C 
ATOM     13  C   UNL     1       0.437  13.455  20.281  0.00  0.00    +0.000 C 
ENDBRANCH   7  10
ENDBRANCH   3   5
BRANCH   1  14
ATOM     14  C   UNL     1       2.825   5.902  17.928  0.00  0.00    +0.000 C 
BRANCH  14  19
ATOM     15  C   UNL     1       3.761   3.632  18.409  0.00  0.00    +0.000 C 
ATOM     16  C   UNL     1       2.876   2.641  17.664  0.00  0.00    +0.000 C 
ATOM     17  C   UNL     1       1.578   2.694  18.432  0.00  0.00    +0.000 C 
ATOM     18  C   UNL     1       1.502   4.123  18.944  0.00  0.00    +0.000 C 
ATOM     19  N   UNL     1       2.854   4.735  18.851  0.00  0.00    +0.000 NA
BRANCH  15  23
ATOM     20  C   UNL     1       7.072   4.717  14.777  0.00  0.00    +0.000 C 
ATOM     21  N   UNL     1       6.443   4.502  16.056  0.00  0.00    +0.000 N 
ATOM     22  C   UNL     1       5.196   3.998  16.274  0.00  0.00    +0.000 A 
ATOM     23  C   UNL     1       4.972   4.054  17.638  0.00  0.00    +0.000 A 
ATOM     24  C   UNL     1       6.191   4.567  18.147  0.00  0.00    +0.000 A 
ATOM     25  N   UNL     1       7.085   4.832  17.190  0.00  0.00    +0.000 NA
ENDBRANCH  15  23
ENDBRANCH  14  19
ENDBRANCH   1  14
TORSDOF 5
ENDMDL
MODEL 5
REMARK VINA RESULT:      -7.1      4.930      6.574
REMARK  Name = 
REMARK  9 active torsions:
REMARK  status: ('A' for Active; 'I' for Inactive)
REMARK    1  A    between atoms: C_1  and  N_2
REMARK    2  A    between atoms: C_4  and  C_5
REMARK    3  A    between atoms: N_9  and  C_10
REMARK    4  A    between atoms: C_10  and  C_11
REMARK    5  A    between atoms: N_13  and  C_14
REMARK    6  A    between atoms: C_16  and  C_17
REMARK    7  A    between atoms: C_17  and  C_18
REMARK    8  A    between atoms: C_17  and  C_19
REMARK    9  A    between atoms: C_17  and  C_20
REMARK                            x       y       z     vdW  Elec       q    Type
REMARK                         _______ _______ _______ _____ _____    ______ ____
ROOT
ATOM      1  C   UNL     1       2.401   7.005  18.786  0.00  0.00    +0.000 C 
ATOM      2  O   UNL     1       2.540   7.025  20.005  0.00  0.00    +0.000 OA
ATOM      3  N   UNL     1       1.993   8.062  17.991  0.00  0.00    +0.000 N 
ATOM      4  H   UNL     1       1.909   7.889  16.994  0.00  0.00    +0.000 HD
ENDROOT
BRANCH   3   5
ATOM      5  C   UNL     1       1.672   9.296  18.505  0.00  0.00    +0.000 A 
ATOM      6  C   UNL     1       2.079  10.562  18.155  0.00  0.00    +0.000 A 
ATOM      7  C   UNL     1       1.294  11.431  18.966  0.00  0.00    +0.000 A 
ATOM      8  N   UNL     1       0.536  10.721  19.812  0.00  0.00    +0.000 NA
ATOM      9  O   UNL     1       0.776   9.395  19.523  0.00  0.00    +0.000 OA
BRANCH   7  10
ATOM     10  C   UNL     1       1.139  12.942  18.903  0.00  0.00    +0.000 C 
ATOM     11  C   UNL     1      -0.234  13.269  18.280  0.00  0.00    +0.000 C 
ATOM     12  C   UNL     1       1.201  13.586  20.308  0.00  0.00    +0.000 C 
ATOM     13  C   UNL     1       2.234  13.603  18.043  0.00  0.00    +0.000 C 
ENDBRANCH   7  10
ENDBRANCH   3   5
BRANCH   1  14
ATOM     14  C   UNL     1       2.623   5.687  18.016  0.00  0.00    +0.000 C 
BRANCH  14  19
ATOM     15  C   UNL     1       3.662   3.452  18.443  0.00  0.00    +0.000 C 
ATOM     16  C   UNL     1       2.828   2.440  17.669  0.00  0.00    +0.000 C 
ATOM     17  C   UNL     1       1.526   2.412  18.431  0.00  0.00    +0.000 C 
ATOM     18  C   UNL     1       1.382   3.822  18.980  0.00  0.00    +0.000 C 
ATOM     19  N   UNL     1       2.703   4.499  18.909  0.00  0.00    +0.000 NA
BRANCH  15  23
ATOM     20  C   UNL     1       6.956   4.731  14.858  0.00  0.00    +0.000 C 
ATOM     21  N   UNL     1       6.321   4.485  16.129  0.00  0.00    +0.000 N 
ATOM     22  C   UNL     1       5.107   3.897  16.330  0.00  0.00    +0.000 A 
ATOM     23  C   UNL     1       4.855   3.950  17.689  0.00  0.00    +0.000 A 
ATOM     24  C   UNL     1       6.026   4.552  18.214  0.00  0.00    +0.000 A 
ATOM     25  N   UNL     1       6.917   4.869  17.270  0.00  0.00    +0.000 NA
ENDBRANCH  15  23
ENDBRANCH  14  19
ENDBRANCH   1  14
TORSDOF 5
ENDMDL
MODEL 6
REMARK VINA RESULT:      -7.1      4.091      6.669
REMARK  Name = 
REMARK  9 active torsions:
REMARK  status: ('A' for Active; 'I' for Inactive)
REMARK    1  A    between atoms: C_1  and  N_2
REMARK    2  A    between atoms: C_4  and  C_5
REMARK    3  A    between atoms: N_9  and  C_10
REMARK    4  A    between atoms: C_10  and  C_11
REMARK    5  A    between atoms: N_13  and  C_14
REMARK    6  A    between atoms: C_16  and  C_17
REMARK    7  A    between atoms: C_17  and  C_18
REMARK    8  A    between atoms: C_17  and  C_19
REMARK    9  A    between atoms: C_17  and  C_20
REMARK                            x       y       z     vdW  Elec       q    Type
REMARK                         _______ _______ _______ _____ _____    ______ ____
ROOT
ATOM      1  C   UNL     1       2.333   7.078  18.571  0.00  0.00    +0.000 C 
ATOM      2  O   UNL     1       2.400   7.204  19.789  0.00  0.00    +0.000 OA
ATOM      3  N   UNL     1       1.997   8.067  17.663  0.00  0.00    +0.000 N 
ATOM      4  H   UNL     1       1.967   7.808  16.682  0.00  0.00    +0.000 HD
ENDROOT
BRANCH   3   5
ATOM      5  C   UNL     1       1.674   9.347  18.047  0.00  0.00    +0.000 A 
ATOM      6  C   UNL     1       0.634   9.837  18.802  0.00  0.00    +0.000 A 
ATOM      7  C   UNL     1       0.922  11.222  18.960  0.00  0.00    +0.000 A 
ATOM      8  N   UNL     1       2.016  11.553  18.261  0.00  0.00    +0.000 NA
ATOM      9  O   UNL     1       2.478  10.385  17.694  0.00  0.00    +0.000 OA
BRANCH   7  10
ATOM     10  C   UNL     1       0.259  12.257  19.855  0.00  0.00    +0.000 C 
ATOM     11  C   UNL     1      -0.447  13.299  18.960  0.00  0.00    +0.000 C 
ATOM     12  C   UNL     1      -0.799  11.620  20.786  0.00  0.00    +0.000 C 
ATOM     13  C   UNL     1       1.278  12.992  20.747  0.00  0.00    +0.000 C 
ENDBRANCH   7  10
ENDBRANCH   3   5
BRANCH   1  14
ATOM     14  C   UNL     1       2.570   5.693  17.933  0.00  0.00    +0.000 C 
BRANCH  14  19
ATOM     15  C   UNL     1       3.745   3.706  18.896  0.00  0.00    +0.000 C 
ATOM     16  C   UNL     1       3.377   2.523  18.009  0.00  0.00    +0.000 C 
ATOM     17  C   UNL     1       1.919   2.298  18.324  0.00  0.00    +0.000 C 
ATOM     18  C   UNL     1       1.386   3.684  18.649  0.00  0.00    +0.000 C 
ATOM     19  N   UNL     1       2.537   4.584  18.926  0.00  0.00    +0.000 NA
BRANCH  15  23
ATOM     20  C   UNL     1       8.007   6.383  18.843  0.00  0.00    +0.000 C 
ATOM     21  N   UNL     1       6.880   5.570  18.460  0.00  0.00    +0.000 N 
ATOM     22  C   UNL     1       5.816   5.237  19.245  0.00  0.00    +0.000 A 
ATOM     23  C   UNL     1       5.027   4.373  18.506  0.00  0.00    +0.000 A 
ATOM     24  C   UNL     1       5.699   4.303  17.261  0.00  0.00    +0.000 A 
ATOM     25  N   UNL     1       6.818   5.033  17.230  0.00  0.00    +0.000 NA
ENDBRANCH  15  23
ENDBRANCH  14  19
ENDBRANCH   1  14
TORSDOF 5
ENDMDL
MODEL 7
REMARK VINA RESULT:      -7.0      4.215      6.996
REMARK  Name = 
REMARK  9 active torsions:
REMARK  status: ('A' for Active; 'I' for Inactive)
REMARK    1  A    between atoms: C_1  and  N_2
REMARK    2  A    between atoms: C_4  and  C_5
REMARK    3  A    between atoms: N_9  and  C_10
REMARK    4  A    between atoms: C_10  and  C_11
REMARK    5  A    between atoms: N_13  and  C_14
REMARK    6  A    between atoms: C_16  and  C_17
REMARK    7  A    between atoms: C_17  and  C_18
REMARK    8  A    between atoms: C_17  and  C_19
REMARK    9  A    between atoms: C_17  and  C_20
REMARK                            x       y       z     vdW  Elec       q    Type
REMARK                         _______ _______ _______ _____ _____    ______ ____
ROOT
ATOM      1  C   UNL     1       2.337   7.258  18.561  0.00  0.00    +0.000 C 
ATOM      2  O   UNL     1       2.319   7.358  19.783  0.00  0.00    +0.000 OA
ATOM      3  N   UNL     1       1.959   8.232  17.654  0.00  0.00    +0.000 N 
ATOM      4  H   UNL     1       2.013   7.996  16.668  0.00  0.00    +0.000 HD
ENDROOT
BRANCH   3   5
ATOM      5  C   UNL     1       1.489   9.464  18.041  0.00  0.00    +0.000 A 
ATOM      6  C   UNL     1       0.251   9.869  18.484  0.00  0.00    +0.000 A 
ATOM      7  C   UNL     1       0.428  11.232  18.857  0.00  0.00    +0.000 A 
ATOM      8  N   UNL     1       1.672  11.637  18.564  0.00  0.00    +0.000 NA
ATOM      9  O   UNL     1       2.326  10.536  18.055  0.00  0.00    +0.000 OA
BRANCH   7  10
ATOM     10  C   UNL     1      -0.513  12.167  19.600  0.00  0.00    +0.000 C 
ATOM     11  C   UNL     1      -0.412  11.866  21.110  0.00  0.00    +0.000 C 
ATOM     12  C   UNL     1      -0.145  13.652  19.374  0.00  0.00    +0.000 C 
ATOM     13  C   UNL     1      -1.979  11.982  19.162  0.00  0.00    +0.000 C 
ENDBRANCH   7  10
ENDBRANCH   3   5
BRANCH   1  14
ATOM     14  C   UNL     1       2.746   5.919  17.913  0.00  0.00    +0.000 C 
BRANCH  14  19
ATOM     15  C   UNL     1       3.816   3.837  18.795  0.00  0.00    +0.000 C 
ATOM     16  C   UNL     1       3.412   2.716  17.846  0.00  0.00    +0.000 C 
ATOM     17  C   UNL     1       1.940   2.542  18.127  0.00  0.00    +0.000 C 
ATOM     18  C   UNL     1       1.463   3.932  18.511  0.00  0.00    +0.000 C 
ATOM     19  N   UNL     1       2.647   4.766  18.849  0.00  0.00    +0.000 NA
BRANCH  15  23
ATOM     20  C   UNL     1       8.116   6.454  18.886  0.00  0.00    +0.000 C 
ATOM     21  N   UNL     1       7.004   5.633  18.473  0.00  0.00    +0.000 N 
ATOM     22  C   UNL     1       5.883   5.360  19.199  0.00  0.00    +0.000 A 
ATOM     23  C   UNL     1       5.133   4.464  18.458  0.00  0.00    +0.000 A 
ATOM     24  C   UNL     1       5.888   4.313  17.269  0.00  0.00    +0.000 A 
ATOM     25  N   UNL     1       7.018   5.026  17.275  0.00  0.00    +0.000 NA
ENDBRANCH  15  23
ENDBRANCH  14  19
ENDBRANCH   1  14
TORSDOF 5
ENDMDL
MODEL 8
REMARK VINA RESULT:      -7.0      4.886      6.649
REMARK  Name = 
REMARK  9 active torsions:
REMARK  status: ('A' for Active; 'I' for Inactive)
REMARK    1  A    between atoms: C_1  and  N_2
REMARK    2  A    between atoms: C_4  and  C_5
REMARK    3  A    between atoms: N_9  and  C_10
REMARK    4  A    between atoms: C_10  and  C_11
REMARK    5  A    between atoms: N_13  and  C_14
REMARK    6  A    between atoms: C_16  and  C_17
REMARK    7  A    between atoms: C_17  and  C_18
REMARK    8  A    between atoms: C_17  and  C_19
REMARK    9  A    between atoms: C_17  and  C_20
REMARK                            x       y       z     vdW  Elec       q    Type
REMARK                         _______ _______ _______ _____ _____    ______ ____
ROOT
ATOM      1  C   UNL     1       2.361   7.222  18.605  0.00  0.00    +0.000 C 
ATOM      2  O   UNL     1       2.314   7.268  19.829  0.00  0.00    +0.000 OA
ATOM      3  N   UNL     1       2.001   8.235  17.733  0.00  0.00    +0.000 N 
ATOM      4  H   UNL     1       2.080   8.044  16.739  0.00  0.00    +0.000 HD
ENDROOT
BRANCH   3   5
ATOM      5  C   UNL     1       1.516   9.447  18.164  0.00  0.00    +0.000 A 
ATOM      6  C   UNL     1       2.155  10.627  18.469  0.00  0.00    +0.000 A 
ATOM      7  C   UNL     1       1.103  11.553  18.723  0.00  0.00    +0.000 A 
ATOM      8  N   UNL     1      -0.084  10.935  18.664  0.00  0.00    +0.000 NA
ATOM      9  O   UNL     1       0.178   9.627  18.319  0.00  0.00    +0.000 OA
BRANCH   7  10
ATOM     10  C   UNL     1       1.160  13.060  18.915  0.00  0.00    +0.000 C 
ATOM     11  C   UNL     1       1.453  13.354  20.402  0.00  0.00    +0.000 C 
ATOM     12  C   UNL     1       2.276  13.706  18.062  0.00  0.00    +0.000 C 
ATOM     13  C   UNL     1      -0.167  13.744  18.535  0.00  0.00    +0.000 C 
ENDBRANCH   7  10
ENDBRANCH   3   5
BRANCH   1  14
ATOM     14  C   UNL     1       2.792   5.915  17.907  0.00  0.00    +0.000 C 
BRANCH  14  19
ATOM     15  C   UNL     1       3.731   3.647  18.386  0.00  0.00    +0.000 C 
ATOM     16  C   UNL     1       2.845   2.654  17.644  0.00  0.00    +0.000 C 
ATOM     17  C   UNL     1       1.550   2.706  18.416  0.00  0.00    +0.000 C 
ATOM     18  C   UNL     1       1.474   4.135  18.928  0.00  0.00    +0.000 C 
ATOM     19  N   UNL     1       2.825   4.748  18.831  0.00  0.00    +0.000 NA
BRANCH  15  23
ATOM     20  C   UNL     1       7.023   4.750  14.741  0.00  0.00    +0.000 C 
ATOM     21  N   UNL     1       6.402   4.526  16.023  0.00  0.00    +0.000 N 
ATOM     22  C   UNL     1       5.154   4.026  16.244  0.00  0.00    +0.000 A 
ATOM     23  C   UNL     1       4.939   4.070  17.610  0.00  0.00    +0.000 A 
ATOM     24  C   UNL     1       6.164   4.571  18.116  0.00  0.00    +0.000 A 
ATOM     25  N   UNL     1       7.053   4.841  17.156  0.00  0.00    +0.000 NA
ENDBRANCH  15  23
ENDBRANCH  14  19
ENDBRANCH   1  14
TORSDOF 5
ENDMDL
MODEL 9
REMARK VINA RESULT:      -7.0      4.128      6.534
REMARK  Name = 
REMARK  9 active torsions:
REMARK  status: ('A' for Active; 'I' for Inactive)
REMARK    1  A    between atoms: C_1  and  N_2
REMARK    2  A    between atoms: C_4  and  C_5
REMARK    3  A    between atoms: N_9  and  C_10
REMARK    4  A    between atoms: C_10  and  C_11
REMARK    5  A    between atoms: N_13  and  C_14
REMARK    6  A    between atoms: C_16  and  C_17
REMARK    7  A    between atoms: C_17  and  C_18
REMARK    8  A    between atoms: C_17  and  C_19
REMARK    9  A    between atoms: C_17  and  C_20
REMARK                            x       y       z     vdW  Elec       q    Type
REMARK                         _______ _______ _______ _____ _____    ______ ____
ROOT
ATOM      1  C   UNL     1       2.407   6.959  18.750  0.00  0.00    +0.000 C 
ATOM      2  O   UNL     1       2.579   6.979  19.964  0.00  0.00    +0.000 OA
ATOM      3  N   UNL     1       1.972   8.013  17.966  0.00  0.00    +0.000 N 
ATOM      4  H   UNL     1       1.862   7.841  16.972  0.00  0.00    +0.000 HD
ENDROOT
BRANCH   3   5
ATOM      5  C   UNL     1       1.658   9.246  18.489  0.00  0.00    +0.000 A 
ATOM      6  C   UNL     1       2.047  10.515  18.128  0.00  0.00    +0.000 A 
ATOM      7  C   UNL     1       1.281  11.379  18.961  0.00  0.00    +0.000 A 
ATOM      8  N   UNL     1       0.552  10.664  19.829  0.00  0.00    +0.000 NA
ATOM      9  O   UNL     1       0.792   9.339  19.533  0.00  0.00    +0.000 OA
BRANCH   7  10
ATOM     10  C   UNL     1       1.114  12.889  18.903  0.00  0.00    +0.000 C 
ATOM     11  C   UNL     1       1.183  13.446  20.341  0.00  0.00    +0.000 C 
ATOM     12  C   UNL     1       2.230  13.559  18.068  0.00  0.00    +0.000 C 
ATOM     13  C   UNL     1      -0.236  13.300  18.284  0.00  0.00    +0.000 C 
ENDBRANCH   7  10
ENDBRANCH   3   5
BRANCH   1  14
ATOM     14  C   UNL     1       2.615   5.643  17.973  0.00  0.00    +0.000 C 
BRANCH  14  19
ATOM     15  C   UNL     1       3.891   3.621  18.709  0.00  0.00    +0.000 C 
ATOM     16  C   UNL     1       3.534   2.511  17.728  0.00  0.00    +0.000 C 
ATOM     17  C   UNL     1       2.096   2.204  18.065  0.00  0.00    +0.000 C 
ATOM     18  C   UNL     1       1.527   3.533  18.534  0.00  0.00    +0.000 C 
ATOM     19  N   UNL     1       2.654   4.446  18.858  0.00  0.00    +0.000 NA
BRANCH  15  23
ATOM     20  C   UNL     1       8.009   6.514  18.757  0.00  0.00    +0.000 C 
ATOM     21  N   UNL     1       6.923   5.660  18.344  0.00  0.00    +0.000 N 
ATOM     22  C   UNL     1       5.881   5.241  19.116  0.00  0.00    +0.000 A 
ATOM     23  C   UNL     1       5.135   4.369  18.345  0.00  0.00    +0.000 A 
ATOM     24  C   UNL     1       5.804   4.384  17.096  0.00  0.00    +0.000 A 
ATOM     25  N   UNL     1       6.884   5.172  17.093  0.00  0.00    +0.000 NA
ENDBRANCH  15  23
ENDBRANCH  14  19
ENDBRANCH   1  14
TORSDOF 5
ENDMDL
