MODEL 1
REMARK VINA RESULT:      -7.3      0.000      0.000
REMARK  Name = 
REMARK  1 active torsions:
REMARK  status: ('A' for Active; 'I' for Inactive)
REMARK    1  A    between atoms: N_6  and  C_7
REMARK                            x       y       z     vdW  Elec       q    Type
REMARK                         _______ _______ _______ _____ _____    ______ ____
ROOT
ATOM      1  O   UNL     1       7.825   4.617  15.539  0.00  0.00    +0.000 OA
ATOM      2  C   UNL     1       6.857   4.658  16.288  0.00  0.00    +0.000 A 
ATOM      3  N   UNL     1       6.978   4.851  17.640  0.00  0.00    +0.000 N 
ATOM      4  C   UNL     1       5.968   4.777  18.567  0.00  0.00    +0.000 A 
ATOM      5  O   UNL     1       6.224   4.875  19.765  0.00  0.00    +0.000 OA
ATOM      6  N   UNL     1       4.684   4.594  18.056  0.00  0.00    +0.000 N 
ATOM      7  C   UNL     1       4.471   4.476  16.692  0.00  0.00    +0.000 A 
ATOM      8  C   UNL     1       5.473   4.499  15.814  0.00  0.00    +0.000 A 
ATOM      9  F   UNL     1       5.274   4.345  14.493  0.00  0.00    +0.000 F 
ATOM     10  H   UNL     1       7.916   4.948  17.999  0.00  0.00    +0.000 HD
ENDROOT
BRANCH   6  11
ATOM     11  C   UNL     1       3.576   4.409  19.022  0.00  0.00    +0.000 C 
ATOM     12  C   UNL     1       2.234   5.014  18.561  0.00  0.00    +0.000 C 
ATOM     13  C   UNL     1       1.351   3.883  18.037  0.00  0.00    +0.000 C 
ATOM     14  C   UNL     1       1.469   2.741  19.035  0.00  0.00    +0.000 C 
ATOM     15  S   UNL     1       3.183   2.701  19.518  0.00  0.00    +0.000 S 
ATOM     16  O   UNL     1       3.860   1.756  18.648  0.00  0.00    +0.000 OA
ATOM     17  O   UNL     1       3.245   2.579  20.960  0.00  0.00    +0.000 OA
ENDBRANCH   6  11
TORSDOF 1
ENDMDL
MODEL 2
REMARK VINA RESULT:      -7.1      2.824      5.124
REMARK  Name = 
REMARK  1 active torsions:
REMARK  status: ('A' for Active; 'I' for Inactive)
REMARK    1  A    between atoms: N_6  and  C_7
REMARK                            x       y       z     vdW  Elec       q    Type
REMARK                         _______ _______ _______ _____ _____    ______ ____
ROOT
ATOM      1  O   UNL     1       1.653   3.081  22.288  0.00  0.00    +0.000 OA
ATOM      2  C   UNL     1       2.314   3.279  21.276  0.00  0.00    +0.000 A 
ATOM      3  N   UNL     1       3.319   2.438  20.874  0.00  0.00    +0.000 N 
ATOM      4  C   UNL     1       4.193   2.650  19.837  0.00  0.00    +0.000 A 
ATOM      5  O   UNL     1       5.114   1.862  19.638  0.00  0.00    +0.000 OA
ATOM      6  N   UNL     1       3.954   3.783  19.060  0.00  0.00    +0.000 N 
ATOM      7  C   UNL     1       2.903   4.637  19.353  0.00  0.00    +0.000 A 
ATOM      8  C   UNL     1       2.098   4.439  20.396  0.00  0.00    +0.000 A 
ATOM      9  F   UNL     1       1.102   5.288  20.706  0.00  0.00    +0.000 F 
ATOM     10  H   UNL     1       3.502   1.641  21.464  0.00  0.00    +0.000 HD
ENDROOT
BRANCH   6  11
ATOM     11  C   UNL     1       4.929   4.107  17.992  0.00  0.00    +0.000 C 
ATOM     12  C   UNL     1       4.327   4.898  16.813  0.00  0.00    +0.000 C 
ATOM     13  C   UNL     1       4.714   6.368  16.973  0.00  0.00    +0.000 C 
ATOM     14  C   UNL     1       6.188   6.391  17.348  0.00  0.00    +0.000 C 
ATOM     15  S   UNL     1       6.417   5.036  18.480  0.00  0.00    +0.000 S 
ATOM     16  O   UNL     1       6.264   5.561  19.825  0.00  0.00    +0.000 OA
ATOM     17  O   UNL     1       7.606   4.310  18.084  0.00  0.00    +0.000 OA
ENDBRANCH   6  11
TORSDOF 1
ENDMDL
MODEL 3
REMARK VINA RESULT:      -6.9      1.878      2.121
REMARK  Name = 
REMARK  1 active torsions:
REMARK  status: ('A' for Active; 'I' for Inactive)
REMARK    1  A    between atoms: N_6  and  C_7
REMARK                            x       y       z     vdW  Elec       q    Type
REMARK                         _______ _______ _______ _____ _____    ______ ____
ROOT
ATOM      1  O   UNL     1       7.924   5.496  14.174  0.00  0.00    +0.000 OA
ATOM      2  C   UNL     1       6.917   5.304  14.843  0.00  0.00    +0.000 A 
ATOM      3  N   UNL     1       6.464   6.208  15.769  0.00  0.00    +0.000 N 
ATOM      4  C   UNL     1       5.430   6.020  16.652  0.00  0.00    +0.000 A 
ATOM      5  O   UNL     1       5.182   6.873  17.501  0.00  0.00    +0.000 OA
ATOM      6  N   UNL     1       4.713   4.833  16.508  0.00  0.00    +0.000 N 
ATOM      7  C   UNL     1       5.058   3.907  15.537  0.00  0.00    +0.000 A 
ATOM      8  C   UNL     1       6.098   4.087  14.724  0.00  0.00    +0.000 A 
ATOM      9  F   UNL     1       6.460   3.172  13.807  0.00  0.00    +0.000 F 
ATOM     10  H   UNL     1       7.012   7.047  15.886  0.00  0.00    +0.000 HD
ENDROOT
BRANCH   6  11
ATOM     11  C   UNL     1       3.652   4.541  17.501  0.00  0.00    +0.000 C 
ATOM     12  C   UNL     1       2.728   3.371  17.106  0.00  0.00    +0.000 C 
ATOM     13  C   UNL     1       3.159   2.132  17.889  0.00  0.00    +0.000 C 
ATOM     14  C   UNL     1       3.393   2.583  19.323  0.00  0.00    +0.000 C 
ATOM     15  S   UNL     1       4.187   4.172  19.203  0.00  0.00    +0.000 S 
ATOM     16  O   UNL     1       5.621   3.947  19.242  0.00  0.00    +0.000 OA
ATOM     17  O   UNL     1       3.538   5.074  20.131  0.00  0.00    +0.000 OA
ENDBRANCH   6  11
TORSDOF 1
ENDMDL
MODEL 4
REMARK VINA RESULT:      -6.7      2.832      5.106
REMARK  Name = 
REMARK  1 active torsions:
REMARK  status: ('A' for Active; 'I' for Inactive)
REMARK    1  A    between atoms: N_6  and  C_7
REMARK                            x       y       z     vdW  Elec       q    Type
REMARK                         _______ _______ _______ _____ _____    ______ ____
ROOT
ATOM      1  O   UNL     1       0.850   2.018  18.654  0.00  0.00    +0.000 OA
ATOM      2  C   UNL     1       1.785   2.797  18.521  0.00  0.00    +0.000 A 
ATOM      3  N   UNL     1       1.608   4.154  18.436  0.00  0.00    +0.000 N 
ATOM      4  C   UNL     1       2.576   5.085  18.153  0.00  0.00    +0.000 A 
ATOM      5  O   UNL     1       2.270   6.267  18.009  0.00  0.00    +0.000 OA
ATOM      6  N   UNL     1       3.878   4.599  18.052  0.00  0.00    +0.000 N 
ATOM      7  C   UNL     1       4.149   3.250  18.211  0.00  0.00    +0.000 A 
ATOM      8  C   UNL     1       3.186   2.356  18.434  0.00  0.00    +0.000 A 
ATOM      9  F   UNL     1       3.440   1.040  18.549  0.00  0.00    +0.000 F 
ATOM     10  H   UNL     1       0.657   4.488  18.476  0.00  0.00    +0.000 HD
ENDROOT
BRANCH   6  11
ATOM     11  C   UNL     1       4.942   5.550  17.650  0.00  0.00    +0.000 C 
ATOM     12  C   UNL     1       6.237   5.429  18.479  0.00  0.00    +0.000 C 
ATOM     13  C   UNL     1       7.264   4.651  17.657  0.00  0.00    +0.000 C 
ATOM     14  C   UNL     1       7.208   5.216  16.245  0.00  0.00    +0.000 C 
ATOM     15  S   UNL     1       5.482   5.505  15.912  0.00  0.00    +0.000 S 
ATOM     16  O   UNL     1       4.961   4.321  15.253  0.00  0.00    +0.000 OA
ATOM     17  O   UNL     1       5.350   6.820  15.319  0.00  0.00    +0.000 OA
ENDBRANCH   6  11
TORSDOF 1
ENDMDL
MODEL 5
REMARK VINA RESULT:      -6.7      2.371      4.781
REMARK  Name = 
REMARK  1 active torsions:
REMARK  status: ('A' for Active; 'I' for Inactive)
REMARK    1  A    between atoms: N_6  and  C_7
REMARK                            x       y       z     vdW  Elec       q    Type
REMARK                         _______ _______ _______ _____ _____    ______ ____
ROOT
ATOM      1  O   UNL     1       0.655   2.956  19.835  0.00  0.00    +0.000 OA
ATOM      2  C   UNL     1       1.720   3.087  19.246  0.00  0.00    +0.000 A 
ATOM      3  N   UNL     1       2.903   2.605  19.744  0.00  0.00    +0.000 N 
ATOM      4  C   UNL     1       4.155   2.820  19.223  0.00  0.00    +0.000 A 
ATOM      5  O   UNL     1       5.149   2.413  19.819  0.00  0.00    +0.000 OA
ATOM      6  N   UNL     1       4.200   3.508  18.011  0.00  0.00    +0.000 N 
ATOM      7  C   UNL     1       3.038   3.954  17.401  0.00  0.00    +0.000 A 
ATOM      8  C   UNL     1       1.838   3.778  17.951  0.00  0.00    +0.000 A 
ATOM      9  F   UNL     1       0.711   4.243  17.382  0.00  0.00    +0.000 F 
ATOM     10  H   UNL     1       2.860   2.139  20.637  0.00  0.00    +0.000 HD
ENDROOT
BRANCH   6  11
ATOM     11  C   UNL     1       5.533   3.851  17.460  0.00  0.00    +0.000 C 
ATOM     12  C   UNL     1       5.507   4.285  15.980  0.00  0.00    +0.000 C 
ATOM     13  C   UNL     1       5.603   5.809  15.924  0.00  0.00    +0.000 C 
ATOM     14  C   UNL     1       6.690   6.213  16.909  0.00  0.00    +0.000 C 
ATOM     15  S   UNL     1       6.478   5.148  18.321  0.00  0.00    +0.000 S 
ATOM     16  O   UNL     1       5.626   5.846  19.269  0.00  0.00    +0.000 OA
ATOM     17  O   UNL     1       7.778   4.640  18.705  0.00  0.00    +0.000 OA
ENDBRANCH   6  11
TORSDOF 1
ENDMDL
MODEL 6
REMARK VINA RESULT:      -6.7      1.745      1.887
REMARK  Name = 
REMARK  1 active torsions:
REMARK  status: ('A' for Active; 'I' for Inactive)
REMARK    1  A    between atoms: N_6  and  C_7
REMARK                            x       y       z     vdW  Elec       q    Type
REMARK                         _______ _______ _______ _____ _____    ______ ____
ROOT
ATOM      1  O   UNL     1       7.450   5.740  15.112  0.00  0.00    +0.000 OA
ATOM      2  C   UNL     1       6.385   5.547  15.686  0.00  0.00    +0.000 A 
ATOM      3  N   UNL     1       5.698   6.548  16.323  0.00  0.00    +0.000 N 
ATOM      4  C   UNL     1       4.576   6.399  17.099  0.00  0.00    +0.000 A 
ATOM      5  O   UNL     1       4.108   7.365  17.697  0.00  0.00    +0.000 OA
ATOM      6  N   UNL     1       4.033   5.116  17.146  0.00  0.00    +0.000 N 
ATOM      7  C   UNL     1       4.623   4.068  16.458  0.00  0.00    +0.000 A 
ATOM      8  C   UNL     1       5.742   4.225  15.752  0.00  0.00    +0.000 A 
ATOM      9  F   UNL     1       6.339   3.202  15.115  0.00  0.00    +0.000 F 
ATOM     10  H   UNL     1       6.120   7.464  16.309  0.00  0.00    +0.000 HD
ENDROOT
BRANCH   6  11
ATOM     11  C   UNL     1       2.881   4.886  18.050  0.00  0.00    +0.000 C 
ATOM     12  C   UNL     1       1.791   3.970  17.455  0.00  0.00    +0.000 C 
ATOM     13  C   UNL     1       1.951   2.576  18.060  0.00  0.00    +0.000 C 
ATOM     14  C   UNL     1       2.175   2.772  19.551  0.00  0.00    +0.000 C 
ATOM     15  S   UNL     1       3.241   4.192  19.694  0.00  0.00    +0.000 S 
ATOM     16  O   UNL     1       4.609   3.706  19.747  0.00  0.00    +0.000 OA
ATOM     17  O   UNL     1       2.706   5.058  20.725  0.00  0.00    +0.000 OA
ENDBRANCH   6  11
TORSDOF 1
ENDMDL
MODEL 7
REMARK VINA RESULT:      -6.7      2.610      4.866
REMARK  Name = 
REMARK  1 active torsions:
REMARK  status: ('A' for Active; 'I' for Inactive)
REMARK    1  A    between atoms: N_6  and  C_7
REMARK                            x       y       z     vdW  Elec       q    Type
REMARK                         _______ _______ _______ _____ _____    ______ ____
ROOT
ATOM      1  O   UNL     1       1.854   6.377  20.488  0.00  0.00    +0.000 OA
ATOM      2  C   UNL     1       2.606   5.826  19.693  0.00  0.00    +0.000 A 
ATOM      3  N   UNL     1       3.345   4.719  20.021  0.00  0.00    +0.000 N 
ATOM      4  C   UNL     1       4.306   4.121  19.245  0.00  0.00    +0.000 A 
ATOM      5  O   UNL     1       4.969   3.189  19.694  0.00  0.00    +0.000 OA
ATOM      6  N   UNL     1       4.458   4.637  17.958  0.00  0.00    +0.000 N 
ATOM      7  C   UNL     1       3.686   5.702  17.523  0.00  0.00    +0.000 A 
ATOM      8  C   UNL     1       2.794   6.300  18.312  0.00  0.00    +0.000 A 
ATOM      9  F   UNL     1       2.072   7.359  17.906  0.00  0.00    +0.000 F 
ATOM     10  H   UNL     1       3.251   4.378  20.966  0.00  0.00    +0.000 HD
ENDROOT
BRANCH   6  11
ATOM     11  C   UNL     1       5.549   4.090  17.118  0.00  0.00    +0.000 C 
ATOM     12  C   UNL     1       5.163   3.890  15.639  0.00  0.00    +0.000 C 
ATOM     13  C   UNL     1       5.744   5.048  14.829  0.00  0.00    +0.000 C 
ATOM     14  C   UNL     1       7.172   5.244  15.314  0.00  0.00    +0.000 C 
ATOM     15  S   UNL     1       7.114   5.021  17.080  0.00  0.00    +0.000 S 
ATOM     16  O   UNL     1       6.933   6.332  17.679  0.00  0.00    +0.000 OA
ATOM     17  O   UNL     1       8.212   4.160  17.466  0.00  0.00    +0.000 OA
ENDBRANCH   6  11
TORSDOF 1
ENDMDL
MODEL 8
REMARK VINA RESULT:      -6.6      1.300      1.438
REMARK  Name = 
REMARK  1 active torsions:
REMARK  status: ('A' for Active; 'I' for Inactive)
REMARK    1  A    between atoms: N_6  and  C_7
REMARK                            x       y       z     vdW  Elec       q    Type
REMARK                         _______ _______ _______ _____ _____    ______ ____
ROOT
ATOM      1  O   UNL     1       7.595   5.303  14.042  0.00  0.00    +0.000 OA
ATOM      2  C   UNL     1       6.956   5.226  15.083  0.00  0.00    +0.000 A 
ATOM      3  N   UNL     1       7.441   5.681  16.282  0.00  0.00    +0.000 N 
ATOM      4  C   UNL     1       6.855   5.517  17.513  0.00  0.00    +0.000 A 
ATOM      5  O   UNL     1       7.440   5.888  18.528  0.00  0.00    +0.000 OA
ATOM      6  N   UNL     1       5.594   4.922  17.514  0.00  0.00    +0.000 N 
ATOM      7  C   UNL     1       5.000   4.512  16.331  0.00  0.00    +0.000 A 
ATOM      8  C   UNL     1       5.609   4.635  15.152  0.00  0.00    +0.000 A 
ATOM      9  F   UNL     1       5.052   4.203  14.007  0.00  0.00    +0.000 F 
ATOM     10  H   UNL     1       8.368   6.078  16.272  0.00  0.00    +0.000 HD
ENDROOT
BRANCH   6  11
ATOM     11  C   UNL     1       4.966   4.634  18.825  0.00  0.00    +0.000 C 
ATOM     12  C   UNL     1       3.895   5.660  19.246  0.00  0.00    +0.000 C 
ATOM     13  C   UNL     1       2.517   5.057  18.975  0.00  0.00    +0.000 C 
ATOM     14  C   UNL     1       2.564   3.623  19.477  0.00  0.00    +0.000 C 
ATOM     15  S   UNL     1       4.172   3.007  19.025  0.00  0.00    +0.000 S 
ATOM     16  O   UNL     1       4.041   2.349  17.737  0.00  0.00    +0.000 OA
ATOM     17  O   UNL     1       4.733   2.320  20.170  0.00  0.00    +0.000 OA
ENDBRANCH   6  11
TORSDOF 1
ENDMDL
MODEL 9
REMARK VINA RESULT:      -6.6      2.794      5.179
REMARK  Name = 
REMARK  1 active torsions:
REMARK  status: ('A' for Active; 'I' for Inactive)
REMARK    1  A    between atoms: N_6  and  C_7
REMARK                            x       y       z     vdW  Elec       q    Type
REMARK                         _______ _______ _______ _____ _____    ______ ____
ROOT
ATOM      1  O   UNL     1       1.097   4.041  20.730  0.00  0.00    +0.000 OA
ATOM      2  C   UNL     1       1.996   4.303  19.941  0.00  0.00    +0.000 A 
ATOM      3  N   UNL     1       2.576   3.353  19.141  0.00  0.00    +0.000 N 
ATOM      4  C   UNL     1       3.671   3.527  18.331  0.00  0.00    +0.000 A 
ATOM      5  O   UNL     1       4.155   2.567  17.736  0.00  0.00    +0.000 OA
ATOM      6  N   UNL     1       4.164   4.828  18.243  0.00  0.00    +0.000 N 
ATOM      7  C   UNL     1       3.577   5.861  18.957  0.00  0.00    +0.000 A 
ATOM      8  C   UNL     1       2.546   5.659  19.777  0.00  0.00    +0.000 A 
ATOM      9  F   UNL     1       1.999   6.651  20.501  0.00  0.00    +0.000 F 
ATOM     10  H   UNL     1       2.233   2.410  19.240  0.00  0.00    +0.000 HD
ENDROOT
BRANCH   6  11
ATOM     11  C   UNL     1       5.403   5.047  17.461  0.00  0.00    +0.000 C 
ATOM     12  C   UNL     1       5.358   6.291  16.550  0.00  0.00    +0.000 C 
ATOM     13  C   UNL     1       6.140   7.414  17.230  0.00  0.00    +0.000 C 
ATOM     14  C   UNL     1       7.424   6.793  17.757  0.00  0.00    +0.000 C 
ATOM     15  S   UNL     1       6.959   5.197  18.396  0.00  0.00    +0.000 S 
ATOM     16  O   UNL     1       6.682   5.357  19.812  0.00  0.00    +0.000 OA
ATOM     17  O   UNL     1       7.918   4.221  17.920  0.00  0.00    +0.000 OA
ENDBRANCH   6  11
TORSDOF 1
ENDMDL
