MODEL 1
REMARK VINA RESULT:      -7.5      0.000      0.000
REMARK  Name = 
REMARK  8 active torsions:
REMARK  status: ('A' for Active; 'I' for Inactive)
REMARK    1  A    between atoms: C_1  and  O_2
REMARK    2  A    between atoms: O_2  and  C_3
REMARK    3  A    between atoms: C_7  and  C_8
REMARK    4  A    between atoms: C_8  and  N_9
REMARK    5  A    between atoms: N_12  and  S_13
REMARK    6  A    between atoms: S_13  and  C_16
REMARK    7  A    between atoms: C_23  and  O_24
REMARK    8  A    between atoms: O_24  and  C_25
REMARK                            x       y       z     vdW  Elec       q    Type
REMARK                         _______ _______ _______ _____ _____    ______ ____
ROOT
ATOM      1  N   UNL     1       1.829   8.549  19.397  0.00  0.00    +0.000 N 
ATOM      2  N   UNL     1       1.686   9.489  18.432  0.00  0.00    +0.000 NA
ATOM      3  C   UNL     1       0.722  10.270  18.887  0.00  0.00    +0.000 A 
ATOM      4  N   UNL     1       0.493  11.533  18.345  0.00  0.00    +0.000 N 
ATOM      5  C   UNL     1       0.233   9.852  20.143  0.00  0.00    +0.000 A 
ATOM      6  C   UNL     1      -0.749  10.380  21.005  0.00  0.00    +0.000 A 
ATOM      7  C   UNL     1      -0.606  10.109  22.364  0.00  0.00    +0.000 A 
ATOM      8  C   UNL     1       0.476   9.340  22.820  0.00  0.00    +0.000 A 
ATOM      9  C   UNL     1       1.372   8.695  21.942  0.00  0.00    +0.000 A 
ATOM     10  C   UNL     1       1.198   8.939  20.571  0.00  0.00    +0.000 A 
ATOM     11  H   UNL     1      -0.395  11.919  18.666  0.00  0.00    +0.000 HD
ENDROOT
BRANCH   4  12
ATOM     12  S   UNL     1       1.682  12.665  18.834  0.00  0.00    +0.000 S 
ATOM     13  O   UNL     1       1.978  12.414  20.218  0.00  0.00    +0.000 OA
ATOM     14  O   UNL     1       2.751  12.664  17.851  0.00  0.00    +0.000 OA
BRANCH  12  15
ATOM     15  C   UNL     1       1.012  14.317  18.775  0.00  0.00    +0.000 A 
ATOM     16  C   UNL     1      -0.284  14.803  18.770  0.00  0.00    +0.000 A 
ATOM     17  C   UNL     1      -0.326  16.232  18.753  0.00  0.00    +0.000 A 
ATOM     18  C   UNL     1       0.940  16.757  18.750  0.00  0.00    +0.000 A 
ATOM     19 CL   UNL     1       1.360  18.422  18.756  0.00  0.00    +0.000 Cl
ATOM     20  S   UNL     1       2.162  15.589  18.735  0.00  0.00    +0.000 S 
ENDBRANCH  12  15
ENDBRANCH   4  12
BRANCH   6  21
ATOM     21  O   UNL     1      -1.699  11.164  20.416  0.00  0.00    +0.000 OA
ATOM     22  C   UNL     1      -2.070  12.377  21.055  0.00  0.00    +0.000 C 
ENDBRANCH   6  21
BRANCH   1  23
ATOM     23  C   UNL     1       2.778   7.463  19.126  0.00  0.00    +0.000 C 
BRANCH  23  28
ATOM     24  C   UNL     1       1.357   4.038  20.179  0.00  0.00    +0.000 A 
ATOM     25  C   UNL     1       1.179   3.403  18.952  0.00  0.00    +0.000 A 
ATOM     26  C   UNL     1       1.496   4.069  17.778  0.00  0.00    +0.000 A 
ATOM     27  C   UNL     1       1.997   5.373  17.826  0.00  0.00    +0.000 A 
ATOM     28  C   UNL     1       2.159   6.061  19.045  0.00  0.00    +0.000 A 
ATOM     29  C   UNL     1       1.854   5.352  20.228  0.00  0.00    +0.000 A 
BRANCH  24  31
ATOM     30  C   UNL     1       2.186   2.560  21.828  0.00  0.00    +0.000 C 
ATOM     31  O   UNL     1       1.081   3.247  21.260  0.00  0.00    +0.000 OA
ENDBRANCH  24  31
ENDBRANCH  23  28
ENDBRANCH   1  23
TORSDOF 6
ENDMDL
MODEL 2
REMARK VINA RESULT:      -7.3      5.160      8.732
REMARK  Name = 
REMARK  8 active torsions:
REMARK  status: ('A' for Active; 'I' for Inactive)
REMARK    1  A    between atoms: C_1  and  O_2
REMARK    2  A    between atoms: O_2  and  C_3
REMARK    3  A    between atoms: C_7  and  C_8
REMARK    4  A    between atoms: C_8  and  N_9
REMARK    5  A    between atoms: N_12  and  S_13
REMARK    6  A    between atoms: S_13  and  C_16
REMARK    7  A    between atoms: C_23  and  O_24
REMARK    8  A    between atoms: O_24  and  C_25
REMARK                            x       y       z     vdW  Elec       q    Type
REMARK                         _______ _______ _______ _____ _____    ______ ____
ROOT
ATOM      1  N   UNL     1       3.215   6.105  18.183  0.00  0.00    +0.000 N 
ATOM      2  N   UNL     1       4.333   6.536  18.813  0.00  0.00    +0.000 NA
ATOM      3  C   UNL     1       4.890   5.427  19.268  0.00  0.00    +0.000 A 
ATOM      4  N   UNL     1       6.216   5.402  19.697  0.00  0.00    +0.000 N 
ATOM      5  C   UNL     1       4.148   4.272  18.940  0.00  0.00    +0.000 A 
ATOM      6  C   UNL     1       4.364   2.902  19.184  0.00  0.00    +0.000 A 
ATOM      7  C   UNL     1       3.801   2.005  18.278  0.00  0.00    +0.000 A 
ATOM      8  C   UNL     1       3.057   2.478  17.186  0.00  0.00    +0.000 A 
ATOM      9  C   UNL     1       2.723   3.840  17.029  0.00  0.00    +0.000 A 
ATOM     10  C   UNL     1       3.259   4.734  17.968  0.00  0.00    +0.000 A 
ATOM     11  H   UNL     1       6.429   4.538  20.195  0.00  0.00    +0.000 HD
ENDROOT
BRANCH   4  12
ATOM     12  S   UNL     1       7.315   5.451  18.384  0.00  0.00    +0.000 S 
ATOM     13  O   UNL     1       8.015   6.704  18.450  0.00  0.00    +0.000 OA
ATOM     14  O   UNL     1       8.058   4.204  18.357  0.00  0.00    +0.000 OA
BRANCH  12  15
ATOM     15  C   UNL     1       6.419   5.480  16.841  0.00  0.00    +0.000 A 
ATOM     16  C   UNL     1       5.725   6.478  16.179  0.00  0.00    +0.000 A 
ATOM     17  C   UNL     1       5.195   6.031  14.928  0.00  0.00    +0.000 A 
ATOM     18  C   UNL     1       5.518   4.717  14.705  0.00  0.00    +0.000 A 
ATOM     19 CL   UNL     1       5.110   3.782  13.323  0.00  0.00    +0.000 Cl
ATOM     20  S   UNL     1       6.403   4.010  15.959  0.00  0.00    +0.000 S 
ENDBRANCH  12  15
ENDBRANCH   4  12
BRANCH   6  21
ATOM     21  O   UNL     1       5.166   2.605  20.247  0.00  0.00    +0.000 OA
ATOM     22  C   UNL     1       5.032   1.333  20.864  0.00  0.00    +0.000 C 
ENDBRANCH   6  21
BRANCH   1  23
ATOM     23  C   UNL     1       2.318   7.138  17.650  0.00  0.00    +0.000 C 
BRANCH  23  28
ATOM     24  C   UNL     1       1.271   8.840  20.946  0.00  0.00    +0.000 A 
ATOM     25  C   UNL     1       0.943  10.125  20.523  0.00  0.00    +0.000 A 
ATOM     26  C   UNL     1       1.070  10.464  19.184  0.00  0.00    +0.000 A 
ATOM     27  C   UNL     1       1.520   9.516  18.262  0.00  0.00    +0.000 A 
ATOM     28  C   UNL     1       1.894   8.216  18.656  0.00  0.00    +0.000 A 
ATOM     29  C   UNL     1       1.731   7.887  20.020  0.00  0.00    +0.000 A 
BRANCH  24  31
ATOM     30  C   UNL     1       0.076   9.465  22.889  0.00  0.00    +0.000 C 
ATOM     31  O   UNL     1       1.029   8.612  22.273  0.00  0.00    +0.000 OA
ENDBRANCH  24  31
ENDBRANCH  23  28
ENDBRANCH   1  23
TORSDOF 6
ENDMDL
MODEL 3
REMARK VINA RESULT:      -7.3      5.136      8.896
REMARK  Name = 
REMARK  8 active torsions:
REMARK  status: ('A' for Active; 'I' for Inactive)
REMARK    1  A    between atoms: C_1  and  O_2
REMARK    2  A    between atoms: O_2  and  C_3
REMARK    3  A    between atoms: C_7  and  C_8
REMARK    4  A    between atoms: C_8  and  N_9
REMARK    5  A    between atoms: N_12  and  S_13
REMARK    6  A    between atoms: S_13  and  C_16
REMARK    7  A    between atoms: C_23  and  O_24
REMARK    8  A    between atoms: O_24  and  C_25
REMARK                            x       y       z     vdW  Elec       q    Type
REMARK                         _______ _______ _______ _____ _____    ______ ____
ROOT
ATOM      1  N   UNL     1       3.378   6.338  18.394  0.00  0.00    +0.000 N 
ATOM      2  N   UNL     1       4.553   6.638  18.996  0.00  0.00    +0.000 NA
ATOM      3  C   UNL     1       5.055   5.460  19.323  0.00  0.00    +0.000 A 
ATOM      4  N   UNL     1       6.395   5.311  19.674  0.00  0.00    +0.000 N 
ATOM      5  C   UNL     1       4.220   4.389  18.939  0.00  0.00    +0.000 A 
ATOM      6  C   UNL     1       4.354   2.991  19.052  0.00  0.00    +0.000 A 
ATOM      7  C   UNL     1       3.686   2.216  18.105  0.00  0.00    +0.000 A 
ATOM      8  C   UNL     1       2.923   2.831  17.100  0.00  0.00    +0.000 A 
ATOM      9  C   UNL     1       2.675   4.220  17.079  0.00  0.00    +0.000 A 
ATOM     10  C   UNL     1       3.317   4.991  18.061  0.00  0.00    +0.000 A 
ATOM     11  H   UNL     1       6.573   4.394  20.083  0.00  0.00    +0.000 HD
ENDROOT
BRANCH   4  12
ATOM     12  S   UNL     1       7.428   5.407  18.310  0.00  0.00    +0.000 S 
ATOM     13  O   UNL     1       8.098   6.678  18.361  0.00  0.00    +0.000 OA
ATOM     14  O   UNL     1       8.202   4.181  18.231  0.00  0.00    +0.000 OA
BRANCH  12  15
ATOM     15  C   UNL     1       6.460   5.432  16.813  0.00  0.00    +0.000 A 
ATOM     16  C   UNL     1       5.732   6.427  16.184  0.00  0.00    +0.000 A 
ATOM     17  C   UNL     1       5.144   5.976  14.960  0.00  0.00    +0.000 A 
ATOM     18  C   UNL     1       5.459   4.663  14.723  0.00  0.00    +0.000 A 
ATOM     19 CL   UNL     1       4.988   3.726  13.364  0.00  0.00    +0.000 Cl
ATOM     20  S   UNL     1       6.405   3.960  15.934  0.00  0.00    +0.000 S 
ENDBRANCH  12  15
ENDBRANCH   4  12
BRANCH   6  21
ATOM     21  O   UNL     1       5.185   2.550  20.040  0.00  0.00    +0.000 OA
ATOM     22  C   UNL     1       4.799   1.408  20.792  0.00  0.00    +0.000 C 
ENDBRANCH   6  21
BRANCH   1  23
ATOM     23  C   UNL     1       2.529   7.469  18.002  0.00  0.00    +0.000 C 
BRANCH  23  28
ATOM     24  C   UNL     1       0.581  10.102  20.035  0.00  0.00    +0.000 A 
ATOM     25  C   UNL     1       0.523   9.517  21.297  0.00  0.00    +0.000 A 
ATOM     26  C   UNL     1       1.091   8.268  21.505  0.00  0.00    +0.000 A 
ATOM     27  C   UNL     1       1.724   7.603  20.452  0.00  0.00    +0.000 A 
ATOM     28  C   UNL     1       1.773   8.147  19.153  0.00  0.00    +0.000 A 
ATOM     29  C   UNL     1       1.211   9.430  18.972  0.00  0.00    +0.000 A 
BRANCH  24  31
ATOM     30  C   UNL     1       0.086  11.999  18.713  0.00  0.00    +0.000 C 
ATOM     31  O   UNL     1       0.052  11.363  19.981  0.00  0.00    +0.000 OA
ENDBRANCH  24  31
ENDBRANCH  23  28
ENDBRANCH   1  23
TORSDOF 6
ENDMDL
MODEL 4
REMARK VINA RESULT:      -7.2      1.626      1.802
REMARK  Name = 
REMARK  8 active torsions:
REMARK  status: ('A' for Active; 'I' for Inactive)
REMARK    1  A    between atoms: C_1  and  O_2
REMARK    2  A    between atoms: O_2  and  C_3
REMARK    3  A    between atoms: C_7  and  C_8
REMARK    4  A    between atoms: C_8  and  N_9
REMARK    5  A    between atoms: N_12  and  S_13
REMARK    6  A    between atoms: S_13  and  C_16
REMARK    7  A    between atoms: C_23  and  O_24
REMARK    8  A    between atoms: O_24  and  C_25
REMARK                            x       y       z     vdW  Elec       q    Type
REMARK                         _______ _______ _______ _____ _____    ______ ____
ROOT
ATOM      1  N   UNL     1       2.303   8.708  18.274  0.00  0.00    +0.000 N 
ATOM      2  N   UNL     1       2.193   9.878  17.601  0.00  0.00    +0.000 NA
ATOM      3  C   UNL     1       1.169  10.483  18.178  0.00  0.00    +0.000 A 
ATOM      4  N   UNL     1       0.929  11.843  17.993  0.00  0.00    +0.000 N 
ATOM      5  C   UNL     1       0.607   9.721  19.225  0.00  0.00    +0.000 A 
ATOM      6  C   UNL     1      -0.453   9.968  20.118  0.00  0.00    +0.000 A 
ATOM      7  C   UNL     1      -0.397   9.328  21.355  0.00  0.00    +0.000 A 
ATOM      8  C   UNL     1       0.679   8.481  21.663  0.00  0.00    +0.000 A 
ATOM      9  C   UNL     1       1.660   8.124  20.714  0.00  0.00    +0.000 A 
ATOM     10  C   UNL     1       1.575   8.741  19.456  0.00  0.00    +0.000 A 
ATOM     11  H   UNL     1       0.006  12.108  18.338  0.00  0.00    +0.000 HD
ENDROOT
BRANCH   4  12
ATOM     12  S   UNL     1       2.035  12.813  18.871  0.00  0.00    +0.000 S 
ATOM     13  O   UNL     1       1.935  12.441  20.256  0.00  0.00    +0.000 OA
ATOM     14  O   UNL     1       3.322  12.769  18.198  0.00  0.00    +0.000 OA
BRANCH  12  15
ATOM     15  C   UNL     1       1.540  14.525  18.794  0.00  0.00    +0.000 A 
ATOM     16  C   UNL     1       2.252  15.700  18.632  0.00  0.00    +0.000 A 
ATOM     17  C   UNL     1       1.400  16.848  18.592  0.00  0.00    +0.000 A 
ATOM     18  C   UNL     1       0.085  16.484  18.723  0.00  0.00    +0.000 A 
ATOM     19 CL   UNL     1      -1.275  17.531  18.707  0.00  0.00    +0.000 Cl
ATOM     20  S   UNL     1      -0.145  14.821  18.921  0.00  0.00    +0.000 S 
ENDBRANCH  12  15
ENDBRANCH   4  12
BRANCH   6  21
ATOM     21  O   UNL     1      -1.388  10.868  19.698  0.00  0.00    +0.000 OA
ATOM     22  C   UNL     1      -2.240  10.509  18.620  0.00  0.00    +0.000 C 
ENDBRANCH   6  21
BRANCH   1  23
ATOM     23  C   UNL     1       3.311   7.758  17.786  0.00  0.00    +0.000 C 
BRANCH  23  28
ATOM     24  C   UNL     1       3.983   4.208  19.128  0.00  0.00    +0.000 A 
ATOM     25  C   UNL     1       2.788   3.553  18.840  0.00  0.00    +0.000 A 
ATOM     26  C   UNL     1       1.751   4.245  18.231  0.00  0.00    +0.000 A 
ATOM     27  C   UNL     1       1.909   5.593  17.902  0.00  0.00    +0.000 A 
ATOM     28  C   UNL     1       3.089   6.300  18.207  0.00  0.00    +0.000 A 
ATOM     29  C   UNL     1       4.139   5.567  18.803  0.00  0.00    +0.000 A 
BRANCH  24  31
ATOM     30  C   UNL     1       4.515   2.122  20.106  0.00  0.00    +0.000 C 
ATOM     31  O   UNL     1       4.949   3.397  19.657  0.00  0.00    +0.000 OA
ENDBRANCH  24  31
ENDBRANCH  23  28
ENDBRANCH   1  23
TORSDOF 6
ENDMDL
MODEL 5
REMARK VINA RESULT:      -7.2      1.214      1.509
REMARK  Name = 
REMARK  8 active torsions:
REMARK  status: ('A' for Active; 'I' for Inactive)
REMARK    1  A    between atoms: C_1  and  O_2
REMARK    2  A    between atoms: O_2  and  C_3
REMARK    3  A    between atoms: C_7  and  C_8
REMARK    4  A    between atoms: C_8  and  N_9
REMARK    5  A    between atoms: N_12  and  S_13
REMARK    6  A    between atoms: S_13  and  C_16
REMARK    7  A    between atoms: C_23  and  O_24
REMARK    8  A    between atoms: O_24  and  C_25
REMARK                            x       y       z     vdW  Elec       q    Type
REMARK                         _______ _______ _______ _____ _____    ______ ____
ROOT
ATOM      1  N   UNL     1       2.184   8.751  18.315  0.00  0.00    +0.000 N 
ATOM      2  N   UNL     1       2.012   9.917  17.648  0.00  0.00    +0.000 NA
ATOM      3  C   UNL     1       1.007  10.500  18.279  0.00  0.00    +0.000 A 
ATOM      4  N   UNL     1       0.727  11.854  18.107  0.00  0.00    +0.000 N 
ATOM      5  C   UNL     1       0.521   9.728  19.356  0.00  0.00    +0.000 A 
ATOM      6  C   UNL     1      -0.495   9.953  20.305  0.00  0.00    +0.000 A 
ATOM      7  C   UNL     1      -0.358   9.317  21.537  0.00  0.00    +0.000 A 
ATOM      8  C   UNL     1       0.753   8.495  21.787  0.00  0.00    +0.000 A 
ATOM      9  C   UNL     1       1.688   8.158  20.786  0.00  0.00    +0.000 A 
ATOM     10  C   UNL     1       1.521   8.770  19.534  0.00  0.00    +0.000 A 
ATOM     11  H   UNL     1      -0.181  12.099  18.501  0.00  0.00    +0.000 HD
ENDROOT
BRANCH   4  12
ATOM     12  S   UNL     1       1.858  12.850  18.923  0.00  0.00    +0.000 S 
ATOM     13  O   UNL     1       1.955  12.378  20.277  0.00  0.00    +0.000 OA
ATOM     14  O   UNL     1       3.052  12.959  18.104  0.00  0.00    +0.000 OA
BRANCH  12  15
ATOM     15  C   UNL     1       1.231  14.517  19.037  0.00  0.00    +0.000 A 
ATOM     16  C   UNL     1      -0.013  15.069  18.787  0.00  0.00    +0.000 A 
ATOM     17  C   UNL     1      -0.048  16.472  19.063  0.00  0.00    +0.000 A 
ATOM     18  C   UNL     1       1.171  16.910  19.511  0.00  0.00    +0.000 A 
ATOM     19 CL   UNL     1       1.574  18.512  19.981  0.00  0.00    +0.000 Cl
ATOM     20  S   UNL     1       2.349  15.700  19.578  0.00  0.00    +0.000 S 
ENDBRANCH  12  15
ENDBRANCH   4  12
BRANCH   6  21
ATOM     21  O   UNL     1      -1.472  10.831  19.936  0.00  0.00    +0.000 OA
ATOM     22  C   UNL     1      -1.650  12.012  20.705  0.00  0.00    +0.000 C 
ENDBRANCH   6  21
BRANCH   1  23
ATOM     23  C   UNL     1       3.185   7.823  17.774  0.00  0.00    +0.000 C 
BRANCH  23  28
ATOM     24  C   UNL     1       1.859   4.251  18.353  0.00  0.00    +0.000 A 
ATOM     25  C   UNL     1       2.731   3.767  19.326  0.00  0.00    +0.000 A 
ATOM     26  C   UNL     1       3.760   4.572  19.793  0.00  0.00    +0.000 A 
ATOM     27  C   UNL     1       3.917   5.867  19.291  0.00  0.00    +0.000 A 
ATOM     28  C   UNL     1       3.078   6.380  18.283  0.00  0.00    +0.000 A 
ATOM     29  C   UNL     1       2.022   5.551  17.843  0.00  0.00    +0.000 A 
BRANCH  24  31
ATOM     30  C   UNL     1       0.796   2.183  18.784  0.00  0.00    +0.000 C 
ATOM     31  O   UNL     1       0.845   3.389  18.036  0.00  0.00    +0.000 OA
ENDBRANCH  24  31
ENDBRANCH  23  28
ENDBRANCH   1  23
TORSDOF 6
ENDMDL
MODEL 6
REMARK VINA RESULT:      -7.2      1.192      1.682
REMARK  Name = 
REMARK  8 active torsions:
REMARK  status: ('A' for Active; 'I' for Inactive)
REMARK    1  A    between atoms: C_1  and  O_2
REMARK    2  A    between atoms: O_2  and  C_3
REMARK    3  A    between atoms: C_7  and  C_8
REMARK    4  A    between atoms: C_8  and  N_9
REMARK    5  A    between atoms: N_12  and  S_13
REMARK    6  A    between atoms: S_13  and  C_16
REMARK    7  A    between atoms: C_23  and  O_24
REMARK    8  A    between atoms: O_24  and  C_25
REMARK                            x       y       z     vdW  Elec       q    Type
REMARK                         _______ _______ _______ _____ _____    ______ ____
ROOT
ATOM      1  N   UNL     1       1.831   8.748  19.034  0.00  0.00    +0.000 N 
ATOM      2  N   UNL     1       1.694   9.789  18.179  0.00  0.00    +0.000 NA
ATOM      3  C   UNL     1       0.788  10.559  18.755  0.00  0.00    +0.000 A 
ATOM      4  N   UNL     1       0.597  11.881  18.358  0.00  0.00    +0.000 N 
ATOM      5  C   UNL     1       0.331  10.033  19.983  0.00  0.00    +0.000 A 
ATOM      6  C   UNL     1      -0.588  10.510  20.938  0.00  0.00    +0.000 A 
ATOM      7  C   UNL     1      -0.403  10.091  22.254  0.00  0.00    +0.000 A 
ATOM      8  C   UNL     1       0.659   9.232  22.579  0.00  0.00    +0.000 A 
ATOM      9  C   UNL     1       1.487   8.645  21.598  0.00  0.00    +0.000 A 
ATOM     10  C   UNL     1       1.268   9.039  20.269  0.00  0.00    +0.000 A 
ATOM     11  H   UNL     1      -0.257  12.269  18.757  0.00  0.00    +0.000 HD
ENDROOT
BRANCH   4  12
ATOM     12  S   UNL     1       1.859  12.902  18.906  0.00  0.00    +0.000 S 
ATOM     13  O   UNL     1       2.008  12.688  20.319  0.00  0.00    +0.000 OA
ATOM     14  O   UNL     1       3.000  12.741  18.022  0.00  0.00    +0.000 OA
BRANCH  12  15
ATOM     15  C   UNL     1       1.381  14.611  18.724  0.00  0.00    +0.000 A 
ATOM     16  C   UNL     1       2.106  15.767  18.493  0.00  0.00    +0.000 A 
ATOM     17  C   UNL     1       1.266  16.920  18.382  0.00  0.00    +0.000 A 
ATOM     18  C   UNL     1      -0.053  16.577  18.531  0.00  0.00    +0.000 A 
ATOM     19 CL   UNL     1      -1.403  17.636  18.448  0.00  0.00    +0.000 Cl
ATOM     20  S   UNL     1      -0.301  14.932  18.828  0.00  0.00    +0.000 S 
ENDBRANCH  12  15
ENDBRANCH   4  12
BRANCH   6  21
ATOM     21  O   UNL     1      -1.523  11.391  20.478  0.00  0.00    +0.000 OA
ATOM     22  C   UNL     1      -1.822  12.535  21.264  0.00  0.00    +0.000 C 
ENDBRANCH   6  21
BRANCH   1  23
ATOM     23  C   UNL     1       2.715   7.655  18.608  0.00  0.00    +0.000 C 
BRANCH  23  28
ATOM     24  C   UNL     1       1.747   3.927  18.456  0.00  0.00    +0.000 A 
ATOM     25  C   UNL     1       1.292   3.688  19.750  0.00  0.00    +0.000 A 
ATOM     26  C   UNL     1       1.306   4.711  20.687  0.00  0.00    +0.000 A 
ATOM     27  C   UNL     1       1.771   5.980  20.331  0.00  0.00    +0.000 A 
ATOM     28  C   UNL     1       2.272   6.252  19.042  0.00  0.00    +0.000 A 
ATOM     29  C   UNL     1       2.222   5.202  18.099  0.00  0.00    +0.000 A 
BRANCH  24  31
ATOM     30  C   UNL     1       2.717   1.975  17.540  0.00  0.00    +0.000 C 
ATOM     31  O   UNL     1       1.610   2.860  17.611  0.00  0.00    +0.000 OA
ENDBRANCH  24  31
ENDBRANCH  23  28
ENDBRANCH   1  23
TORSDOF 6
ENDMDL
MODEL 7
REMARK VINA RESULT:      -7.1      1.822      2.149
REMARK  Name = 
REMARK  8 active torsions:
REMARK  status: ('A' for Active; 'I' for Inactive)
REMARK    1  A    between atoms: C_1  and  O_2
REMARK    2  A    between atoms: O_2  and  C_3
REMARK    3  A    between atoms: C_7  and  C_8
REMARK    4  A    between atoms: C_8  and  N_9
REMARK    5  A    between atoms: N_12  and  S_13
REMARK    6  A    between atoms: S_13  and  C_16
REMARK    7  A    between atoms: C_23  and  O_24
REMARK    8  A    between atoms: O_24  and  C_25
REMARK                            x       y       z     vdW  Elec       q    Type
REMARK                         _______ _______ _______ _____ _____    ______ ____
ROOT
ATOM      1  N   UNL     1       1.953   8.790  18.118  0.00  0.00    +0.000 N 
ATOM      2  N   UNL     1       1.716   9.992  17.541  0.00  0.00    +0.000 NA
ATOM      3  C   UNL     1       0.844  10.568  18.351  0.00  0.00    +0.000 A 
ATOM      4  N   UNL     1       0.586  11.936  18.287  0.00  0.00    +0.000 N 
ATOM      5  C   UNL     1       0.510   9.756  19.455  0.00  0.00    +0.000 A 
ATOM      6  C   UNL     1      -0.334   9.959  20.565  0.00  0.00    +0.000 A 
ATOM      7  C   UNL     1      -0.023   9.259  21.729  0.00  0.00    +0.000 A 
ATOM      8  C   UNL     1       1.085   8.397  21.760  0.00  0.00    +0.000 A 
ATOM      9  C   UNL     1       1.838   8.088  20.608  0.00  0.00    +0.000 A 
ATOM     10  C   UNL     1       1.493   8.765  19.428  0.00  0.00    +0.000 A 
ATOM     11  H   UNL     1      -0.240  12.184  18.832  0.00  0.00    +0.000 HD
ENDROOT
BRANCH   4  12
ATOM     12  S   UNL     1       1.864  12.861  18.955  0.00  0.00    +0.000 S 
ATOM     13  O   UNL     1       1.920  12.573  20.362  0.00  0.00    +0.000 OA
ATOM     14  O   UNL     1       3.045  12.679  18.129  0.00  0.00    +0.000 OA
BRANCH  12  15
ATOM     15  C   UNL     1       1.486  14.600  18.833  0.00  0.00    +0.000 A 
ATOM     16  C   UNL     1       2.281  15.723  18.686  0.00  0.00    +0.000 A 
ATOM     17  C   UNL     1       1.509  16.924  18.594  0.00  0.00    +0.000 A 
ATOM     18  C   UNL     1       0.169  16.648  18.672  0.00  0.00    +0.000 A 
ATOM     19 CL   UNL     1      -1.118  17.782  18.583  0.00  0.00    +0.000 Cl
ATOM     20  S   UNL     1      -0.179  15.008  18.882  0.00  0.00    +0.000 S 
ENDBRANCH  12  15
ENDBRANCH   4  12
BRANCH   6  21
ATOM     21  O   UNL     1      -1.327  10.879  20.397  0.00  0.00    +0.000 OA
ATOM     22  C   UNL     1      -1.428  11.947  21.329  0.00  0.00    +0.000 C 
ENDBRANCH   6  21
BRANCH   1  23
ATOM     23  C   UNL     1       2.824   7.865  17.382  0.00  0.00    +0.000 C 
BRANCH  23  28
ATOM     24  C   UNL     1       4.647   4.926  19.085  0.00  0.00    +0.000 A 
ATOM     25  C   UNL     1       3.635   3.976  19.196  0.00  0.00    +0.000 A 
ATOM     26  C   UNL     1       2.357   4.273  18.744  0.00  0.00    +0.000 A 
ATOM     27  C   UNL     1       2.089   5.520  18.173  0.00  0.00    +0.000 A 
ATOM     28  C   UNL     1       3.077   6.519  18.074  0.00  0.00    +0.000 A 
ATOM     29  C   UNL     1       4.376   6.184  18.517  0.00  0.00    +0.000 A 
BRANCH  24  31
ATOM     30  C   UNL     1       6.940   5.415  19.391  0.00  0.00    +0.000 C 
ATOM     31  O   UNL     1       5.874   4.483  19.496  0.00  0.00    +0.000 OA
ENDBRANCH  24  31
ENDBRANCH  23  28
ENDBRANCH   1  23
TORSDOF 6
ENDMDL
MODEL 8
REMARK VINA RESULT:      -7.1      6.581      9.523
REMARK  Name = 
REMARK  8 active torsions:
REMARK  status: ('A' for Active; 'I' for Inactive)
REMARK    1  A    between atoms: C_1  and  O_2
REMARK    2  A    between atoms: O_2  and  C_3
REMARK    3  A    between atoms: C_7  and  C_8
REMARK    4  A    between atoms: C_8  and  N_9
REMARK    5  A    between atoms: N_12  and  S_13
REMARK    6  A    between atoms: S_13  and  C_16
REMARK    7  A    between atoms: C_23  and  O_24
REMARK    8  A    between atoms: O_24  and  C_25
REMARK                            x       y       z     vdW  Elec       q    Type
REMARK                         _______ _______ _______ _____ _____    ______ ____
ROOT
ATOM      1  N   UNL     1       4.664   4.222  17.369  0.00  0.00    +0.000 N 
ATOM      2  N   UNL     1       4.662   4.619  16.074  0.00  0.00    +0.000 NA
ATOM      3  C   UNL     1       5.542   5.604  16.040  0.00  0.00    +0.000 A 
ATOM      4  N   UNL     1       6.067   6.070  14.836  0.00  0.00    +0.000 N 
ATOM      5  C   UNL     1       6.124   5.855  17.301  0.00  0.00    +0.000 A 
ATOM      6  C   UNL     1       7.109   6.768  17.729  0.00  0.00    +0.000 A 
ATOM      7  C   UNL     1       7.864   6.402  18.841  0.00  0.00    +0.000 A 
ATOM      8  C   UNL     1       7.630   5.176  19.483  0.00  0.00    +0.000 A 
ATOM      9  C   UNL     1       6.550   4.335  19.140  0.00  0.00    +0.000 A 
ATOM     10  C   UNL     1       5.766   4.729  18.044  0.00  0.00    +0.000 A 
ATOM     11  H   UNL     1       6.571   6.947  14.965  0.00  0.00    +0.000 HD
ENDROOT
BRANCH   4  12
ATOM     12  S   UNL     1       7.213   4.981  14.174  0.00  0.00    +0.000 S 
ATOM     13  O   UNL     1       8.187   5.759  13.459  0.00  0.00    +0.000 OA
ATOM     14  O   UNL     1       7.638   4.067  15.219  0.00  0.00    +0.000 OA
BRANCH  12  15
ATOM     15  C   UNL     1       6.431   3.944  12.951  0.00  0.00    +0.000 A 
ATOM     16  C   UNL     1       6.867   2.837  12.245  0.00  0.00    +0.000 A 
ATOM     17  C   UNL     1       5.852   2.308  11.387  0.00  0.00    +0.000 A 
ATOM     18  C   UNL     1       4.698   3.040  11.490  0.00  0.00    +0.000 A 
ATOM     19 CL   UNL     1       3.222   2.749  10.660  0.00  0.00    +0.000 Cl
ATOM     20  S   UNL     1       4.812   4.348  12.554  0.00  0.00    +0.000 S 
ENDBRANCH  12  15
ENDBRANCH   4  12
BRANCH   6  21
ATOM     21  O   UNL     1       7.261   7.884  16.960  0.00  0.00    +0.000 OA
ATOM     22  C   UNL     1       7.805   9.052  17.558  0.00  0.00    +0.000 C 
ENDBRANCH   6  21
BRANCH   1  23
ATOM     23  C   UNL     1       3.693   3.187  17.744  0.00  0.00    +0.000 C 
BRANCH  23  28
ATOM     24  C   UNL     1       1.823   5.123  20.503  0.00  0.00    +0.000 A 
ATOM     25  C   UNL     1       1.523   4.117  21.418  0.00  0.00    +0.000 A 
ATOM     26  C   UNL     1       1.901   2.808  21.153  0.00  0.00    +0.000 A 
ATOM     27  C   UNL     1       2.586   2.503  19.974  0.00  0.00    +0.000 A 
ATOM     28  C   UNL     1       2.877   3.486  19.008  0.00  0.00    +0.000 A 
ATOM     29  C   UNL     1       2.505   4.815  19.312  0.00  0.00    +0.000 A 
BRANCH  24  31
ATOM     30  C   UNL     1       1.943   7.454  20.125  0.00  0.00    +0.000 C 
ATOM     31  O   UNL     1       1.465   6.377  20.917  0.00  0.00    +0.000 OA
ENDBRANCH  24  31
ENDBRANCH  23  28
ENDBRANCH   1  23
TORSDOF 6
ENDMDL
MODEL 9
REMARK VINA RESULT:      -7.0      1.301      1.679
REMARK  Name = 
REMARK  8 active torsions:
REMARK  status: ('A' for Active; 'I' for Inactive)
REMARK    1  A    between atoms: C_1  and  O_2
REMARK    2  A    between atoms: O_2  and  C_3
REMARK    3  A    between atoms: C_7  and  C_8
REMARK    4  A    between atoms: C_8  and  N_9
REMARK    5  A    between atoms: N_12  and  S_13
REMARK    6  A    between atoms: S_13  and  C_16
REMARK    7  A    between atoms: C_23  and  O_24
REMARK    8  A    between atoms: O_24  and  C_25
REMARK                            x       y       z     vdW  Elec       q    Type
REMARK                         _______ _______ _______ _____ _____    ______ ____
ROOT
ATOM      1  N   UNL     1       2.088   8.742  18.251  0.00  0.00    +0.000 N 
ATOM      2  N   UNL     1       1.884   9.909  17.596  0.00  0.00    +0.000 NA
ATOM      3  C   UNL     1       0.950  10.516  18.307  0.00  0.00    +0.000 A 
ATOM      4  N   UNL     1       0.686  11.876  18.152  0.00  0.00    +0.000 N 
ATOM      5  C   UNL     1       0.541   9.758  19.425  0.00  0.00    +0.000 A 
ATOM      6  C   UNL     1      -0.385  10.009  20.457  0.00  0.00    +0.000 A 
ATOM      7  C   UNL     1      -0.156   9.374  21.676  0.00  0.00    +0.000 A 
ATOM      8  C   UNL     1       0.954   8.529  21.834  0.00  0.00    +0.000 A 
ATOM      9  C   UNL     1       1.793   8.168  20.759  0.00  0.00    +0.000 A 
ATOM     10  C   UNL     1       1.532   8.779  19.523  0.00  0.00    +0.000 A 
ATOM     11  H   UNL     1      -0.180  12.142  18.621  0.00  0.00    +0.000 HD
ENDROOT
BRANCH   4  12
ATOM     12  S   UNL     1       1.904  12.849  18.863  0.00  0.00    +0.000 S 
ATOM     13  O   UNL     1       1.930  12.554  20.269  0.00  0.00    +0.000 OA
ATOM     14  O   UNL     1       3.115  12.723  18.072  0.00  0.00    +0.000 OA
BRANCH  12  15
ATOM     15  C   UNL     1       1.456  14.572  18.739  0.00  0.00    +0.000 A 
ATOM     16  C   UNL     1       2.198  15.719  18.521  0.00  0.00    +0.000 A 
ATOM     17  C   UNL     1       1.379  16.890  18.463  0.00  0.00    +0.000 A 
ATOM     18  C   UNL     1       0.058  16.569  18.636  0.00  0.00    +0.000 A 
ATOM     19 CL   UNL     1      -1.272  17.656  18.616  0.00  0.00    +0.000 Cl
ATOM     20  S   UNL     1      -0.215  14.922  18.895  0.00  0.00    +0.000 S 
ENDBRANCH  12  15
ENDBRANCH   4  12
BRANCH   6  21
ATOM     21  O   UNL     1      -1.370  10.907  20.168  0.00  0.00    +0.000 OA
ATOM     22  C   UNL     1      -1.560  12.011  21.042  0.00  0.00    +0.000 C 
ENDBRANCH   6  21
BRANCH   1  23
ATOM     23  C   UNL     1       3.018   7.790  17.631  0.00  0.00    +0.000 C 
BRANCH  23  28
ATOM     24  C   UNL     1       1.942   4.357  19.014  0.00  0.00    +0.000 A 
ATOM     25  C   UNL     1       3.092   3.932  19.675  0.00  0.00    +0.000 A 
ATOM     26  C   UNL     1       4.226   4.731  19.670  0.00  0.00    +0.000 A 
ATOM     27  C   UNL     1       4.212   5.961  19.008  0.00  0.00    +0.000 A 
ATOM     28  C   UNL     1       3.080   6.411  18.299  0.00  0.00    +0.000 A 
ATOM     29  C   UNL     1       1.930   5.592  18.342  0.00  0.00    +0.000 A 
BRANCH  24  31
ATOM     30  C   UNL     1       1.038   2.205  18.640  0.00  0.00    +0.000 C 
ATOM     31  O   UNL     1       0.873   3.516  19.160  0.00  0.00    +0.000 OA
ENDBRANCH  24  31
ENDBRANCH  23  28
ENDBRANCH   1  23
TORSDOF 6
ENDMDL
