MODEL 1
REMARK VINA RESULT:      -8.1      0.000      0.000
REMARK  Name = 
REMARK  8 active torsions:
REMARK  status: ('A' for Active; 'I' for Inactive)
REMARK    1  A    between atoms: C_1  and  C_2
REMARK    2  A    between atoms: C_7  and  C_8
REMARK    3  A    between atoms: C_8  and  C_9
REMARK    4  A    between atoms: C_9  and  N_10
REMARK    5  A    between atoms: C_11  and  C_13
REMARK    6  A    between atoms: C_14  and  C_15
REMARK    7  A    between atoms: C_17  and  C_18
REMARK    8  A    between atoms: N_19  and  C_20
REMARK                            x       y       z     vdW  Elec       q    Type
REMARK                         _______ _______ _______ _____ _____    ______ ____
ROOT
ATOM      1  N   UNL     1       4.143   5.498  17.383  0.00  0.00    +0.000 N 
ATOM      2  C   UNL     1       2.881   5.369  17.903  0.00  0.00    +0.000 C 
ATOM      3  O   UNL     1       2.198   4.378  17.657  0.00  0.00    +0.000 OA
ATOM      4  H   UNL     1       4.573   6.421  17.409  0.00  0.00    +0.000 HD
ENDROOT
BRANCH   2   5
ATOM      5  C   UNL     1       2.390   6.497  18.753  0.00  0.00    +0.000 A 
ATOM      6  C   UNL     1       2.050   6.270  20.042  0.00  0.00    +0.000 A 
ATOM      7  C   UNL     1       2.158   4.965  20.788  0.00  0.00    +0.000 C 
ATOM      8  C   UNL     1       1.531   7.359  20.849  0.00  0.00    +0.000 A 
ATOM      9  C   UNL     1       1.367   8.597  20.362  0.00  0.00    +0.000 A 
ATOM     10  C   UNL     1       0.815   9.686  21.241  0.00  0.00    +0.000 C 
ATOM     11  N   UNL     1       1.721   8.866  19.039  0.00  0.00    +0.000 N 
ATOM     12  C   UNL     1       1.556  10.185  18.448  0.00  0.00    +0.000 C 
ATOM     13  C   UNL     1       2.260   7.883  18.204  0.00  0.00    +0.000 A 
ATOM     14  O   UNL     1       2.630   8.122  17.040  0.00  0.00    +0.000 OA
ENDBRANCH   2   5
BRANCH   1  15
ATOM     15  C   UNL     1       4.705   4.432  16.583  0.00  0.00    +0.000 C 
BRANCH  15  16
ATOM     16  C   UNL     1       6.211   4.528  16.381  0.00  0.00    +0.000 C 
BRANCH  16  23
ATOM     17  C   UNL     1       5.552   2.854  11.862  0.00  0.00    +0.000 C 
ATOM     18  C   UNL     1       6.344   3.754  12.770  0.00  0.00    +0.000 A 
ATOM     19  C   UNL     1       7.338   4.525  12.304  0.00  0.00    +0.000 A 
ATOM     20  C   UNL     1       8.046   5.392  13.253  0.00  0.00    +0.000 A 
ATOM     21  O   UNL     1       8.966   6.112  12.905  0.00  0.00    +0.000 OA
ATOM     22  N   UNL     1       7.595   5.331  14.540  0.00  0.00    +0.000 N 
ATOM     23  C   UNL     1       6.577   4.501  14.915  0.00  0.00    +0.000 A 
ATOM     24  N   UNL     1       5.956   3.722  14.089  0.00  0.00    +0.000 NA
ATOM     25  H   UNL     1       8.068   5.930  15.201  0.00  0.00    +0.000 HD
ENDBRANCH  16  23
ENDBRANCH  15  16
ENDBRANCH   1  15
TORSDOF 4
ENDMDL
MODEL 2
REMARK VINA RESULT:      -8.0      2.576      3.659
REMARK  Name = 
REMARK  8 active torsions:
REMARK  status: ('A' for Active; 'I' for Inactive)
REMARK    1  A    between atoms: C_1  and  C_2
REMARK    2  A    between atoms: C_7  and  C_8
REMARK    3  A    between atoms: C_8  and  C_9
REMARK    4  A    between atoms: C_9  and  N_10
REMARK    5  A    between atoms: C_11  and  C_13
REMARK    6  A    between atoms: C_14  and  C_15
REMARK    7  A    between atoms: C_17  and  C_18
REMARK    8  A    between atoms: N_19  and  C_20
REMARK                            x       y       z     vdW  Elec       q    Type
REMARK                         _______ _______ _______ _____ _____    ______ ____
ROOT
ATOM      1  N   UNL     1       4.143   5.486  17.502  0.00  0.00    +0.000 N 
ATOM      2  C   UNL     1       2.836   5.412  17.908  0.00  0.00    +0.000 C 
ATOM      3  O   UNL     1       2.114   4.489  17.539  0.00  0.00    +0.000 OA
ATOM      4  H   UNL     1       4.628   6.373  17.627  0.00  0.00    +0.000 HD
ENDROOT
BRANCH   2   5
ATOM      5  C   UNL     1       2.348   6.514  18.792  0.00  0.00    +0.000 A 
ATOM      6  C   UNL     1       2.024   6.251  20.079  0.00  0.00    +0.000 A 
ATOM      7  C   UNL     1       2.148   4.928  20.789  0.00  0.00    +0.000 C 
ATOM      8  C   UNL     1       1.508   7.315  20.921  0.00  0.00    +0.000 A 
ATOM      9  C   UNL     1       1.331   8.564  20.467  0.00  0.00    +0.000 A 
ATOM     10  C   UNL     1       0.782   9.626  21.382  0.00  0.00    +0.000 C 
ATOM     11  N   UNL     1       1.668   8.871  19.149  0.00  0.00    +0.000 N 
ATOM     12  C   UNL     1       1.488  10.203  18.594  0.00  0.00    +0.000 C 
ATOM     13  C   UNL     1       2.204   7.913  18.282  0.00  0.00    +0.000 A 
ATOM     14  O   UNL     1       2.559   8.185  17.120  0.00  0.00    +0.000 OA
ENDBRANCH   2   5
BRANCH   1  15
ATOM     15  C   UNL     1       4.703   4.437  16.677  0.00  0.00    +0.000 C 
BRANCH  15  16
ATOM     16  C   UNL     1       6.144   4.677  16.250  0.00  0.00    +0.000 C 
BRANCH  16  23
ATOM     17  C   UNL     1       8.052   8.976  17.488  0.00  0.00    +0.000 C 
ATOM     18  C   UNL     1       7.807   7.546  17.882  0.00  0.00    +0.000 A 
ATOM     19  C   UNL     1       8.206   7.065  19.069  0.00  0.00    +0.000 A 
ATOM     20  C   UNL     1       7.907   5.663  19.384  0.00  0.00    +0.000 A 
ATOM     21  O   UNL     1       8.246   5.154  20.439  0.00  0.00    +0.000 OA
ATOM     22  N   UNL     1       7.224   4.985  18.416  0.00  0.00    +0.000 N 
ATOM     23  C   UNL     1       6.872   5.567  17.232  0.00  0.00    +0.000 A 
ATOM     24  N   UNL     1       7.143   6.798  16.938  0.00  0.00    +0.000 NA
ATOM     25  H   UNL     1       7.004   4.022  18.625  0.00  0.00    +0.000 HD
ENDBRANCH  16  23
ENDBRANCH  15  16
ENDBRANCH   1  15
TORSDOF 4
ENDMDL
MODEL 3
REMARK VINA RESULT:      -7.7      2.353      3.400
REMARK  Name = 
REMARK  8 active torsions:
REMARK  status: ('A' for Active; 'I' for Inactive)
REMARK    1  A    between atoms: C_1  and  C_2
REMARK    2  A    between atoms: C_7  and  C_8
REMARK    3  A    between atoms: C_8  and  C_9
REMARK    4  A    between atoms: C_9  and  N_10
REMARK    5  A    between atoms: C_11  and  C_13
REMARK    6  A    between atoms: C_14  and  C_15
REMARK    7  A    between atoms: C_17  and  C_18
REMARK    8  A    between atoms: N_19  and  C_20
REMARK                            x       y       z     vdW  Elec       q    Type
REMARK                         _______ _______ _______ _____ _____    ______ ____
ROOT
ATOM      1  N   UNL     1       2.614   4.737  19.196  0.00  0.00    +0.000 N 
ATOM      2  C   UNL     1       3.316   5.891  19.428  0.00  0.00    +0.000 C 
ATOM      3  O   UNL     1       4.486   5.850  19.802  0.00  0.00    +0.000 OA
ATOM      4  H   UNL     1       1.600   4.806  19.124  0.00  0.00    +0.000 HD
ENDROOT
BRANCH   2   5
ATOM      5  C   UNL     1       2.579   7.174  19.223  0.00  0.00    +0.000 A 
ATOM      6  C   UNL     1       2.785   7.897  18.098  0.00  0.00    +0.000 A 
ATOM      7  C   UNL     1       3.673   7.527  16.938  0.00  0.00    +0.000 C 
ATOM      8  C   UNL     1       2.101   9.165  17.924  0.00  0.00    +0.000 A 
ATOM      9  C   UNL     1       1.265   9.660  18.849  0.00  0.00    +0.000 A 
ATOM     10  C   UNL     1       0.589  10.985  18.620  0.00  0.00    +0.000 C 
ATOM     11  N   UNL     1       1.020   8.932  20.013  0.00  0.00    +0.000 N 
ATOM     12  C   UNL     1       0.134   9.420  21.059  0.00  0.00    +0.000 C 
ATOM     13  C   UNL     1       1.611   7.686  20.244  0.00  0.00    +0.000 A 
ATOM     14  O   UNL     1       1.361   7.002  21.253  0.00  0.00    +0.000 OA
ENDBRANCH   2   5
BRANCH   1  15
ATOM     15  C   UNL     1       3.268   3.453  19.334  0.00  0.00    +0.000 C 
BRANCH  15  16
ATOM     16  C   UNL     1       3.707   2.829  18.017  0.00  0.00    +0.000 C 
BRANCH  16  23
ATOM     17  C   UNL     1       6.008   4.862  14.244  0.00  0.00    +0.000 C 
ATOM     18  C   UNL     1       6.050   4.513  15.706  0.00  0.00    +0.000 A 
ATOM     19  C   UNL     1       7.096   4.841  16.479  0.00  0.00    +0.000 A 
ATOM     20  C   UNL     1       7.046   4.484  17.902  0.00  0.00    +0.000 A 
ATOM     21  O   UNL     1       7.964   4.741  18.662  0.00  0.00    +0.000 OA
ATOM     22  N   UNL     1       5.903   3.853  18.300  0.00  0.00    +0.000 N 
ATOM     23  C   UNL     1       4.895   3.555  17.428  0.00  0.00    +0.000 A 
ATOM     24  N   UNL     1       4.936   3.852  16.168  0.00  0.00    +0.000 NA
ATOM     25  H   UNL     1       5.853   3.611  19.279  0.00  0.00    +0.000 HD
ENDBRANCH  16  23
ENDBRANCH  15  16
ENDBRANCH   1  15
TORSDOF 4
ENDMDL
MODEL 4
REMARK VINA RESULT:      -7.5      4.880      6.725
REMARK  Name = 
REMARK  8 active torsions:
REMARK  status: ('A' for Active; 'I' for Inactive)
REMARK    1  A    between atoms: C_1  and  C_2
REMARK    2  A    between atoms: C_7  and  C_8
REMARK    3  A    between atoms: C_8  and  C_9
REMARK    4  A    between atoms: C_9  and  N_10
REMARK    5  A    between atoms: C_11  and  C_13
REMARK    6  A    between atoms: C_14  and  C_15
REMARK    7  A    between atoms: C_17  and  C_18
REMARK    8  A    between atoms: N_19  and  C_20
REMARK                            x       y       z     vdW  Elec       q    Type
REMARK                         _______ _______ _______ _____ _____    ______ ____
ROOT
ATOM      1  N   UNL     1       6.270   7.198  17.783  0.00  0.00    +0.000 N 
ATOM      2  C   UNL     1       5.449   6.610  16.856  0.00  0.00    +0.000 C 
ATOM      3  O   UNL     1       5.621   6.799  15.654  0.00  0.00    +0.000 OA
ATOM      4  H   UNL     1       5.954   7.213  18.752  0.00  0.00    +0.000 HD
ENDROOT
BRANCH   2   5
ATOM      5  C   UNL     1       4.341   5.759  17.388  0.00  0.00    +0.000 A 
ATOM      6  C   UNL     1       3.222   6.340  17.878  0.00  0.00    +0.000 A 
ATOM      7  C   UNL     1       2.911   7.814  17.909  0.00  0.00    +0.000 C 
ATOM      8  C   UNL     1       2.169   5.512  18.435  0.00  0.00    +0.000 A 
ATOM      9  C   UNL     1       2.263   4.176  18.491  0.00  0.00    +0.000 A 
ATOM     10  C   UNL     1       1.144   3.366  19.089  0.00  0.00    +0.000 C 
ATOM     11  N   UNL     1       3.398   3.545  17.982  0.00  0.00    +0.000 N 
ATOM     12  C   UNL     1       3.565   2.101  18.024  0.00  0.00    +0.000 C 
ATOM     13  C   UNL     1       4.444   4.266  17.396  0.00  0.00    +0.000 A 
ATOM     14  O   UNL     1       5.437   3.714  16.890  0.00  0.00    +0.000 OA
ENDBRANCH   2   5
BRANCH   1  15
ATOM     15  C   UNL     1       7.389   8.004  17.347  0.00  0.00    +0.000 C 
BRANCH  15  16
ATOM     16  C   UNL     1       8.440   8.249  18.421  0.00  0.00    +0.000 C 
BRANCH  16  23
ATOM     17  C   UNL     1      10.625  11.917  20.751  0.00  0.00    +0.000 C 
ATOM     18  C   UNL     1       9.700  11.503  19.641  0.00  0.00    +0.000 A 
ATOM     19  C   UNL     1       9.148  12.401  18.813  0.00  0.00    +0.000 A 
ATOM     20  C   UNL     1       8.274  11.911  17.740  0.00  0.00    +0.000 A 
ATOM     21  O   UNL     1       7.729  12.669  16.956  0.00  0.00    +0.000 OA
ATOM     22  N   UNL     1       8.125  10.555  17.690  0.00  0.00    +0.000 N 
ATOM     23  C   UNL     1       8.726   9.724  18.592  0.00  0.00    +0.000 A 
ATOM     24  N   UNL     1       9.486  10.147  19.550  0.00  0.00    +0.000 NA
ATOM     25  H   UNL     1       7.533  10.205  16.951  0.00  0.00    +0.000 HD
ENDBRANCH  16  23
ENDBRANCH  15  16
ENDBRANCH   1  15
TORSDOF 4
ENDMDL
MODEL 5
REMARK VINA RESULT:      -7.4      7.357      8.548
REMARK  Name = 
REMARK  8 active torsions:
REMARK  status: ('A' for Active; 'I' for Inactive)
REMARK    1  A    between atoms: C_1  and  C_2
REMARK    2  A    between atoms: C_7  and  C_8
REMARK    3  A    between atoms: C_8  and  C_9
REMARK    4  A    between atoms: C_9  and  N_10
REMARK    5  A    between atoms: C_11  and  C_13
REMARK    6  A    between atoms: C_14  and  C_15
REMARK    7  A    between atoms: C_17  and  C_18
REMARK    8  A    between atoms: N_19  and  C_20
REMARK                            x       y       z     vdW  Elec       q    Type
REMARK                         _______ _______ _______ _____ _____    ______ ____
ROOT
ATOM      1  N   UNL     1       8.990  11.022  18.987  0.00  0.00    +0.000 N 
ATOM      2  C   UNL     1       9.886  11.838  18.345  0.00  0.00    +0.000 C 
ATOM      3  O   UNL     1      10.745  11.367  17.603  0.00  0.00    +0.000 OA
ATOM      4  H   UNL     1       8.463  11.418  19.763  0.00  0.00    +0.000 HD
ENDROOT
BRANCH   2   5
ATOM      5  C   UNL     1       9.769  13.303  18.615  0.00  0.00    +0.000 A 
ATOM      6  C   UNL     1      10.783  13.958  19.225  0.00  0.00    +0.000 A 
ATOM      7  C   UNL     1      12.110  13.379  19.643  0.00  0.00    +0.000 C 
ATOM      8  C   UNL     1      10.645  15.371  19.527  0.00  0.00    +0.000 A 
ATOM      9  C   UNL     1       9.537  16.063  19.226  0.00  0.00    +0.000 A 
ATOM     10  C   UNL     1       9.444  17.525  19.571  0.00  0.00    +0.000 C 
ATOM     11  N   UNL     1       8.479  15.419  18.585  0.00  0.00    +0.000 N 
ATOM     12  C   UNL     1       7.245  16.110  18.243  0.00  0.00    +0.000 C 
ATOM     13  C   UNL     1       8.542  14.068  18.227  0.00  0.00    +0.000 A 
ATOM     14  O   UNL     1       7.629  13.495  17.607  0.00  0.00    +0.000 OA
ENDBRANCH   2   5
BRANCH   1  15
ATOM     15  C   UNL     1       9.013   9.595  18.747  0.00  0.00    +0.000 C 
BRANCH  15  16
ATOM     16  C   UNL     1       8.023   9.122  17.693  0.00  0.00    +0.000 C 
BRANCH  16  23
ATOM     17  C   UNL     1       6.877   4.885  15.595  0.00  0.00    +0.000 C 
ATOM     18  C   UNL     1       7.269   5.601  16.859  0.00  0.00    +0.000 A 
ATOM     19  C   UNL     1       7.442   4.944  18.015  0.00  0.00    +0.000 A 
ATOM     20  C   UNL     1       7.847   5.714  19.197  0.00  0.00    +0.000 A 
ATOM     21  O   UNL     1       8.014   5.187  20.283  0.00  0.00    +0.000 OA
ATOM     22  N   UNL     1       8.024   7.051  18.982  0.00  0.00    +0.000 N 
ATOM     23  C   UNL     1       7.812   7.626  17.762  0.00  0.00    +0.000 A 
ATOM     24  N   UNL     1       7.440   6.958  16.718  0.00  0.00    +0.000 NA
ATOM     25  H   UNL     1       8.312   7.591  19.786  0.00  0.00    +0.000 HD
ENDBRANCH  16  23
ENDBRANCH  15  16
ENDBRANCH   1  15
TORSDOF 4
ENDMDL
MODEL 6
REMARK VINA RESULT:      -7.4      3.421      4.518
REMARK  Name = 
REMARK  8 active torsions:
REMARK  status: ('A' for Active; 'I' for Inactive)
REMARK    1  A    between atoms: C_1  and  C_2
REMARK    2  A    between atoms: C_7  and  C_8
REMARK    3  A    between atoms: C_8  and  C_9
REMARK    4  A    between atoms: C_9  and  N_10
REMARK    5  A    between atoms: C_11  and  C_13
REMARK    6  A    between atoms: C_14  and  C_15
REMARK    7  A    between atoms: C_17  and  C_18
REMARK    8  A    between atoms: N_19  and  C_20
REMARK                            x       y       z     vdW  Elec       q    Type
REMARK                         _______ _______ _______ _____ _____    ______ ____
ROOT
ATOM      1  N   UNL     1       3.909   6.797  17.840  0.00  0.00    +0.000 N 
ATOM      2  C   UNL     1       2.556   6.741  18.052  0.00  0.00    +0.000 C 
ATOM      3  O   UNL     1       1.860   5.923  17.456  0.00  0.00    +0.000 OA
ATOM      4  H   UNL     1       4.404   7.628  18.160  0.00  0.00    +0.000 HD
ENDROOT
BRANCH   2   5
ATOM      5  C   UNL     1       1.989   7.731  19.017  0.00  0.00    +0.000 A 
ATOM      6  C   UNL     1       1.667   7.340  20.271  0.00  0.00    +0.000 A 
ATOM      7  C   UNL     1       1.865   5.971  20.869  0.00  0.00    +0.000 C 
ATOM      8  C   UNL     1       1.075   8.294  21.191  0.00  0.00    +0.000 A 
ATOM      9  C   UNL     1       0.826   9.565  20.842  0.00  0.00    +0.000 A 
ATOM     10  C   UNL     1       0.201  10.509  21.833  0.00  0.00    +0.000 C 
ATOM     11  N   UNL     1       1.160  10.003  19.560  0.00  0.00    +0.000 N 
ATOM     12  C   UNL     1       0.904  11.365  19.117  0.00  0.00    +0.000 C 
ATOM     13  C   UNL     1       1.765   9.158  18.624  0.00  0.00    +0.000 A 
ATOM     14  O   UNL     1       2.117   9.549  17.497  0.00  0.00    +0.000 OA
ENDBRANCH   2   5
BRANCH   1  15
ATOM     15  C   UNL     1       4.540   5.846  16.949  0.00  0.00    +0.000 C 
BRANCH  15  16
ATOM     16  C   UNL     1       5.427   4.827  17.649  0.00  0.00    +0.000 C 
BRANCH  16  23
ATOM     17  C   UNL     1       1.246   2.495  18.508  0.00  0.00    +0.000 C 
ATOM     18  C   UNL     1       2.681   2.696  18.907  0.00  0.00    +0.000 A 
ATOM     19  C   UNL     1       3.236   2.004  19.913  0.00  0.00    +0.000 A 
ATOM     20  C   UNL     1       4.650   2.244  20.223  0.00  0.00    +0.000 A 
ATOM     21  O   UNL     1       5.219   1.658  21.129  0.00  0.00    +0.000 OA
ATOM     22  N   UNL     1       5.270   3.160  19.424  0.00  0.00    +0.000 N 
ATOM     23  C   UNL     1       4.609   3.822  18.428  0.00  0.00    +0.000 A 
ATOM     24  N   UNL     1       3.359   3.628  18.156  0.00  0.00    +0.000 NA
ATOM     25  H   UNL     1       6.246   3.328  19.621  0.00  0.00    +0.000 HD
ENDBRANCH  16  23
ENDBRANCH  15  16
ENDBRANCH   1  15
TORSDOF 4
ENDMDL
MODEL 7
REMARK VINA RESULT:      -7.3      2.000      2.655
REMARK  Name = 
REMARK  8 active torsions:
REMARK  status: ('A' for Active; 'I' for Inactive)
REMARK    1  A    between atoms: C_1  and  C_2
REMARK    2  A    between atoms: C_7  and  C_8
REMARK    3  A    between atoms: C_8  and  C_9
REMARK    4  A    between atoms: C_9  and  N_10
REMARK    5  A    between atoms: C_11  and  C_13
REMARK    6  A    between atoms: C_14  and  C_15
REMARK    7  A    between atoms: C_17  and  C_18
REMARK    8  A    between atoms: N_19  and  C_20
REMARK                            x       y       z     vdW  Elec       q    Type
REMARK                         _______ _______ _______ _____ _____    ______ ____
ROOT
ATOM      1  N   UNL     1       2.072   5.019  18.043  0.00  0.00    +0.000 N 
ATOM      2  C   UNL     1       2.724   6.223  18.097  0.00  0.00    +0.000 C 
ATOM      3  O   UNL     1       3.753   6.411  17.452  0.00  0.00    +0.000 OA
ATOM      4  H   UNL     1       1.376   4.825  18.762  0.00  0.00    +0.000 HD
ENDROOT
BRANCH   2   5
ATOM      5  C   UNL     1       2.129   7.265  18.988  0.00  0.00    +0.000 A 
ATOM      6  C   UNL     1       1.823   6.960  20.270  0.00  0.00    +0.000 A 
ATOM      7  C   UNL     1       2.066   5.646  20.967  0.00  0.00    +0.000 C 
ATOM      8  C   UNL     1       1.204   7.961  21.118  0.00  0.00    +0.000 A 
ATOM      9  C   UNL     1       0.914   9.194  20.676  0.00  0.00    +0.000 A 
ATOM     10  C   UNL     1       0.262  10.190  21.597  0.00  0.00    +0.000 C 
ATOM     11  N   UNL     1       1.230   9.544  19.363  0.00  0.00    +0.000 N 
ATOM     12  C   UNL     1       0.929  10.860  18.821  0.00  0.00    +0.000 C 
ATOM     13  C   UNL     1       1.858   8.651  18.490  0.00  0.00    +0.000 A 
ATOM     14  O   UNL     1       2.194   8.967  17.335  0.00  0.00    +0.000 OA
ENDBRANCH   2   5
BRANCH   1  15
ATOM     15  C   UNL     1       2.562   3.972  17.173  0.00  0.00    +0.000 C 
BRANCH  15  16
ATOM     16  C   UNL     1       3.733   3.182  17.741  0.00  0.00    +0.000 C 
BRANCH  16  23
ATOM     17  C   UNL     1       6.758   4.487  14.163  0.00  0.00    +0.000 C 
ATOM     18  C   UNL     1       6.543   4.353  15.645  0.00  0.00    +0.000 A 
ATOM     19  C   UNL     1       7.483   4.720  16.529  0.00  0.00    +0.000 A 
ATOM     20  C   UNL     1       7.183   4.579  17.959  0.00  0.00    +0.000 A 
ATOM     21  O   UNL     1       7.992   4.883  18.819  0.00  0.00    +0.000 OA
ATOM     22  N   UNL     1       5.941   4.090  18.244  0.00  0.00    +0.000 N 
ATOM     23  C   UNL     1       5.057   3.734  17.265  0.00  0.00    +0.000 A 
ATOM     24  N   UNL     1       5.317   3.841  16.001  0.00  0.00    +0.000 NA
ATOM     25  H   UNL     1       5.719   3.996  19.224  0.00  0.00    +0.000 HD
ENDBRANCH  16  23
ENDBRANCH  15  16
ENDBRANCH   1  15
TORSDOF 4
ENDMDL
MODEL 8
REMARK VINA RESULT:      -7.3      4.895      6.832
REMARK  Name = 
REMARK  8 active torsions:
REMARK  status: ('A' for Active; 'I' for Inactive)
REMARK    1  A    between atoms: C_1  and  C_2
REMARK    2  A    between atoms: C_7  and  C_8
REMARK    3  A    between atoms: C_8  and  C_9
REMARK    4  A    between atoms: C_9  and  N_10
REMARK    5  A    between atoms: C_11  and  C_13
REMARK    6  A    between atoms: C_14  and  C_15
REMARK    7  A    between atoms: C_17  and  C_18
REMARK    8  A    between atoms: N_19  and  C_20
REMARK                            x       y       z     vdW  Elec       q    Type
REMARK                         _______ _______ _______ _____ _____    ______ ____
ROOT
ATOM      1  N   UNL     1       6.490   6.974  17.724  0.00  0.00    +0.000 N 
ATOM      2  C   UNL     1       5.607   6.515  16.781  0.00  0.00    +0.000 C 
ATOM      3  O   UNL     1       5.556   7.029  15.666  0.00  0.00    +0.000 OA
ATOM      4  H   UNL     1       6.338   6.691  18.691  0.00  0.00    +0.000 HD
ENDROOT
BRANCH   2   5
ATOM      5  C   UNL     1       4.714   5.390  17.193  0.00  0.00    +0.000 A 
ATOM      6  C   UNL     1       4.857   4.173  16.621  0.00  0.00    +0.000 A 
ATOM      7  C   UNL     1       5.893   3.770  15.603  0.00  0.00    +0.000 C 
ATOM      8  C   UNL     1       3.959   3.095  16.992  0.00  0.00    +0.000 A 
ATOM      9  C   UNL     1       2.974   3.260  17.887  0.00  0.00    +0.000 A 
ATOM     10  C   UNL     1       2.064   2.111  18.226  0.00  0.00    +0.000 C 
ATOM     11  N   UNL     1       2.808   4.500  18.505  0.00  0.00    +0.000 N 
ATOM     12  C   UNL     1       1.752   4.746  19.474  0.00  0.00    +0.000 C 
ATOM     13  C   UNL     1       3.652   5.581  18.231  0.00  0.00    +0.000 A 
ATOM     14  O   UNL     1       3.550   6.676  18.813  0.00  0.00    +0.000 OA
ENDBRANCH   2   5
BRANCH   1  15
ATOM     15  C   UNL     1       7.416   8.034  17.390  0.00  0.00    +0.000 C 
BRANCH  15  16
ATOM     16  C   UNL     1       8.468   8.306  18.456  0.00  0.00    +0.000 C 
BRANCH  16  23
ATOM     17  C   UNL     1      10.877  12.006  20.496  0.00  0.00    +0.000 C 
ATOM     18  C   UNL     1       9.857  11.575  19.479  0.00  0.00    +0.000 A 
ATOM     19  C   UNL     1       9.245  12.459  18.678  0.00  0.00    +0.000 A 
ATOM     20  C   UNL     1       8.278  11.952  17.697  0.00  0.00    +0.000 A 
ATOM     21  O   UNL     1       7.676  12.696  16.942  0.00  0.00    +0.000 OA
ATOM     22  N   UNL     1       8.113  10.597  17.695  0.00  0.00    +0.000 N 
ATOM     23  C   UNL     1       8.780   9.781  18.564  0.00  0.00    +0.000 A 
ATOM     24  N   UNL     1       9.624  10.220  19.443  0.00  0.00    +0.000 NA
ATOM     25  H   UNL     1       7.457  10.234  17.018  0.00  0.00    +0.000 HD
ENDBRANCH  16  23
ENDBRANCH  15  16
ENDBRANCH   1  15
TORSDOF 4
ENDMDL
MODEL 9
REMARK VINA RESULT:      -7.3      1.083      1.751
REMARK  Name = 
REMARK  8 active torsions:
REMARK  status: ('A' for Active; 'I' for Inactive)
REMARK    1  A    between atoms: C_1  and  C_2
REMARK    2  A    between atoms: C_7  and  C_8
REMARK    3  A    between atoms: C_8  and  C_9
REMARK    4  A    between atoms: C_9  and  N_10
REMARK    5  A    between atoms: C_11  and  C_13
REMARK    6  A    between atoms: C_14  and  C_15
REMARK    7  A    between atoms: C_17  and  C_18
REMARK    8  A    between atoms: N_19  and  C_20
REMARK                            x       y       z     vdW  Elec       q    Type
REMARK                         _______ _______ _______ _____ _____    ______ ____
ROOT
ATOM      1  N   UNL     1       4.126   5.373  17.196  0.00  0.00    +0.000 N 
ATOM      2  C   UNL     1       2.997   5.154  17.943  0.00  0.00    +0.000 C 
ATOM      3  O   UNL     1       2.439   4.059  17.932  0.00  0.00    +0.000 OA
ATOM      4  H   UNL     1       4.412   6.339  17.045  0.00  0.00    +0.000 HD
ENDROOT
BRANCH   2   5
ATOM      5  C   UNL     1       2.487   6.312  18.738  0.00  0.00    +0.000 A 
ATOM      6  C   UNL     1       2.088   6.126  20.017  0.00  0.00    +0.000 A 
ATOM      7  C   UNL     1       2.144   4.842  20.803  0.00  0.00    +0.000 C 
ATOM      8  C   UNL     1       1.551   7.245  20.770  0.00  0.00    +0.000 A 
ATOM      9  C   UNL     1       1.427   8.470  20.241  0.00  0.00    +0.000 A 
ATOM     10  C   UNL     1       0.853   9.592  21.065  0.00  0.00    +0.000 C 
ATOM     11  N   UNL     1       1.841   8.697  18.929  0.00  0.00    +0.000 N 
ATOM     12  C   UNL     1       1.721  10.001  18.294  0.00  0.00    +0.000 C 
ATOM     13  C   UNL     1       2.402   7.684  18.145  0.00  0.00    +0.000 A 
ATOM     14  O   UNL     1       2.825   7.884  16.993  0.00  0.00    +0.000 OA
ENDBRANCH   2   5
BRANCH   1  15
ATOM     15  C   UNL     1       4.705   4.291  16.429  0.00  0.00    +0.000 C 
BRANCH  15  16
ATOM     16  C   UNL     1       6.216   4.378  16.267  0.00  0.00    +0.000 C 
BRANCH  16  23
ATOM     17  C   UNL     1       8.893   6.170  12.623  0.00  0.00    +0.000 C 
ATOM     18  C   UNL     1       7.821   5.202  13.041  0.00  0.00    +0.000 A 
ATOM     19  C   UNL     1       7.238   4.374  12.162  0.00  0.00    +0.000 A 
ATOM     20  C   UNL     1       6.216   3.445  12.657  0.00  0.00    +0.000 A 
ATOM     21  O   UNL     1       5.637   2.670  11.915  0.00  0.00    +0.000 OA
ATOM     22  N   UNL     1       5.972   3.514  13.998  0.00  0.00    +0.000 N 
ATOM     23  C   UNL     1       6.616   4.405  14.809  0.00  0.00    +0.000 A 
ATOM     24  N   UNL     1       7.509   5.239  14.380  0.00  0.00    +0.000 NA
ATOM     25  H   UNL     1       5.278   2.873  14.353  0.00  0.00    +0.000 HD
ENDBRANCH  16  23
ENDBRANCH  15  16
ENDBRANCH   1  15
TORSDOF 4
ENDMDL
