MODEL 1
REMARK VINA RESULT:      -8.6      0.000      0.000
REMARK  Name = 
REMARK  8 active torsions:
REMARK  status: ('A' for Active; 'I' for Inactive)
REMARK    1  A    between atoms: C_1  and  C_2
REMARK    2  A    between atoms: C_5  and  C_6
REMARK    3  A    between atoms: C_6  and  C_7
REMARK    4  A    between atoms: C_7  and  N_8
REMARK    5  A    between atoms: C_9  and  C_11
REMARK    6  A    between atoms: C_14  and  C_15
REMARK    7  A    between atoms: C_15  and  S_16
REMARK    8  A    between atoms: S_16  and  C_19
REMARK                            x       y       z     vdW  Elec       q    Type
REMARK                         _______ _______ _______ _____ _____    ______ ____
ROOT
ATOM      1  C   UNL     1       6.375   4.880  18.016  0.00  0.00    +0.000 A 
ATOM      2  C   UNL     1       6.040   4.672  16.690  0.00  0.00    +0.000 A 
ATOM      3  C   UNL     1       5.020   3.695  16.670  0.00  0.00    +0.000 A 
ATOM      4  C   UNL     1       4.760   3.373  17.986  0.00  0.00    +0.000 A 
ATOM      5  O   UNL     1       5.600   4.070  18.813  0.00  0.00    +0.000 OA
ENDROOT
BRANCH   1   7
ATOM      6  N   UNL     1       7.417   7.033  18.020  0.00  0.00    +0.000 N 
ATOM      7  C   UNL     1       7.353   5.780  18.599  0.00  0.00    +0.000 C 
ATOM      8  O   UNL     1       8.075   5.465  19.542  0.00  0.00    +0.000 OA
ATOM      9  H   UNL     1       6.808   7.216  17.232  0.00  0.00    +0.000 HD
BRANCH   6  10
ATOM     10  C   UNL     1       8.376   8.025  18.479  0.00  0.00    +0.000 C 
BRANCH  10  11
ATOM     11  C   UNL     1       8.266   9.349  17.722  0.00  0.00    +0.000 C 
BRANCH  11  16
ATOM     12  C   UNL     1      10.760  13.810  20.541  0.00  0.00    +0.000 C 
ATOM     13  C   UNL     1      10.102  12.661  19.833  0.00  0.00    +0.000 A 
ATOM     14  C   UNL     1      10.064  11.385  20.405  0.00  0.00    +0.000 A 
ATOM     15  C   UNL     1       9.464  10.319  19.728  0.00  0.00    +0.000 A 
ATOM     16  C   UNL     1       8.893  10.507  18.461  0.00  0.00    +0.000 A 
ATOM     17  C   UNL     1       8.918  11.789  17.898  0.00  0.00    +0.000 A 
ATOM     18  C   UNL     1       9.519  12.854  18.576  0.00  0.00    +0.000 A 
ENDBRANCH  11  16
ENDBRANCH  10  11
ENDBRANCH   6  10
ENDBRANCH   1   7
BRANCH   4  19
ATOM     19  C   UNL     1       3.796   2.447  18.635  0.00  0.00    +0.000 C 
BRANCH  19  20
ATOM     20  S   UNL     1       2.133   2.958  18.203  0.00  0.00    +0.000 S 
ATOM     21  O   UNL     1       2.046   3.163  16.768  0.00  0.00    +0.000 OA
ATOM     22  O   UNL     1       1.179   2.110  18.893  0.00  0.00    +0.000 OA
BRANCH  20  23
ATOM     23  C   UNL     1       1.994   4.577  18.946  0.00  0.00    +0.000 A 
ATOM     24  C   UNL     1       1.606   4.691  20.285  0.00  0.00    +0.000 A 
ATOM     25  C   UNL     1       1.533   5.955  20.875  0.00  0.00    +0.000 A 
ATOM     26  C   UNL     1       1.861   7.090  20.131  0.00  0.00    +0.000 A 
ATOM     27 CL   UNL     1       1.757   8.645  20.858  0.00  0.00    +0.000 Cl
ATOM     28  C   UNL     1       2.275   6.970  18.803  0.00  0.00    +0.000 A 
ATOM     29  C   UNL     1       2.350   5.709  18.207  0.00  0.00    +0.000 A 
ENDBRANCH  20  23
ENDBRANCH  19  20
ENDBRANCH   4  19
TORSDOF 7
ENDMDL
MODEL 2
REMARK VINA RESULT:      -8.4      2.538      3.788
REMARK  Name = 
REMARK  8 active torsions:
REMARK  status: ('A' for Active; 'I' for Inactive)
REMARK    1  A    between atoms: C_1  and  C_2
REMARK    2  A    between atoms: C_5  and  C_6
REMARK    3  A    between atoms: C_6  and  C_7
REMARK    4  A    between atoms: C_7  and  N_8
REMARK    5  A    between atoms: C_9  and  C_11
REMARK    6  A    between atoms: C_14  and  C_15
REMARK    7  A    between atoms: C_15  and  S_16
REMARK    8  A    between atoms: S_16  and  C_19
REMARK                            x       y       z     vdW  Elec       q    Type
REMARK                         _______ _______ _______ _____ _____    ______ ____
ROOT
ATOM      1  C   UNL     1       7.962   7.510  18.059  0.00  0.00    +0.000 A 
ATOM      2  C   UNL     1       7.964   6.492  18.996  0.00  0.00    +0.000 A 
ATOM      3  C   UNL     1       7.626   5.302  18.315  0.00  0.00    +0.000 A 
ATOM      4  C   UNL     1       7.462   5.643  16.988  0.00  0.00    +0.000 A 
ATOM      5  O   UNL     1       7.638   6.992  16.827  0.00  0.00    +0.000 OA
ENDROOT
BRANCH   1   7
ATOM      6  N   UNL     1       9.062   9.241  19.290  0.00  0.00    +0.000 N 
ATOM      7  C   UNL     1       8.248   8.924  18.219  0.00  0.00    +0.000 C 
ATOM      8  O   UNL     1       7.808   9.785  17.463  0.00  0.00    +0.000 OA
ATOM      9  H   UNL     1       9.370   8.481  19.885  0.00  0.00    +0.000 HD
BRANCH   6  10
ATOM     10  C   UNL     1       9.403  10.622  19.592  0.00  0.00    +0.000 C 
BRANCH  10  11
ATOM     11  C   UNL     1      10.702  11.070  18.923  0.00  0.00    +0.000 C 
BRANCH  11  16
ATOM     12  C   UNL     1      11.270  16.866  18.534  0.00  0.00    +0.000 C 
ATOM     13  C   UNL     1      11.116  15.378  18.657  0.00  0.00    +0.000 A 
ATOM     14  C   UNL     1      11.896  14.641  19.554  0.00  0.00    +0.000 A 
ATOM     15  C   UNL     1      11.756  13.253  19.646  0.00  0.00    +0.000 A 
ATOM     16  C   UNL     1      10.836  12.572  18.838  0.00  0.00    +0.000 A 
ATOM     17  C   UNL     1      10.044  13.313  17.951  0.00  0.00    +0.000 A 
ATOM     18  C   UNL     1      10.186  14.702  17.860  0.00  0.00    +0.000 A 
ENDBRANCH  11  16
ENDBRANCH  10  11
ENDBRANCH   6  10
ENDBRANCH   1   7
BRANCH   4  19
ATOM     19  C   UNL     1       7.133   4.859  15.769  0.00  0.00    +0.000 C 
BRANCH  19  20
ATOM     20  S   UNL     1       5.449   5.235  15.285  0.00  0.00    +0.000 S 
ATOM     21  O   UNL     1       5.318   6.663  15.054  0.00  0.00    +0.000 OA
ATOM     22  O   UNL     1       5.014   4.277  14.286  0.00  0.00    +0.000 OA
BRANCH  20  23
ATOM     23  C   UNL     1       4.507   4.882  16.762  0.00  0.00    +0.000 A 
ATOM     24  C   UNL     1       3.913   5.933  17.469  0.00  0.00    +0.000 A 
ATOM     25  C   UNL     1       3.147   5.652  18.602  0.00  0.00    +0.000 A 
ATOM     26  C   UNL     1       2.969   4.329  19.012  0.00  0.00    +0.000 A 
ATOM     27 CL   UNL     1       2.035   3.989  20.416  0.00  0.00    +0.000 Cl
ATOM     28  C   UNL     1       3.540   3.282  18.288  0.00  0.00    +0.000 A 
ATOM     29  C   UNL     1       4.308   3.555  17.153  0.00  0.00    +0.000 A 
ENDBRANCH  20  23
ENDBRANCH  19  20
ENDBRANCH   4  19
TORSDOF 7
ENDMDL
MODEL 3
REMARK VINA RESULT:      -8.1      1.277      1.654
REMARK  Name = 
REMARK  8 active torsions:
REMARK  status: ('A' for Active; 'I' for Inactive)
REMARK    1  A    between atoms: C_1  and  C_2
REMARK    2  A    between atoms: C_5  and  C_6
REMARK    3  A    between atoms: C_6  and  C_7
REMARK    4  A    between atoms: C_7  and  N_8
REMARK    5  A    between atoms: C_9  and  C_11
REMARK    6  A    between atoms: C_14  and  C_15
REMARK    7  A    between atoms: C_15  and  S_16
REMARK    8  A    between atoms: S_16  and  C_19
REMARK                            x       y       z     vdW  Elec       q    Type
REMARK                         _______ _______ _______ _____ _____    ______ ____
ROOT
ATOM      1  C   UNL     1       5.878   4.712  17.510  0.00  0.00    +0.000 A 
ATOM      2  C   UNL     1       5.197   3.919  16.603  0.00  0.00    +0.000 A 
ATOM      3  C   UNL     1       4.280   3.140  17.341  0.00  0.00    +0.000 A 
ATOM      4  C   UNL     1       4.422   3.513  18.662  0.00  0.00    +0.000 A 
ATOM      5  O   UNL     1       5.414   4.451  18.778  0.00  0.00    +0.000 OA
ENDROOT
BRANCH   1   7
ATOM      6  N   UNL     1       7.290   6.423  18.404  0.00  0.00    +0.000 N 
ATOM      7  C   UNL     1       6.919   5.698  17.287  0.00  0.00    +0.000 C 
ATOM      8  O   UNL     1       7.443   5.883  16.192  0.00  0.00    +0.000 OA
ATOM      9  H   UNL     1       6.800   6.232  19.269  0.00  0.00    +0.000 HD
BRANCH   6  10
ATOM     10  C   UNL     1       8.297   7.469  18.320  0.00  0.00    +0.000 C 
BRANCH  10  11
ATOM     11  C   UNL     1       7.745   8.775  17.750  0.00  0.00    +0.000 C 
BRANCH  11  16
ATOM     12  C   UNL     1      10.566  13.485  19.733  0.00  0.00    +0.000 C 
ATOM     13  C   UNL     1       9.828  12.273  19.244  0.00  0.00    +0.000 A 
ATOM     14  C   UNL     1       9.931  11.046  19.907  0.00  0.00    +0.000 A 
ATOM     15  C   UNL     1       9.252   9.920  19.430  0.00  0.00    +0.000 A 
ATOM     16  C   UNL     1       8.459   9.998  18.276  0.00  0.00    +0.000 A 
ATOM     17  C   UNL     1       8.345  11.232  17.623  0.00  0.00    +0.000 A 
ATOM     18  C   UNL     1       9.025  12.357  18.101  0.00  0.00    +0.000 A 
ENDBRANCH  11  16
ENDBRANCH  10  11
ENDBRANCH   6  10
ENDBRANCH   1   7
BRANCH   4  19
ATOM     19  C   UNL     1       3.744   3.096  19.916  0.00  0.00    +0.000 C 
BRANCH  19  20
ATOM     20  S   UNL     1       2.018   3.570  19.817  0.00  0.00    +0.000 S 
ATOM     21  O   UNL     1       1.390   2.884  18.702  0.00  0.00    +0.000 OA
ATOM     22  O   UNL     1       1.433   3.523  21.144  0.00  0.00    +0.000 OA
BRANCH  20  23
ATOM     23  C   UNL     1       2.091   5.296  19.362  0.00  0.00    +0.000 A 
ATOM     24  C   UNL     1       2.139   5.652  18.010  0.00  0.00    +0.000 A 
ATOM     25  C   UNL     1       2.159   7.003  17.655  0.00  0.00    +0.000 A 
ATOM     26  C   UNL     1       2.117   7.984  18.648  0.00  0.00    +0.000 A 
ATOM     27 CL   UNL     1       2.154   9.646  18.206  0.00  0.00    +0.000 Cl
ATOM     28  C   UNL     1       2.040   7.625  19.994  0.00  0.00    +0.000 A 
ATOM     29  C   UNL     1       2.020   6.276  20.357  0.00  0.00    +0.000 A 
ENDBRANCH  20  23
ENDBRANCH  19  20
ENDBRANCH   4  19
TORSDOF 7
ENDMDL
MODEL 4
REMARK VINA RESULT:      -8.0      1.865      2.538
REMARK  Name = 
REMARK  8 active torsions:
REMARK  status: ('A' for Active; 'I' for Inactive)
REMARK    1  A    between atoms: C_1  and  C_2
REMARK    2  A    between atoms: C_5  and  C_6
REMARK    3  A    between atoms: C_6  and  C_7
REMARK    4  A    between atoms: C_7  and  N_8
REMARK    5  A    between atoms: C_9  and  C_11
REMARK    6  A    between atoms: C_14  and  C_15
REMARK    7  A    between atoms: C_15  and  S_16
REMARK    8  A    between atoms: S_16  and  C_19
REMARK                            x       y       z     vdW  Elec       q    Type
REMARK                         _______ _______ _______ _____ _____    ______ ____
ROOT
ATOM      1  C   UNL     1       5.757   5.329  16.940  0.00  0.00    +0.000 A 
ATOM      2  C   UNL     1       5.570   4.037  16.480  0.00  0.00    +0.000 A 
ATOM      3  C   UNL     1       4.241   3.676  16.791  0.00  0.00    +0.000 A 
ATOM      4  C   UNL     1       3.669   4.774  17.400  0.00  0.00    +0.000 A 
ATOM      5  O   UNL     1       4.594   5.776  17.520  0.00  0.00    +0.000 OA
ENDROOT
BRANCH   1   7
ATOM      6  N   UNL     1       7.124   7.001  17.967  0.00  0.00    +0.000 N 
ATOM      7  C   UNL     1       6.931   6.180  16.872  0.00  0.00    +0.000 C 
ATOM      8  O   UNL     1       7.705   6.178  15.919  0.00  0.00    +0.000 OA
ATOM      9  H   UNL     1       6.433   6.966  18.706  0.00  0.00    +0.000 HD
BRANCH   6  10
ATOM     10  C   UNL     1       8.240   7.932  18.020  0.00  0.00    +0.000 C 
BRANCH  10  11
ATOM     11  C   UNL     1       7.841   9.355  17.631  0.00  0.00    +0.000 C 
BRANCH  11  16
ATOM     12  C   UNL     1      10.970  13.459  20.359  0.00  0.00    +0.000 C 
ATOM     13  C   UNL     1      10.181  12.404  19.639  0.00  0.00    +0.000 A 
ATOM     14  C   UNL     1       9.546  12.679  18.423  0.00  0.00    +0.000 A 
ATOM     15  C   UNL     1       8.799  11.693  17.772  0.00  0.00    +0.000 A 
ATOM     16  C   UNL     1       8.667  10.412  18.326  0.00  0.00    +0.000 A 
ATOM     17  C   UNL     1       9.317  10.134  19.535  0.00  0.00    +0.000 A 
ATOM     18  C   UNL     1      10.063  11.122  20.186  0.00  0.00    +0.000 A 
ENDBRANCH  11  16
ENDBRANCH  10  11
ENDBRANCH   6  10
ENDBRANCH   1   7
BRANCH   4  19
ATOM     19  C   UNL     1       2.310   5.047  17.935  0.00  0.00    +0.000 C 
BRANCH  19  20
ATOM     20  S   UNL     1       2.470   5.701  19.596  0.00  0.00    +0.000 S 
ATOM     21  O   UNL     1       1.496   5.063  20.464  0.00  0.00    +0.000 OA
ATOM     22  O   UNL     1       3.875   5.742  19.959  0.00  0.00    +0.000 OA
BRANCH  20  23
ATOM     23  C   UNL     1       1.947   7.400  19.423  0.00  0.00    +0.000 A 
ATOM     24  C   UNL     1       1.441   8.083  20.534  0.00  0.00    +0.000 A 
ATOM     25  C   UNL     1       1.066   9.422  20.406  0.00  0.00    +0.000 A 
ATOM     26  C   UNL     1       1.212  10.071  19.179  0.00  0.00    +0.000 A 
ATOM     27 CL   UNL     1       0.737  11.716  19.022  0.00  0.00    +0.000 Cl
ATOM     28  C   UNL     1       1.743   9.395  18.080  0.00  0.00    +0.000 A 
ATOM     29  C   UNL     1       2.120   8.055  18.200  0.00  0.00    +0.000 A 
ENDBRANCH  20  23
ENDBRANCH  19  20
ENDBRANCH   4  19
TORSDOF 7
ENDMDL
MODEL 5
REMARK VINA RESULT:      -7.8      0.890      1.235
REMARK  Name = 
REMARK  8 active torsions:
REMARK  status: ('A' for Active; 'I' for Inactive)
REMARK    1  A    between atoms: C_1  and  C_2
REMARK    2  A    between atoms: C_5  and  C_6
REMARK    3  A    between atoms: C_6  and  C_7
REMARK    4  A    between atoms: C_7  and  N_8
REMARK    5  A    between atoms: C_9  and  C_11
REMARK    6  A    between atoms: C_14  and  C_15
REMARK    7  A    between atoms: C_15  and  S_16
REMARK    8  A    between atoms: S_16  and  C_19
REMARK                            x       y       z     vdW  Elec       q    Type
REMARK                         _______ _______ _______ _____ _____    ______ ____
ROOT
ATOM      1  C   UNL     1       6.516   5.587  17.725  0.00  0.00    +0.000 A 
ATOM      2  C   UNL     1       6.073   5.118  16.501  0.00  0.00    +0.000 A 
ATOM      3  C   UNL     1       5.156   4.077  16.764  0.00  0.00    +0.000 A 
ATOM      4  C   UNL     1       5.059   3.979  18.137  0.00  0.00    +0.000 A 
ATOM      5  O   UNL     1       5.905   4.876  18.731  0.00  0.00    +0.000 OA
ENDROOT
BRANCH   1   7
ATOM      6  N   UNL     1       7.298   7.805  17.287  0.00  0.00    +0.000 N 
ATOM      7  C   UNL     1       7.455   6.651  18.031  0.00  0.00    +0.000 C 
ATOM      8  O   UNL     1       8.328   6.547  18.888  0.00  0.00    +0.000 OA
ATOM      9  H   UNL     1       6.572   7.812  16.582  0.00  0.00    +0.000 HD
BRANCH   6  10
ATOM     10  C   UNL     1       8.192   8.939  17.462  0.00  0.00    +0.000 C 
BRANCH  10  11
ATOM     11  C   UNL     1       8.494   9.232  18.932  0.00  0.00    +0.000 C 
BRANCH  11  16
ATOM     12  C   UNL     1      11.898  13.914  19.676  0.00  0.00    +0.000 C 
ATOM     13  C   UNL     1      11.041  12.698  19.474  0.00  0.00    +0.000 A 
ATOM     14  C   UNL     1      10.744  12.227  18.191  0.00  0.00    +0.000 A 
ATOM     15  C   UNL     1       9.930  11.103  18.017  0.00  0.00    +0.000 A 
ATOM     16  C   UNL     1       9.391  10.431  19.123  0.00  0.00    +0.000 A 
ATOM     17  C   UNL     1       9.704  10.896  20.407  0.00  0.00    +0.000 A 
ATOM     18  C   UNL     1      10.518  12.019  20.581  0.00  0.00    +0.000 A 
ENDBRANCH  11  16
ENDBRANCH  10  11
ENDBRANCH   6  10
ENDBRANCH   1   7
BRANCH   4  19
ATOM     19  C   UNL     1       4.257   3.113  19.040  0.00  0.00    +0.000 C 
BRANCH  19  20
ATOM     20  S   UNL     1       2.521   3.333  18.650  0.00  0.00    +0.000 S 
ATOM     21  O   UNL     1       2.328   3.223  17.215  0.00  0.00    +0.000 OA
ATOM     22  O   UNL     1       1.722   2.546  19.571  0.00  0.00    +0.000 OA
BRANCH  20  23
ATOM     23  C   UNL     1       2.220   5.045  19.063  0.00  0.00    +0.000 A 
ATOM     24  C   UNL     1       1.883   5.390  20.376  0.00  0.00    +0.000 A 
ATOM     25  C   UNL     1       1.685   6.732  20.705  0.00  0.00    +0.000 A 
ATOM     26  C   UNL     1       1.836   7.718  19.728  0.00  0.00    +0.000 A 
ATOM     27 CL   UNL     1       1.578   9.369  20.135  0.00  0.00    +0.000 Cl
ATOM     28  C   UNL     1       2.200   7.373  18.426  0.00  0.00    +0.000 A 
ATOM     29  C   UNL     1       2.401   6.032  18.089  0.00  0.00    +0.000 A 
ENDBRANCH  20  23
ENDBRANCH  19  20
ENDBRANCH   4  19
TORSDOF 7
ENDMDL
MODEL 6
REMARK VINA RESULT:      -7.7      5.045      8.183
REMARK  Name = 
REMARK  8 active torsions:
REMARK  status: ('A' for Active; 'I' for Inactive)
REMARK    1  A    between atoms: C_1  and  C_2
REMARK    2  A    between atoms: C_5  and  C_6
REMARK    3  A    between atoms: C_6  and  C_7
REMARK    4  A    between atoms: C_7  and  N_8
REMARK    5  A    between atoms: C_9  and  C_11
REMARK    6  A    between atoms: C_14  and  C_15
REMARK    7  A    between atoms: C_15  and  S_16
REMARK    8  A    between atoms: S_16  and  C_19
REMARK                            x       y       z     vdW  Elec       q    Type
REMARK                         _______ _______ _______ _____ _____    ______ ____
ROOT
ATOM      1  C   UNL     1       2.061   7.981  19.361  0.00  0.00    +0.000 A 
ATOM      2  C   UNL     1       2.553   8.224  18.090  0.00  0.00    +0.000 A 
ATOM      3  C   UNL     1       3.067   7.002  17.605  0.00  0.00    +0.000 A 
ATOM      4  C   UNL     1       2.839   6.062  18.589  0.00  0.00    +0.000 A 
ATOM      5  O   UNL     1       2.252   6.656  19.675  0.00  0.00    +0.000 OA
ENDROOT
BRANCH   1   7
ATOM      6  N   UNL     1       1.092  10.126  19.790  0.00  0.00    +0.000 N 
ATOM      7  C   UNL     1       1.421   8.883  20.300  0.00  0.00    +0.000 C 
ATOM      8  O   UNL     1       1.180   8.577  21.464  0.00  0.00    +0.000 OA
ATOM      9  H   UNL     1       1.341  10.317  18.827  0.00  0.00    +0.000 HD
BRANCH   6  10
ATOM     10  C   UNL     1       0.477  11.143  20.628  0.00  0.00    +0.000 C 
BRANCH  10  11
ATOM     11  C   UNL     1      -1.047  11.157  20.517  0.00  0.00    +0.000 C 
BRANCH  11  16
ATOM     12  C   UNL     1      -3.013  10.539  15.055  0.00  0.00    +0.000 C 
ATOM     13  C   UNL     1      -2.491  10.681  16.456  0.00  0.00    +0.000 A 
ATOM     14  C   UNL     1      -2.608   9.637  17.380  0.00  0.00    +0.000 A 
ATOM     15  C   UNL     1      -2.133   9.788  18.687  0.00  0.00    +0.000 A 
ATOM     16  C   UNL     1      -1.538  10.989  19.098  0.00  0.00    +0.000 A 
ATOM     17  C   UNL     1      -1.408  12.026  18.166  0.00  0.00    +0.000 A 
ATOM     18  C   UNL     1      -1.882  11.874  16.859  0.00  0.00    +0.000 A 
ENDBRANCH  11  16
ENDBRANCH  10  11
ENDBRANCH   6  10
ENDBRANCH   1   7
BRANCH   4  19
ATOM     19  C   UNL     1       3.113   4.605  18.688  0.00  0.00    +0.000 C 
BRANCH  19  20
ATOM     20  S   UNL     1       4.865   4.373  18.992  0.00  0.00    +0.000 S 
ATOM     21  O   UNL     1       5.384   5.510  19.730  0.00  0.00    +0.000 OA
ATOM     22  O   UNL     1       5.092   3.017  19.457  0.00  0.00    +0.000 OA
BRANCH  20  23
ATOM     23  C   UNL     1       5.582   4.470  17.359  0.00  0.00    +0.000 A 
ATOM     24  C   UNL     1       4.816   4.111  16.245  0.00  0.00    +0.000 A 
ATOM     25  C   UNL     1       5.365   4.222  14.966  0.00  0.00    +0.000 A 
ATOM     26  C   UNL     1       6.667   4.702  14.809  0.00  0.00    +0.000 A 
ATOM     27 CL   UNL     1       7.345   4.826  13.233  0.00  0.00    +0.000 Cl
ATOM     28  C   UNL     1       7.419   5.086  15.919  0.00  0.00    +0.000 A 
ATOM     29  C   UNL     1       6.876   4.978  17.202  0.00  0.00    +0.000 A 
ENDBRANCH  20  23
ENDBRANCH  19  20
ENDBRANCH   4  19
TORSDOF 7
ENDMDL
MODEL 7
REMARK VINA RESULT:      -7.7      4.273      7.775
REMARK  Name = 
REMARK  8 active torsions:
REMARK  status: ('A' for Active; 'I' for Inactive)
REMARK    1  A    between atoms: C_1  and  C_2
REMARK    2  A    between atoms: C_5  and  C_6
REMARK    3  A    between atoms: C_6  and  C_7
REMARK    4  A    between atoms: C_7  and  N_8
REMARK    5  A    between atoms: C_9  and  C_11
REMARK    6  A    between atoms: C_14  and  C_15
REMARK    7  A    between atoms: C_15  and  S_16
REMARK    8  A    between atoms: S_16  and  C_19
REMARK                            x       y       z     vdW  Elec       q    Type
REMARK                         _______ _______ _______ _____ _____    ______ ____
ROOT
ATOM      1  C   UNL     1       2.014   6.836  19.483  0.00  0.00    +0.000 A 
ATOM      2  C   UNL     1       2.116   6.270  20.742  0.00  0.00    +0.000 A 
ATOM      3  C   UNL     1       2.146   4.870  20.565  0.00  0.00    +0.000 A 
ATOM      4  C   UNL     1       2.090   4.646  19.204  0.00  0.00    +0.000 A 
ATOM      5  O   UNL     1       1.981   5.838  18.539  0.00  0.00    +0.000 OA
ENDROOT
BRANCH   1   7
ATOM      6  N   UNL     1       1.232   9.050  19.942  0.00  0.00    +0.000 N 
ATOM      7  C   UNL     1       1.953   8.233  19.092  0.00  0.00    +0.000 C 
ATOM      8  O   UNL     1       2.502   8.670  18.085  0.00  0.00    +0.000 OA
ATOM      9  H   UNL     1       0.788   8.617  20.742  0.00  0.00    +0.000 HD
BRANCH   6  10
ATOM     10  C   UNL     1       1.058  10.465  19.656  0.00  0.00    +0.000 C 
BRANCH  10  11
ATOM     11  C   UNL     1      -0.346  10.968  19.992  0.00  0.00    +0.000 C 
BRANCH  11  16
ATOM     12  C   UNL     1      -3.996  10.650  15.448  0.00  0.00    +0.000 C 
ATOM     13  C   UNL     1      -3.076  10.725  16.631  0.00  0.00    +0.000 A 
ATOM     14  C   UNL     1      -3.292  11.648  17.660  0.00  0.00    +0.000 A 
ATOM     15  C   UNL     1      -2.417  11.720  18.748  0.00  0.00    +0.000 A 
ATOM     16  C   UNL     1      -1.303  10.873  18.827  0.00  0.00    +0.000 A 
ATOM     17  C   UNL     1      -1.097   9.938  17.804  0.00  0.00    +0.000 A 
ATOM     18  C   UNL     1      -1.973   9.868  16.716  0.00  0.00    +0.000 A 
ENDBRANCH  11  16
ENDBRANCH  10  11
ENDBRANCH   6  10
ENDBRANCH   1   7
BRANCH   4  19
ATOM     19  C   UNL     1       2.111   3.414  18.374  0.00  0.00    +0.000 C 
BRANCH  19  20
ATOM     20  S   UNL     1       3.754   2.701  18.451  0.00  0.00    +0.000 S 
ATOM     21  O   UNL     1       4.031   2.267  19.809  0.00  0.00    +0.000 OA
ATOM     22  O   UNL     1       3.935   1.797  17.330  0.00  0.00    +0.000 OA
BRANCH  20  23
ATOM     23  C   UNL     1       4.824   4.098  18.147  0.00  0.00    +0.000 A 
ATOM     24  C   UNL     1       5.631   4.587  19.179  0.00  0.00    +0.000 A 
ATOM     25  C   UNL     1       6.495   5.656  18.930  0.00  0.00    +0.000 A 
ATOM     26  C   UNL     1       6.555   6.218  17.653  0.00  0.00    +0.000 A 
ATOM     27 CL   UNL     1       7.610   7.543  17.354  0.00  0.00    +0.000 Cl
ATOM     28  C   UNL     1       5.769   5.710  16.618  0.00  0.00    +0.000 A 
ATOM     29  C   UNL     1       4.903   4.640  16.860  0.00  0.00    +0.000 A 
ENDBRANCH  20  23
ENDBRANCH  19  20
ENDBRANCH   4  19
TORSDOF 7
ENDMDL
MODEL 8
REMARK VINA RESULT:      -7.6      4.049      9.584
REMARK  Name = 
REMARK  8 active torsions:
REMARK  status: ('A' for Active; 'I' for Inactive)
REMARK    1  A    between atoms: C_1  and  C_2
REMARK    2  A    between atoms: C_5  and  C_6
REMARK    3  A    between atoms: C_6  and  C_7
REMARK    4  A    between atoms: C_7  and  N_8
REMARK    5  A    between atoms: C_9  and  C_11
REMARK    6  A    between atoms: C_14  and  C_15
REMARK    7  A    between atoms: C_15  and  S_16
REMARK    8  A    between atoms: S_16  and  C_19
REMARK                            x       y       z     vdW  Elec       q    Type
REMARK                         _______ _______ _______ _____ _____    ______ ____
ROOT
ATOM      1  C   UNL     1       8.164   8.463  18.082  0.00  0.00    +0.000 A 
ATOM      2  C   UNL     1       7.816   9.572  17.333  0.00  0.00    +0.000 A 
ATOM      3  C   UNL     1       8.418  10.692  17.947  0.00  0.00    +0.000 A 
ATOM      4  C   UNL     1       9.130  10.211  19.027  0.00  0.00    +0.000 A 
ATOM      5  O   UNL     1       8.958   8.856  19.134  0.00  0.00    +0.000 OA
ENDROOT
BRANCH   1   7
ATOM      6  N   UNL     1       7.462   6.720  16.602  0.00  0.00    +0.000 N 
ATOM      7  C   UNL     1       7.822   7.065  17.891  0.00  0.00    +0.000 C 
ATOM      8  O   UNL     1       7.851   6.239  18.799  0.00  0.00    +0.000 OA
ATOM      9  H   UNL     1       7.439   7.458  15.909  0.00  0.00    +0.000 HD
BRANCH   6  10
ATOM     10  C   UNL     1       7.061   5.361  16.273  0.00  0.00    +0.000 C 
BRANCH  10  11
ATOM     11  C   UNL     1       5.625   5.278  15.754  0.00  0.00    +0.000 C 
BRANCH  11  16
ATOM     12  C   UNL     1       1.634   4.604  19.959  0.00  0.00    +0.000 C 
ATOM     13  C   UNL     1       2.675   4.788  18.894  0.00  0.00    +0.000 A 
ATOM     14  C   UNL     1       3.078   6.065  18.488  0.00  0.00    +0.000 A 
ATOM     15  C   UNL     1       4.036   6.222  17.481  0.00  0.00    +0.000 A 
ATOM     16  C   UNL     1       4.607   5.105  16.856  0.00  0.00    +0.000 A 
ATOM     17  C   UNL     1       4.214   3.828  17.275  0.00  0.00    +0.000 A 
ATOM     18  C   UNL     1       3.256   3.671  18.282  0.00  0.00    +0.000 A 
ENDBRANCH  11  16
ENDBRANCH  10  11
ENDBRANCH   6  10
ENDBRANCH   1   7
BRANCH   4  19
ATOM     19  C   UNL     1       9.991  10.861  20.049  0.00  0.00    +0.000 C 
BRANCH  19  20
ATOM     20  S   UNL     1      11.196  11.889  19.210  0.00  0.00    +0.000 S 
ATOM     21  O   UNL     1      12.333  12.115  20.086  0.00  0.00    +0.000 OA
ATOM     22  O   UNL     1      11.384  11.398  17.858  0.00  0.00    +0.000 OA
BRANCH  20  23
ATOM     23  C   UNL     1      10.363  13.462  19.061  0.00  0.00    +0.000 A 
ATOM     24  C   UNL     1      10.554  14.238  17.913  0.00  0.00    +0.000 A 
ATOM     25  C   UNL     1       9.873  15.450  17.781  0.00  0.00    +0.000 A 
ATOM     26  C   UNL     1       9.000  15.871  18.787  0.00  0.00    +0.000 A 
ATOM     27 CL   UNL     1       8.174  17.370  18.626  0.00  0.00    +0.000 Cl
ATOM     28  C   UNL     1       8.791  15.081  19.918  0.00  0.00    +0.000 A 
ATOM     29  C   UNL     1       9.468  13.867  20.056  0.00  0.00    +0.000 A 
ENDBRANCH  20  23
ENDBRANCH  19  20
ENDBRANCH   4  19
TORSDOF 7
ENDMDL
MODEL 9
REMARK VINA RESULT:      -7.6      5.154      8.642
REMARK  Name = 
REMARK  8 active torsions:
REMARK  status: ('A' for Active; 'I' for Inactive)
REMARK    1  A    between atoms: C_1  and  C_2
REMARK    2  A    between atoms: C_5  and  C_6
REMARK    3  A    between atoms: C_6  and  C_7
REMARK    4  A    between atoms: C_7  and  N_8
REMARK    5  A    between atoms: C_9  and  C_11
REMARK    6  A    between atoms: C_14  and  C_15
REMARK    7  A    between atoms: C_15  and  S_16
REMARK    8  A    between atoms: S_16  and  C_19
REMARK                            x       y       z     vdW  Elec       q    Type
REMARK                         _______ _______ _______ _____ _____    ______ ____
ROOT
ATOM      1  C   UNL     1       1.971   7.848  19.613  0.00  0.00    +0.000 A 
ATOM      2  C   UNL     1       2.434   8.179  18.352  0.00  0.00    +0.000 A 
ATOM      3  C   UNL     1       2.956   6.998  17.779  0.00  0.00    +0.000 A 
ATOM      4  C   UNL     1       2.761   5.994  18.706  0.00  0.00    +0.000 A 
ATOM      5  O   UNL     1       2.187   6.509  19.838  0.00  0.00    +0.000 OA
ENDROOT
BRANCH   1   7
ATOM      6  N   UNL     1       0.987   9.948  20.199  0.00  0.00    +0.000 N 
ATOM      7  C   UNL     1       1.337   8.679  20.620  0.00  0.00    +0.000 C 
ATOM      8  O   UNL     1       1.117   8.293  21.764  0.00  0.00    +0.000 OA
ATOM      9  H   UNL     1       1.219  10.205  19.247  0.00  0.00    +0.000 HD
BRANCH   6  10
ATOM     10  C   UNL     1       0.375  10.900  21.112  0.00  0.00    +0.000 C 
BRANCH  10  11
ATOM     11  C   UNL     1      -0.372  12.019  20.385  0.00  0.00    +0.000 C 
BRANCH  11  16
ATOM     12  C   UNL     1      -5.683  12.973  22.610  0.00  0.00    +0.000 C 
ATOM     13  C   UNL     1      -4.316  12.750  22.031  0.00  0.00    +0.000 A 
ATOM     14  C   UNL     1      -4.092  12.838  20.653  0.00  0.00    +0.000 A 
ATOM     15  C   UNL     1      -2.817  12.611  20.123  0.00  0.00    +0.000 A 
ATOM     16  C   UNL     1      -1.742  12.286  20.962  0.00  0.00    +0.000 A 
ATOM     17  C   UNL     1      -1.966  12.215  22.343  0.00  0.00    +0.000 A 
ATOM     18  C   UNL     1      -3.241  12.442  22.871  0.00  0.00    +0.000 A 
ENDBRANCH  11  16
ENDBRANCH  10  11
ENDBRANCH   6  10
ENDBRANCH   1   7
BRANCH   4  19
ATOM     19  C   UNL     1       3.058   4.539  18.706  0.00  0.00    +0.000 C 
BRANCH  19  20
ATOM     20  S   UNL     1       4.803   4.311  19.046  0.00  0.00    +0.000 S 
ATOM     21  O   UNL     1       5.292   5.425  19.840  0.00  0.00    +0.000 OA
ATOM     22  O   UNL     1       5.033   2.942  19.466  0.00  0.00    +0.000 OA
BRANCH  20  23
ATOM     23  C   UNL     1       5.561   4.477  17.437  0.00  0.00    +0.000 A 
ATOM     24  C   UNL     1       4.960   3.875  16.326  0.00  0.00    +0.000 A 
ATOM     25  C   UNL     1       5.533   4.036  15.062  0.00  0.00    +0.000 A 
ATOM     26  C   UNL     1       6.690   4.805  14.916  0.00  0.00    +0.000 A 
ATOM     27 CL   UNL     1       7.400   4.990  13.361  0.00  0.00    +0.000 Cl
ATOM     28  C   UNL     1       7.271   5.427  16.023  0.00  0.00    +0.000 A 
ATOM     29  C   UNL     1       6.703   5.271  17.289  0.00  0.00    +0.000 A 
ENDBRANCH  20  23
ENDBRANCH  19  20
ENDBRANCH   4  19
TORSDOF 7
ENDMDL
