MODEL 1
REMARK VINA RESULT:      -8.0      0.000      0.000
REMARK  Name = 
REMARK  2 active torsions:
REMARK  status: ('A' for Active; 'I' for Inactive)
REMARK    1  A    between atoms: C_2  and  C_3
REMARK    2  A    between atoms: N_17  and  C_18
REMARK                            x       y       z     vdW  Elec       q    Type
REMARK                         _______ _______ _______ _____ _____    ______ ____
ROOT
ATOM      1  O   UNL     1       7.960   5.449  13.493  0.00  0.00    +0.000 OA
ATOM      2  C   UNL     1       6.918   4.820  13.689  0.00  0.00    +0.000 C 
ATOM      3  N   UNL     1       6.130   5.014  14.831  0.00  0.00    +0.000 N 
ATOM      4  C   UNL     1       4.975   4.214  15.247  0.00  0.00    +0.000 C 
ATOM      5  C   UNL     1       5.127   3.694  16.667  0.00  0.00    +0.000 C 
ATOM      6  C   UNL     1       5.443   4.843  17.629  0.00  0.00    +0.000 C 
ATOM      7  C   UNL     1       6.669   5.629  17.162  0.00  0.00    +0.000 C 
ATOM      8  C   UNL     1       6.467   6.121  15.732  0.00  0.00    +0.000 C 
ATOM      9  C   UNL     1       5.548   4.347  19.079  0.00  0.00    +0.000 C 
ATOM     10  N   UNL     1       4.243   4.889  19.322  0.00  0.00    +0.000 N 
ATOM     11  C   UNL     1       4.200   5.631  18.097  0.00  0.00    +0.000 C 
ENDROOT
BRANCH   2  12
ATOM     12  C   UNL     1       6.539   3.814  12.659  0.00  0.00    +0.000 A 
ATOM     13  C   UNL     1       7.551   3.021  12.094  0.00  0.00    +0.000 A 
ATOM     14  C   UNL     1       7.240   2.042  11.146  0.00  0.00    +0.000 A 
ATOM     15  C   UNL     1       5.913   1.838  10.772  0.00  0.00    +0.000 A 
ATOM     16  C   UNL     1       4.922   2.655  11.302  0.00  0.00    +0.000 A 
ATOM     17  F   UNL     1       3.644   2.455  10.953  0.00  0.00    +0.000 F 
ATOM     18  C   UNL     1       5.229   3.670  12.199  0.00  0.00    +0.000 A 
ENDBRANCH   2  12
BRANCH  10  19
ATOM     19  C   UNL     1       3.199   4.266  20.036  0.00  0.00    +0.000 A 
ATOM     20  C   UNL     1       3.463   3.127  20.814  0.00  0.00    +0.000 A 
ATOM     21  C   UNL     1       2.450   2.477  21.523  0.00  0.00    +0.000 A 
ATOM     22  C   UNL     1       1.149   2.965  21.476  0.00  0.00    +0.000 A 
ATOM     23  C   UNL     1       0.868   4.105  20.725  0.00  0.00    +0.000 A 
ATOM     24  C   UNL     1       1.888   4.753  20.016  0.00  0.00    +0.000 A 
ENDBRANCH  10  19
TORSDOF 2
ENDMDL
MODEL 2
REMARK VINA RESULT:      -7.7      3.772      8.481
REMARK  Name = 
REMARK  2 active torsions:
REMARK  status: ('A' for Active; 'I' for Inactive)
REMARK    1  A    between atoms: C_2  and  C_3
REMARK    2  A    between atoms: N_17  and  C_18
REMARK                            x       y       z     vdW  Elec       q    Type
REMARK                         _______ _______ _______ _____ _____    ______ ____
ROOT
ATOM      1  O   UNL     1       2.246   5.630  21.230  0.00  0.00    +0.000 OA
ATOM      2  C   UNL     1       2.318   6.180  20.129  0.00  0.00    +0.000 C 
ATOM      3  N   UNL     1       2.899   5.556  19.017  0.00  0.00    +0.000 N 
ATOM      4  C   UNL     1       3.189   6.170  17.719  0.00  0.00    +0.000 C 
ATOM      5  C   UNL     1       4.645   5.991  17.319  0.00  0.00    +0.000 C 
ATOM      6  C   UNL     1       5.045   4.515  17.392  0.00  0.00    +0.000 C 
ATOM      7  C   UNL     1       4.744   3.931  18.774  0.00  0.00    +0.000 C 
ATOM      8  C   UNL     1       3.275   4.143  19.127  0.00  0.00    +0.000 C 
ATOM      9  C   UNL     1       6.498   4.305  16.941  0.00  0.00    +0.000 C 
ATOM     10  N   UNL     1       6.001   3.808  15.691  0.00  0.00    +0.000 N 
ATOM     11  C   UNL     1       4.647   3.693  16.146  0.00  0.00    +0.000 C 
ENDROOT
BRANCH   2  12
ATOM     12  C   UNL     1       1.776   7.564  20.035  0.00  0.00    +0.000 A 
ATOM     13  C   UNL     1       1.102   8.096  21.146  0.00  0.00    +0.000 A 
ATOM     14  C   UNL     1       0.603   9.402  21.115  0.00  0.00    +0.000 A 
ATOM     15  C   UNL     1       0.793  10.188  19.981  0.00  0.00    +0.000 A 
ATOM     16  C   UNL     1       1.423   9.642  18.870  0.00  0.00    +0.000 A 
ATOM     17  F   UNL     1       1.617  10.398  17.781  0.00  0.00    +0.000 F 
ATOM     18  C   UNL     1       1.868   8.326  18.868  0.00  0.00    +0.000 A 
ENDBRANCH   2  12
BRANCH  10  19
ATOM     19  C   UNL     1       6.499   4.122  14.410  0.00  0.00    +0.000 A 
ATOM     20  C   UNL     1       7.458   5.137  14.258  0.00  0.00    +0.000 A 
ATOM     21  C   UNL     1       7.961   5.483  13.002  0.00  0.00    +0.000 A 
ATOM     22  C   UNL     1       7.520   4.808  11.870  0.00  0.00    +0.000 A 
ATOM     23  C   UNL     1       6.583   3.784  11.999  0.00  0.00    +0.000 A 
ATOM     24  C   UNL     1       6.081   3.441  13.261  0.00  0.00    +0.000 A 
ENDBRANCH  10  19
TORSDOF 2
ENDMDL
MODEL 3
REMARK VINA RESULT:      -7.7      4.189      8.625
REMARK  Name = 
REMARK  2 active torsions:
REMARK  status: ('A' for Active; 'I' for Inactive)
REMARK    1  A    between atoms: C_2  and  C_3
REMARK    2  A    between atoms: N_17  and  C_18
REMARK                            x       y       z     vdW  Elec       q    Type
REMARK                         _______ _______ _______ _____ _____    ______ ____
ROOT
ATOM      1  O   UNL     1       2.218   5.691  21.233  0.00  0.00    +0.000 OA
ATOM      2  C   UNL     1       2.286   6.230  20.126  0.00  0.00    +0.000 C 
ATOM      3  N   UNL     1       2.876   5.600  19.022  0.00  0.00    +0.000 N 
ATOM      4  C   UNL     1       3.162   6.203  17.718  0.00  0.00    +0.000 C 
ATOM      5  C   UNL     1       4.621   6.036  17.323  0.00  0.00    +0.000 C 
ATOM      6  C   UNL     1       5.036   4.565  17.413  0.00  0.00    +0.000 C 
ATOM      7  C   UNL     1       4.739   3.993  18.800  0.00  0.00    +0.000 C 
ATOM      8  C   UNL     1       3.267   4.193  19.148  0.00  0.00    +0.000 C 
ATOM      9  C   UNL     1       6.492   4.366  16.966  0.00  0.00    +0.000 C 
ATOM     10  N   UNL     1       6.003   3.849  15.721  0.00  0.00    +0.000 N 
ATOM     11  C   UNL     1       4.650   3.725  16.175  0.00  0.00    +0.000 C 
ENDROOT
BRANCH   2  12
ATOM     12  C   UNL     1       1.730   7.607  20.017  0.00  0.00    +0.000 A 
ATOM     13  C   UNL     1       1.891   8.299  18.806  0.00  0.00    +0.000 A 
ATOM     14  C   UNL     1       1.359   9.582  18.645  0.00  0.00    +0.000 A 
ATOM     15  C   UNL     1       0.647  10.171  19.688  0.00  0.00    +0.000 A 
ATOM     16  C   UNL     1       0.528   9.499  20.898  0.00  0.00    +0.000 A 
ATOM     17  F   UNL     1      -0.164  10.057  21.899  0.00  0.00    +0.000 F 
ATOM     18  C   UNL     1       1.105   8.250  21.087  0.00  0.00    +0.000 A 
ENDBRANCH   2  12
BRANCH  10  19
ATOM     19  C   UNL     1       6.500   4.155  14.437  0.00  0.00    +0.000 A 
ATOM     20  C   UNL     1       6.016   3.466  13.314  0.00  0.00    +0.000 A 
ATOM     21  C   UNL     1       6.496   3.734  12.030  0.00  0.00    +0.000 A 
ATOM     22  C   UNL     1       7.468   4.711  11.845  0.00  0.00    +0.000 A 
ATOM     23  C   UNL     1       7.950   5.420  12.943  0.00  0.00    +0.000 A 
ATOM     24  C   UNL     1       7.465   5.147  14.229  0.00  0.00    +0.000 A 
ENDBRANCH  10  19
TORSDOF 2
ENDMDL
MODEL 4
REMARK VINA RESULT:      -7.5      3.884      8.515
REMARK  Name = 
REMARK  2 active torsions:
REMARK  status: ('A' for Active; 'I' for Inactive)
REMARK    1  A    between atoms: C_2  and  C_3
REMARK    2  A    between atoms: N_17  and  C_18
REMARK                            x       y       z     vdW  Elec       q    Type
REMARK                         _______ _______ _______ _____ _____    ______ ____
ROOT
ATOM      1  O   UNL     1       2.082   5.906  21.325  0.00  0.00    +0.000 OA
ATOM      2  C   UNL     1       2.158   6.408  20.201  0.00  0.00    +0.000 C 
ATOM      3  N   UNL     1       2.755   5.742  19.123  0.00  0.00    +0.000 N 
ATOM      4  C   UNL     1       3.049   6.301  17.801  0.00  0.00    +0.000 C 
ATOM      5  C   UNL     1       4.510   6.120  17.421  0.00  0.00    +0.000 C 
ATOM      6  C   UNL     1       4.925   4.653  17.563  0.00  0.00    +0.000 C 
ATOM      7  C   UNL     1       4.619   4.128  18.966  0.00  0.00    +0.000 C 
ATOM      8  C   UNL     1       3.145   4.339  19.298  0.00  0.00    +0.000 C 
ATOM      9  C   UNL     1       6.384   4.439  17.132  0.00  0.00    +0.000 C 
ATOM     10  N   UNL     1       5.902   3.881  15.902  0.00  0.00    +0.000 N 
ATOM     11  C   UNL     1       4.546   3.772  16.351  0.00  0.00    +0.000 C 
ENDROOT
BRANCH   2  12
ATOM     12  C   UNL     1       1.603   7.781  20.041  0.00  0.00    +0.000 A 
ATOM     13  C   UNL     1       0.713   8.260  21.015  0.00  0.00    +0.000 A 
ATOM     14  C   UNL     1       0.190   9.554  20.924  0.00  0.00    +0.000 A 
ATOM     15  C   UNL     1       0.570  10.381  19.869  0.00  0.00    +0.000 A 
ATOM     16  C   UNL     1       1.417   9.886  18.886  0.00  0.00    +0.000 A 
ATOM     17  F   UNL     1       1.793  10.681  17.876  0.00  0.00    +0.000 F 
ATOM     18  C   UNL     1       1.893   8.582  18.935  0.00  0.00    +0.000 A 
ENDBRANCH   2  12
BRANCH  10  19
ATOM     19  C   UNL     1       6.408   4.144  14.612  0.00  0.00    +0.000 A 
ATOM     20  C   UNL     1       5.945   3.404  13.512  0.00  0.00    +0.000 A 
ATOM     21  C   UNL     1       6.435   3.629  12.224  0.00  0.00    +0.000 A 
ATOM     22  C   UNL     1       7.393   4.612  12.009  0.00  0.00    +0.000 A 
ATOM     23  C   UNL     1       7.854   5.371  13.083  0.00  0.00    +0.000 A 
ATOM     24  C   UNL     1       7.359   5.142  14.374  0.00  0.00    +0.000 A 
ENDBRANCH  10  19
TORSDOF 2
ENDMDL
MODEL 5
REMARK VINA RESULT:      -7.4      0.940      1.357
REMARK  Name = 
REMARK  2 active torsions:
REMARK  status: ('A' for Active; 'I' for Inactive)
REMARK    1  A    between atoms: C_2  and  C_3
REMARK    2  A    between atoms: N_17  and  C_18
REMARK                            x       y       z     vdW  Elec       q    Type
REMARK                         _______ _______ _______ _____ _____    ______ ____
ROOT
ATOM      1  O   UNL     1       7.908   5.569  13.570  0.00  0.00    +0.000 OA
ATOM      2  C   UNL     1       6.884   4.910  13.762  0.00  0.00    +0.000 C 
ATOM      3  N   UNL     1       6.084   5.085  14.900  0.00  0.00    +0.000 N 
ATOM      4  C   UNL     1       4.951   4.253  15.312  0.00  0.00    +0.000 C 
ATOM      5  C   UNL     1       5.111   3.742  16.735  0.00  0.00    +0.000 C 
ATOM      6  C   UNL     1       5.388   4.902  17.694  0.00  0.00    +0.000 C 
ATOM      7  C   UNL     1       6.594   5.722  17.232  0.00  0.00    +0.000 C 
ATOM      8  C   UNL     1       6.385   6.204  15.799  0.00  0.00    +0.000 C 
ATOM      9  C   UNL     1       5.500   4.414  19.147  0.00  0.00    +0.000 C 
ATOM     10  N   UNL     1       4.178   4.919  19.381  0.00  0.00    +0.000 N 
ATOM     11  C   UNL     1       4.120   5.656  18.154  0.00  0.00    +0.000 C 
ENDROOT
BRANCH   2  12
ATOM     12  C   UNL     1       6.539   3.890  12.733  0.00  0.00    +0.000 A 
ATOM     13  C   UNL     1       5.184   3.647  12.459  0.00  0.00    +0.000 A 
ATOM     14  C   UNL     1       4.813   2.721  11.479  0.00  0.00    +0.000 A 
ATOM     15  C   UNL     1       5.796   2.048  10.756  0.00  0.00    +0.000 A 
ATOM     16  C   UNL     1       7.134   2.262  11.062  0.00  0.00    +0.000 A 
ATOM     17  F   UNL     1       8.082   1.625  10.361  0.00  0.00    +0.000 F 
ATOM     18  C   UNL     1       7.511   3.134  12.075  0.00  0.00    +0.000 A 
ENDBRANCH   2  12
BRANCH  10  19
ATOM     19  C   UNL     1       3.150   4.268  20.092  0.00  0.00    +0.000 A 
ATOM     20  C   UNL     1       3.447   3.158  20.900  0.00  0.00    +0.000 A 
ATOM     21  C   UNL     1       2.450   2.482  21.606  0.00  0.00    +0.000 A 
ATOM     22  C   UNL     1       1.131   2.914  21.527  0.00  0.00    +0.000 A 
ATOM     23  C   UNL     1       0.815   4.025  20.746  0.00  0.00    +0.000 A 
ATOM     24  C   UNL     1       1.819   4.699  20.040  0.00  0.00    +0.000 A 
ENDBRANCH  10  19
TORSDOF 2
ENDMDL
MODEL 6
REMARK VINA RESULT:      -7.3      4.729      8.741
REMARK  Name = 
REMARK  2 active torsions:
REMARK  status: ('A' for Active; 'I' for Inactive)
REMARK    1  A    between atoms: C_2  and  C_3
REMARK    2  A    between atoms: N_17  and  C_18
REMARK                            x       y       z     vdW  Elec       q    Type
REMARK                         _______ _______ _______ _____ _____    ______ ____
ROOT
ATOM      1  O   UNL     1       1.451   7.948  21.356  0.00  0.00    +0.000 OA
ATOM      2  C   UNL     1       1.573   8.165  20.148  0.00  0.00    +0.000 C 
ATOM      3  N   UNL     1       2.164   7.239  19.277  0.00  0.00    +0.000 N 
ATOM      4  C   UNL     1       2.511   7.457  17.870  0.00  0.00    +0.000 C 
ATOM      5  C   UNL     1       3.970   7.138  17.590  0.00  0.00    +0.000 C 
ATOM      6  C   UNL     1       4.319   5.733  18.088  0.00  0.00    +0.000 C 
ATOM      7  C   UNL     1       3.960   5.568  19.566  0.00  0.00    +0.000 C 
ATOM      8  C   UNL     1       2.490   5.906  19.792  0.00  0.00    +0.000 C 
ATOM      9  C   UNL     1       5.776   5.370  17.767  0.00  0.00    +0.000 C 
ATOM     10  N   UNL     1       5.299   4.553  16.689  0.00  0.00    +0.000 N 
ATOM     11  C   UNL     1       3.930   4.603  17.108  0.00  0.00    +0.000 C 
ENDROOT
BRANCH   2  12
ATOM     12  C   UNL     1       1.080   9.479  19.650  0.00  0.00    +0.000 A 
ATOM     13  C   UNL     1      -0.255   9.832  19.902  0.00  0.00    +0.000 A 
ATOM     14  C   UNL     1      -0.754  11.069  19.481  0.00  0.00    +0.000 A 
ATOM     15  C   UNL     1       0.086  11.966  18.824  0.00  0.00    +0.000 A 
ATOM     16  C   UNL     1       1.394  11.593  18.540  0.00  0.00    +0.000 A 
ATOM     17  F   UNL     1       2.207  12.456  17.917  0.00  0.00    +0.000 F 
ATOM     18  C   UNL     1       1.880  10.343  18.900  0.00  0.00    +0.000 A 
ENDBRANCH   2  12
BRANCH  10  19
ATOM     19  C   UNL     1       5.843   4.483  15.390  0.00  0.00    +0.000 A 
ATOM     20  C   UNL     1       5.197   3.727  14.398  0.00  0.00    +0.000 A 
ATOM     21  C   UNL     1       5.717   3.625  13.105  0.00  0.00    +0.000 A 
ATOM     22  C   UNL     1       6.892   4.290  12.777  0.00  0.00    +0.000 A 
ATOM     23  C   UNL     1       7.540   5.061  13.740  0.00  0.00    +0.000 A 
ATOM     24  C   UNL     1       7.015   5.160  15.035  0.00  0.00    +0.000 A 
ENDBRANCH  10  19
TORSDOF 2
ENDMDL
MODEL 7
REMARK VINA RESULT:      -7.3      4.575      8.675
REMARK  Name = 
REMARK  2 active torsions:
REMARK  status: ('A' for Active; 'I' for Inactive)
REMARK    1  A    between atoms: C_2  and  C_3
REMARK    2  A    between atoms: N_17  and  C_18
REMARK                            x       y       z     vdW  Elec       q    Type
REMARK                         _______ _______ _______ _____ _____    ______ ____
ROOT
ATOM      1  O   UNL     1       1.658   7.697  21.336  0.00  0.00    +0.000 OA
ATOM      2  C   UNL     1       1.756   7.944  20.132  0.00  0.00    +0.000 C 
ATOM      3  N   UNL     1       2.333   7.043  19.228  0.00  0.00    +0.000 N 
ATOM      4  C   UNL     1       2.652   7.297  17.820  0.00  0.00    +0.000 C 
ATOM      5  C   UNL     1       4.108   6.991  17.505  0.00  0.00    +0.000 C 
ATOM      6  C   UNL     1       4.470   5.575  17.961  0.00  0.00    +0.000 C 
ATOM      7  C   UNL     1       4.141   5.372  19.441  0.00  0.00    +0.000 C 
ATOM      8  C   UNL     1       2.673   5.699  19.703  0.00  0.00    +0.000 C 
ATOM      9  C   UNL     1       5.923   5.226  17.603  0.00  0.00    +0.000 C 
ATOM     10  N   UNL     1       5.428   4.435  16.515  0.00  0.00    +0.000 N 
ATOM     11  C   UNL     1       4.066   4.469  16.961  0.00  0.00    +0.000 C 
ENDROOT
BRANCH   2  12
ATOM     12  C   UNL     1       1.249   9.269  19.677  0.00  0.00    +0.000 A 
ATOM     13  C   UNL     1      -0.035   9.669  20.079  0.00  0.00    +0.000 A 
ATOM     14  C   UNL     1      -0.541  10.917  19.702  0.00  0.00    +0.000 A 
ATOM     15  C   UNL     1       0.243  11.778  18.937  0.00  0.00    +0.000 A 
ATOM     16  C   UNL     1       1.495  11.359  18.506  0.00  0.00    +0.000 A 
ATOM     17  F   UNL     1       2.256  12.188  17.779  0.00  0.00    +0.000 F 
ATOM     18  C   UNL     1       1.982  10.098  18.825  0.00  0.00    +0.000 A 
ENDBRANCH   2  12
BRANCH  10  19
ATOM     19  C   UNL     1       5.947   4.398  15.204  0.00  0.00    +0.000 A 
ATOM     20  C   UNL     1       7.069   5.176  14.871  0.00  0.00    +0.000 A 
ATOM     21  C   UNL     1       7.600   5.174  13.580  0.00  0.00    +0.000 A 
ATOM     22  C   UNL     1       7.022   4.381  12.595  0.00  0.00    +0.000 A 
ATOM     23  C   UNL     1       5.920   3.588  12.907  0.00  0.00    +0.000 A 
ATOM     24  C   UNL     1       5.391   3.593  14.204  0.00  0.00    +0.000 A 
ENDBRANCH  10  19
TORSDOF 2
ENDMDL
MODEL 8
REMARK VINA RESULT:      -7.2      7.491     10.304
REMARK  Name = 
REMARK  2 active torsions:
REMARK  status: ('A' for Active; 'I' for Inactive)
REMARK    1  A    between atoms: C_2  and  C_3
REMARK    2  A    between atoms: N_17  and  C_18
REMARK                            x       y       z     vdW  Elec       q    Type
REMARK                         _______ _______ _______ _____ _____    ______ ____
ROOT
ATOM      1  O   UNL     1      -1.223  13.299  19.287  0.00  0.00    +0.000 OA
ATOM      2  C   UNL     1      -1.575  12.142  19.046  0.00  0.00    +0.000 C 
ATOM      3  N   UNL     1      -0.701  11.053  19.171  0.00  0.00    +0.000 N 
ATOM      4  C   UNL     1      -0.957   9.672  18.755  0.00  0.00    +0.000 C 
ATOM      5  C   UNL     1       0.129   9.149  17.828  0.00  0.00    +0.000 C 
ATOM      6  C   UNL     1       1.512   9.345  18.457  0.00  0.00    +0.000 C 
ATOM      7  C   UNL     1       1.735  10.806  18.850  0.00  0.00    +0.000 C 
ATOM      8  C   UNL     1       0.616  11.280  19.772  0.00  0.00    +0.000 C 
ATOM      9  C   UNL     1       2.621   8.774  17.561  0.00  0.00    +0.000 C 
ATOM     10  N   UNL     1       2.703   7.644  18.440  0.00  0.00    +0.000 N 
ATOM     11  C   UNL     1       1.905   8.244  19.468  0.00  0.00    +0.000 C 
ENDROOT
BRANCH   2  12
ATOM     12  C   UNL     1      -2.978  11.950  18.586  0.00  0.00    +0.000 A 
ATOM     13  C   UNL     1      -3.198  11.535  17.263  0.00  0.00    +0.000 A 
ATOM     14  C   UNL     1      -4.497  11.312  16.796  0.00  0.00    +0.000 A 
ATOM     15  C   UNL     1      -5.580  11.484  17.655  0.00  0.00    +0.000 A 
ATOM     16  C   UNL     1      -5.359  11.936  18.950  0.00  0.00    +0.000 A 
ATOM     17  F   UNL     1      -6.397  12.092  19.782  0.00  0.00    +0.000 F 
ATOM     18  C   UNL     1      -4.077  12.218  19.405  0.00  0.00    +0.000 A 
ENDBRANCH   2  12
BRANCH  10  19
ATOM     19  C   UNL     1       2.810   6.292  18.055  0.00  0.00    +0.000 A 
ATOM     20  C   UNL     1       4.026   5.799  17.553  0.00  0.00    +0.000 A 
ATOM     21  C   UNL     1       4.162   4.469  17.149  0.00  0.00    +0.000 A 
ATOM     22  C   UNL     1       3.082   3.600  17.252  0.00  0.00    +0.000 A 
ATOM     23  C   UNL     1       1.871   4.063  17.765  0.00  0.00    +0.000 A 
ATOM     24  C   UNL     1       1.740   5.398  18.168  0.00  0.00    +0.000 A 
ENDBRANCH  10  19
TORSDOF 2
ENDMDL
MODEL 9
REMARK VINA RESULT:      -7.2      6.864      9.569
REMARK  Name = 
REMARK  2 active torsions:
REMARK  status: ('A' for Active; 'I' for Inactive)
REMARK    1  A    between atoms: C_2  and  C_3
REMARK    2  A    between atoms: N_17  and  C_18
REMARK                            x       y       z     vdW  Elec       q    Type
REMARK                         _______ _______ _______ _____ _____    ______ ____
ROOT
ATOM      1  O   UNL     1      -0.668  13.079  18.381  0.00  0.00    +0.000 OA
ATOM      2  C   UNL     1      -1.068  11.914  18.335  0.00  0.00    +0.000 C 
ATOM      3  N   UNL     1      -0.238  10.825  18.636  0.00  0.00    +0.000 N 
ATOM      4  C   UNL     1      -0.553   9.406  18.453  0.00  0.00    +0.000 C 
ATOM      5  C   UNL     1       0.502   8.693  17.622  0.00  0.00    +0.000 C 
ATOM      6  C   UNL     1       1.897   8.932  18.207  0.00  0.00    +0.000 C 
ATOM      7  C   UNL     1       2.183  10.427  18.353  0.00  0.00    +0.000 C 
ATOM      8  C   UNL     1       1.093  11.094  19.187  0.00  0.00    +0.000 C 
ATOM      9  C   UNL     1       2.973   8.176  17.413  0.00  0.00    +0.000 C 
ATOM     10  N   UNL     1       3.018   7.204  18.467  0.00  0.00    +0.000 N 
ATOM     11  C   UNL     1       2.255   7.998  19.384  0.00  0.00    +0.000 C 
ENDROOT
BRANCH   2  12
ATOM     12  C   UNL     1      -2.482  11.707  17.917  0.00  0.00    +0.000 A 
ATOM     13  C   UNL     1      -3.503  12.031  18.826  0.00  0.00    +0.000 A 
ATOM     14  C   UNL     1      -4.846  11.883  18.467  0.00  0.00    +0.000 A 
ATOM     15  C   UNL     1      -5.176  11.429  17.191  0.00  0.00    +0.000 A 
ATOM     16  C   UNL     1      -4.161  11.070  16.313  0.00  0.00    +0.000 A 
ATOM     17  F   UNL     1      -4.473  10.643  15.082  0.00  0.00    +0.000 F 
ATOM     18  C   UNL     1      -2.825  11.156  16.681  0.00  0.00    +0.000 A 
ENDBRANCH   2  12
BRANCH  10  19
ATOM     19  C   UNL     1       3.067   5.804  18.309  0.00  0.00    +0.000 A 
ATOM     20  C   UNL     1       1.916   5.100  17.918  0.00  0.00    +0.000 A 
ATOM     21  C   UNL     1       1.926   3.712  17.767  0.00  0.00    +0.000 A 
ATOM     22  C   UNL     1       3.098   2.999  17.994  0.00  0.00    +0.000 A 
ATOM     23  C   UNL     1       4.257   3.679  18.365  0.00  0.00    +0.000 A 
ATOM     24  C   UNL     1       4.241   5.072  18.516  0.00  0.00    +0.000 A 
ENDBRANCH  10  19
TORSDOF 2
ENDMDL
