MODEL 1
REMARK VINA RESULT:      -7.9      0.000      0.000
REMARK  Name = 
REMARK  2 active torsions:
REMARK  status: ('A' for Active; 'I' for Inactive)
REMARK    1  A    between atoms: C_2  and  C_3
REMARK    2  A    between atoms: C_3  and  N_4
REMARK                            x       y       z     vdW  Elec       q    Type
REMARK                         _______ _______ _______ _____ _____    ______ ____
ROOT
ATOM      1  O   UNL     1       2.219   8.692  17.380  0.00  0.00    +0.000 OA
ATOM      2  C   UNL     1       2.055   8.454  18.582  0.00  0.00    +0.000 C 
ATOM      3  N   UNL     1       1.106   9.159  19.319  0.00  0.00    +0.000 N 
ATOM      4  C   UNL     1       0.758   8.951  20.739  0.00  0.00    +0.000 C 
ATOM      5  C   UNL     1       0.507  10.288  21.477  0.00  0.00    +0.000 C 
ATOM      6  N   UNL     1      -0.486  11.051  20.727  0.00  0.00    +0.000 N 
ATOM      7  C   UNL     1      -1.444  11.799  21.358  0.00  0.00    +0.000 A 
ATOM      8  N   UNL     1      -1.458  11.863  22.699  0.00  0.00    +0.000 NA
ATOM      9  C   UNL     1      -2.460  12.551  23.283  0.00  0.00    +0.000 A 
ATOM     10  C   UNL     1      -3.468  13.164  22.587  0.00  0.00    +0.000 A 
ATOM     11  C   UNL     1      -3.380  13.048  21.226  0.00  0.00    +0.000 A 
ATOM     12  N   UNL     1      -2.386  12.391  20.601  0.00  0.00    +0.000 NA
ATOM     13  C   UNL     1      -0.149  11.334  19.332  0.00  0.00    +0.000 C 
ATOM     14  C   UNL     1       0.148  10.013  18.596  0.00  0.00    +0.000 C 
ENDROOT
BRANCH   2  15
ATOM     15  C   UNL     1       2.990   7.460  19.291  0.00  0.00    +0.000 C 
BRANCH  15  16
ATOM     16  N   UNL     1       2.562   6.124  18.921  0.00  0.00    +0.000 N 
ATOM     17  C   UNL     1       1.802   5.317  19.720  0.00  0.00    +0.000 C 
ATOM     18  O   UNL     1       1.523   5.514  20.893  0.00  0.00    +0.000 OA
ATOM     19  C   UNL     1       1.344   4.127  18.904  0.00  0.00    +0.000 C 
ATOM     20  C   UNL     1       1.383   2.809  19.674  0.00  0.00    +0.000 C 
ATOM     21  C   UNL     1       2.341   1.780  19.167  0.00  0.00    +0.000 C 
ATOM     22  C   UNL     1       3.024   1.882  18.025  0.00  0.00    +0.000 C 
ATOM     23  C   UNL     1       2.928   3.040  17.092  0.00  0.00    +0.000 C 
ATOM     24  C   UNL     1       2.146   4.244  17.606  0.00  0.00    +0.000 C 
ATOM     25  C   UNL     1       3.024   5.448  17.839  0.00  0.00    +0.000 C 
ATOM     26  O   UNL     1       3.970   5.765  17.130  0.00  0.00    +0.000 OA
ENDBRANCH  15  16
ENDBRANCH   2  15
TORSDOF 2
ENDMDL
MODEL 2
REMARK VINA RESULT:      -7.1      3.197      8.982
REMARK  Name = 
REMARK  2 active torsions:
REMARK  status: ('A' for Active; 'I' for Inactive)
REMARK    1  A    between atoms: C_2  and  C_3
REMARK    2  A    between atoms: C_3  and  N_4
REMARK                            x       y       z     vdW  Elec       q    Type
REMARK                         _______ _______ _______ _____ _____    ______ ____
ROOT
ATOM      1  O   UNL     1      -1.176  11.413  21.948  0.00  0.00    +0.000 OA
ATOM      2  C   UNL     1      -0.911  11.307  20.745  0.00  0.00    +0.000 C 
ATOM      3  N   UNL     1      -0.194  10.210  20.273  0.00  0.00    +0.000 N 
ATOM      4  C   UNL     1       0.147   9.918  18.867  0.00  0.00    +0.000 C 
ATOM      5  C   UNL     1       1.577   9.341  18.725  0.00  0.00    +0.000 C 
ATOM      6  N   UNL     1       1.704   8.194  19.618  0.00  0.00    +0.000 N 
ATOM      7  C   UNL     1       2.412   7.078  19.259  0.00  0.00    +0.000 A 
ATOM      8  N   UNL     1       3.034   7.043  18.070  0.00  0.00    +0.000 NA
ATOM      9  C   UNL     1       3.659   5.899  17.724  0.00  0.00    +0.000 A 
ATOM     10  C   UNL     1       3.675   4.774  18.505  0.00  0.00    +0.000 A 
ATOM     11  C   UNL     1       3.015   4.894  19.699  0.00  0.00    +0.000 A 
ATOM     12  N   UNL     1       2.397   6.023  20.094  0.00  0.00    +0.000 NA
ATOM     13  C   UNL     1       1.436   8.458  21.032  0.00  0.00    +0.000 C 
ATOM     14  C   UNL     1       0.032   9.074  21.184  0.00  0.00    +0.000 C 
ENDROOT
BRANCH   2  15
ATOM     15  C   UNL     1      -1.272  12.455  19.787  0.00  0.00    +0.000 C 
BRANCH  15  16
ATOM     16  N   UNL     1      -2.666  12.293  19.422  0.00  0.00    +0.000 N 
ATOM     17  C   UNL     1      -3.087  11.779  18.228  0.00  0.00    +0.000 C 
ATOM     18  O   UNL     1      -2.391  11.548  17.252  0.00  0.00    +0.000 OA
ATOM     19  C   UNL     1      -4.578  11.525  18.314  0.00  0.00    +0.000 C 
ATOM     20  C   UNL     1      -5.333  11.895  17.040  0.00  0.00    +0.000 C 
ATOM     21  C   UNL     1      -6.321  13.009  17.162  0.00  0.00    +0.000 C 
ATOM     22  C   UNL     1      -6.685  13.573  18.316  0.00  0.00    +0.000 C 
ATOM     23  C   UNL     1      -6.155  13.169  19.650  0.00  0.00    +0.000 C 
ATOM     24  C   UNL     1      -4.986  12.190  19.631  0.00  0.00    +0.000 C 
ATOM     25  C   UNL     1      -3.704  12.809  20.128  0.00  0.00    +0.000 C 
ATOM     26  O   UNL     1      -3.632  13.614  21.047  0.00  0.00    +0.000 OA
ENDBRANCH  15  16
ENDBRANCH   2  15
TORSDOF 2
ENDMDL
MODEL 3
REMARK VINA RESULT:      -7.0      3.148      8.677
REMARK  Name = 
REMARK  2 active torsions:
REMARK  status: ('A' for Active; 'I' for Inactive)
REMARK    1  A    between atoms: C_2  and  C_3
REMARK    2  A    between atoms: C_3  and  N_4
REMARK                            x       y       z     vdW  Elec       q    Type
REMARK                         _______ _______ _______ _____ _____    ______ ____
ROOT
ATOM      1  O   UNL     1      -1.366  11.182  21.835  0.00  0.00    +0.000 OA
ATOM      2  C   UNL     1      -1.050  11.184  20.639  0.00  0.00    +0.000 C 
ATOM      3  N   UNL     1      -0.249  10.170  20.118  0.00  0.00    +0.000 N 
ATOM      4  C   UNL     1       0.161  10.006  18.710  0.00  0.00    +0.000 C 
ATOM      5  C   UNL     1       1.628   9.528  18.585  0.00  0.00    +0.000 C 
ATOM      6  N   UNL     1       1.794   8.327  19.397  0.00  0.00    +0.000 N 
ATOM      7  C   UNL     1       2.583   7.285  18.987  0.00  0.00    +0.000 A 
ATOM      8  N   UNL     1       3.250   7.377  17.825  0.00  0.00    +0.000 NA
ATOM      9  C   UNL     1       3.958   6.302  17.423  0.00  0.00    +0.000 A 
ATOM     10  C   UNL     1       4.015   5.125  18.120  0.00  0.00    +0.000 A 
ATOM     11  C   UNL     1       3.306   5.114  19.291  0.00  0.00    +0.000 A 
ATOM     12  N   UNL     1       2.605   6.171  19.741  0.00  0.00    +0.000 NA
ATOM     13  C   UNL     1       1.459   8.466  20.814  0.00  0.00    +0.000 C 
ATOM     14  C   UNL     1       0.014   8.985  20.952  0.00  0.00    +0.000 C 
ENDROOT
BRANCH   2  15
ATOM     15  C   UNL     1      -1.447  12.377  19.753  0.00  0.00    +0.000 C 
BRANCH  15  16
ATOM     16  N   UNL     1      -2.881  12.305  19.546  0.00  0.00    +0.000 N 
ATOM     17  C   UNL     1      -3.803  12.847  20.397  0.00  0.00    +0.000 C 
ATOM     18  O   UNL     1      -3.584  13.304  21.507  0.00  0.00    +0.000 OA
ATOM     19  C   UNL     1      -5.160  12.799  19.726  0.00  0.00    +0.000 C 
ATOM     20  C   UNL     1      -6.295  12.421  20.675  0.00  0.00    +0.000 C 
ATOM     21  C   UNL     1      -6.991  11.132  20.386  0.00  0.00    +0.000 C 
ATOM     22  C   UNL     1      -6.792  10.394  19.292  0.00  0.00    +0.000 C 
ATOM     23  C   UNL     1      -5.843  10.755  18.200  0.00  0.00    +0.000 C 
ATOM     24  C   UNL     1      -4.923  11.938  18.484  0.00  0.00    +0.000 C 
ATOM     25  C   UNL     1      -3.477  11.530  18.605  0.00  0.00    +0.000 C 
ATOM     26  O   UNL     1      -2.940  10.664  17.926  0.00  0.00    +0.000 OA
ENDBRANCH  15  16
ENDBRANCH   2  15
TORSDOF 2
ENDMDL
MODEL 4
REMARK VINA RESULT:      -6.9      3.507      8.893
REMARK  Name = 
REMARK  2 active torsions:
REMARK  status: ('A' for Active; 'I' for Inactive)
REMARK    1  A    between atoms: C_2  and  C_3
REMARK    2  A    between atoms: C_3  and  N_4
REMARK                            x       y       z     vdW  Elec       q    Type
REMARK                         _______ _______ _______ _____ _____    ______ ____
ROOT
ATOM      1  O   UNL     1      -0.327  11.471  20.880  0.00  0.00    +0.000 OA
ATOM      2  C   UNL     1      -0.035  11.133  19.727  0.00  0.00    +0.000 C 
ATOM      3  N   UNL     1       0.524   9.882  19.478  0.00  0.00    +0.000 N 
ATOM      4  C   UNL     1       0.870   9.317  18.159  0.00  0.00    +0.000 C 
ATOM      5  C   UNL     1       2.200   8.525  18.198  0.00  0.00    +0.000 C 
ATOM      6  N   UNL     1       2.117   7.534  19.266  0.00  0.00    +0.000 N 
ATOM      7  C   UNL     1       2.661   6.284  19.130  0.00  0.00    +0.000 A 
ATOM      8  N   UNL     1       3.315   5.965  18.002  0.00  0.00    +0.000 NA
ATOM      9  C   UNL     1       3.772   4.702  17.879  0.00  0.00    +0.000 A 
ATOM     10  C   UNL     1       3.587   3.731  18.826  0.00  0.00    +0.000 A 
ATOM     11  C   UNL     1       2.908   4.138  19.943  0.00  0.00    +0.000 A 
ATOM     12  N   UNL     1       2.455   5.393  20.117  0.00  0.00    +0.000 NA
ATOM     13  C   UNL     1       1.839   8.062  20.602  0.00  0.00    +0.000 C 
ATOM     14  C   UNL     1       0.541   8.890  20.568  0.00  0.00    +0.000 C 
ENDROOT
BRANCH   2  15
ATOM     15  C   UNL     1      -0.181  12.148  18.581  0.00  0.00    +0.000 C 
BRANCH  15  16
ATOM     16  N   UNL     1       0.837  13.164  18.771  0.00  0.00    +0.000 N 
ATOM     17  C   UNL     1       0.565  14.470  19.068  0.00  0.00    +0.000 C 
ATOM     18  O   UNL     1      -0.533  15.005  19.048  0.00  0.00    +0.000 OA
ATOM     19  C   UNL     1       1.861  15.157  19.443  0.00  0.00    +0.000 C 
ATOM     20  C   UNL     1       1.985  16.572  18.884  0.00  0.00    +0.000 C 
ATOM     21  C   UNL     1       3.079  16.795  17.893  0.00  0.00    +0.000 C 
ATOM     22  C   UNL     1       4.024  15.899  17.597  0.00  0.00    +0.000 C 
ATOM     23  C   UNL     1       4.119  14.546  18.217  0.00  0.00    +0.000 C 
ATOM     24  C   UNL     1       2.936  14.128  19.083  0.00  0.00    +0.000 C 
ATOM     25  C   UNL     1       2.151  12.990  18.482  0.00  0.00    +0.000 C 
ATOM     26  O   UNL     1       2.646  12.052  17.871  0.00  0.00    +0.000 OA
ENDBRANCH  15  16
ENDBRANCH   2  15
TORSDOF 2
ENDMDL
MODEL 5
REMARK VINA RESULT:      -6.9      8.647      9.555
REMARK  Name = 
REMARK  2 active torsions:
REMARK  status: ('A' for Active; 'I' for Inactive)
REMARK    1  A    between atoms: C_2  and  C_3
REMARK    2  A    between atoms: C_3  and  N_4
REMARK                            x       y       z     vdW  Elec       q    Type
REMARK                         _______ _______ _______ _____ _____    ______ ____
ROOT
ATOM      1  O   UNL     1       5.956  13.898  22.053  0.00  0.00    +0.000 OA
ATOM      2  C   UNL     1       6.211  14.873  21.337  0.00  0.00    +0.000 C 
ATOM      3  N   UNL     1       5.197  15.514  20.629  0.00  0.00    +0.000 N 
ATOM      4  C   UNL     1       5.335  16.717  19.785  0.00  0.00    +0.000 C 
ATOM      5  C   UNL     1       4.473  16.627  18.502  0.00  0.00    +0.000 C 
ATOM      6  N   UNL     1       3.098  16.326  18.888  0.00  0.00    +0.000 N 
ATOM      7  C   UNL     1       2.030  16.883  18.236  0.00  0.00    +0.000 A 
ATOM      8  N   UNL     1       2.244  17.702  17.194  0.00  0.00    +0.000 NA
ATOM      9  C   UNL     1       1.170  18.286  16.626  0.00  0.00    +0.000 A 
ATOM     10  C   UNL     1      -0.115  18.106  17.064  0.00  0.00    +0.000 A 
ATOM     11  C   UNL     1      -0.245  17.259  18.132  0.00  0.00    +0.000 A 
ATOM     12  N   UNL     1       0.797  16.637  18.715  0.00  0.00    +0.000 NA
ATOM     13  C   UNL     1       2.911  15.105  19.672  0.00  0.00    +0.000 C 
ATOM     14  C   UNL     1       3.798  15.162  20.931  0.00  0.00    +0.000 C 
ENDROOT
BRANCH   2  15
ATOM     15  C   UNL     1       7.674  15.303  21.137  0.00  0.00    +0.000 C 
BRANCH  15  16
ATOM     16  N   UNL     1       8.367  14.198  20.502  0.00  0.00    +0.000 N 
ATOM     17  C   UNL     1       9.168  13.315  21.171  0.00  0.00    +0.000 C 
ATOM     18  O   UNL     1       9.552  13.416  22.326  0.00  0.00    +0.000 OA
ATOM     19  C   UNL     1       9.499  12.167  20.240  0.00  0.00    +0.000 C 
ATOM     20  C   UNL     1      10.946  11.694  20.347  0.00  0.00    +0.000 C 
ATOM     21  C   UNL     1      11.790  11.881  19.129  0.00  0.00    +0.000 C 
ATOM     22  C   UNL     1      11.326  12.276  17.942  0.00  0.00    +0.000 C 
ATOM     23  C   UNL     1       9.895  12.588  17.663  0.00  0.00    +0.000 C 
ATOM     24  C   UNL     1       8.978  12.639  18.880  0.00  0.00    +0.000 C 
ATOM     25  C   UNL     1       8.464  14.029  19.159  0.00  0.00    +0.000 C 
ATOM     26  O   UNL     1       8.153  14.840  18.298  0.00  0.00    +0.000 OA
ENDBRANCH  15  16
ENDBRANCH   2  15
TORSDOF 2
ENDMDL
MODEL 6
REMARK VINA RESULT:      -6.8      2.540      3.922
REMARK  Name = 
REMARK  2 active torsions:
REMARK  status: ('A' for Active; 'I' for Inactive)
REMARK    1  A    between atoms: C_2  and  C_3
REMARK    2  A    between atoms: C_3  and  N_4
REMARK                            x       y       z     vdW  Elec       q    Type
REMARK                         _______ _______ _______ _____ _____    ______ ____
ROOT
ATOM      1  O   UNL     1       2.095   5.522  20.581  0.00  0.00    +0.000 OA
ATOM      2  C   UNL     1       2.135   6.248  19.580  0.00  0.00    +0.000 C 
ATOM      3  N   UNL     1       1.834   7.605  19.679  0.00  0.00    +0.000 N 
ATOM      4  C   UNL     1       1.892   8.603  18.594  0.00  0.00    +0.000 C 
ATOM      5  C   UNL     1       0.717   9.609  18.666  0.00  0.00    +0.000 C 
ATOM      6  N   UNL     1       0.686  10.187  20.005  0.00  0.00    +0.000 N 
ATOM      7  C   UNL     1       0.373  11.505  20.211  0.00  0.00    +0.000 A 
ATOM      8  N   UNL     1       0.055  12.282  19.164  0.00  0.00    +0.000 NA
ATOM      9  C   UNL     1      -0.176  13.589  19.401  0.00  0.00    +0.000 A 
ATOM     10  C   UNL     1      -0.084  14.166  20.640  0.00  0.00    +0.000 A 
ATOM     11  C   UNL     1       0.248  13.304  21.652  0.00  0.00    +0.000 A 
ATOM     12  N   UNL     1       0.464  11.989  21.463  0.00  0.00    +0.000 NA
ATOM     13  C   UNL     1       0.563   9.233  21.107  0.00  0.00    +0.000 C 
ATOM     14  C   UNL     1       1.702   8.199  21.021  0.00  0.00    +0.000 C 
ENDROOT
BRANCH   2  15
ATOM     15  C   UNL     1       2.401   5.622  18.201  0.00  0.00    +0.000 C 
BRANCH  15  16
ATOM     16  N   UNL     1       3.837   5.622  17.995  0.00  0.00    +0.000 N 
ATOM     17  C   UNL     1       4.696   4.760  18.616  0.00  0.00    +0.000 C 
ATOM     18  O   UNL     1       4.426   4.002  19.535  0.00  0.00    +0.000 OA
ATOM     19  C   UNL     1       6.058   4.887  17.965  0.00  0.00    +0.000 C 
ATOM     20  C   UNL     1       7.215   4.844  18.959  0.00  0.00    +0.000 C 
ATOM     21  C   UNL     1       8.033   6.089  19.070  0.00  0.00    +0.000 C 
ATOM     22  C   UNL     1       7.914   7.145  18.262  0.00  0.00    +0.000 C 
ATOM     23  C   UNL     1       6.945   7.231  17.132  0.00  0.00    +0.000 C 
ATOM     24  C   UNL     1       5.914   6.109  17.056  0.00  0.00    +0.000 C 
ATOM     25  C   UNL     1       4.512   6.592  17.328  0.00  0.00    +0.000 C 
ATOM     26  O   UNL     1       4.066   7.672  16.963  0.00  0.00    +0.000 OA
ENDBRANCH  15  16
ENDBRANCH   2  15
TORSDOF 2
ENDMDL
MODEL 7
REMARK VINA RESULT:      -6.8      2.342      3.257
REMARK  Name = 
REMARK  2 active torsions:
REMARK  status: ('A' for Active; 'I' for Inactive)
REMARK    1  A    between atoms: C_2  and  C_3
REMARK    2  A    between atoms: C_3  and  N_4
REMARK                            x       y       z     vdW  Elec       q    Type
REMARK                         _______ _______ _______ _____ _____    ______ ____
ROOT
ATOM      1  O   UNL     1       3.411   7.483  17.504  0.00  0.00    +0.000 OA
ATOM      2  C   UNL     1       3.002   7.127  18.615  0.00  0.00    +0.000 C 
ATOM      3  N   UNL     1       2.068   7.896  19.305  0.00  0.00    +0.000 N 
ATOM      4  C   UNL     1       1.447   7.574  20.605  0.00  0.00    +0.000 C 
ATOM      5  C   UNL     1       1.295   8.827  21.501  0.00  0.00    +0.000 C 
ATOM      6  N   UNL     1       0.589   9.855  20.743  0.00  0.00    +0.000 N 
ATOM      7  C   UNL     1      -0.328  10.682  21.335  0.00  0.00    +0.000 A 
ATOM      8  N   UNL     1      -0.566  10.572  22.652  0.00  0.00    +0.000 NA
ATOM      9  C   UNL     1      -1.528  11.356  23.182  0.00  0.00    +0.000 A 
ATOM     10  C   UNL     1      -2.282  12.234  22.451  0.00  0.00    +0.000 A 
ATOM     11  C   UNL     1      -1.978  12.282  21.117  0.00  0.00    +0.000 A 
ATOM     12  N   UNL     1      -1.012  11.536  20.551  0.00  0.00    +0.000 NA
ATOM     13  C   UNL     1       1.208  10.249  19.477  0.00  0.00    +0.000 C 
ATOM     14  C   UNL     1       1.406   9.003  18.592  0.00  0.00    +0.000 C 
ENDROOT
BRANCH   2  15
ATOM     15  C   UNL     1       3.621   5.889  19.287  0.00  0.00    +0.000 C 
BRANCH  15  16
ATOM     16  N   UNL     1       4.461   5.236  18.302  0.00  0.00    +0.000 N 
ATOM     17  C   UNL     1       5.782   5.530  18.110  0.00  0.00    +0.000 C 
ATOM     18  O   UNL     1       6.393   6.470  18.594  0.00  0.00    +0.000 OA
ATOM     19  C   UNL     1       6.379   4.480  17.196  0.00  0.00    +0.000 C 
ATOM     20  C   UNL     1       7.351   5.052  16.166  0.00  0.00    +0.000 C 
ATOM     21  C   UNL     1       6.942   4.922  14.735  0.00  0.00    +0.000 C 
ATOM     22  C   UNL     1       5.890   4.219  14.310  0.00  0.00    +0.000 C 
ATOM     23  C   UNL     1       4.972   3.460  15.207  0.00  0.00    +0.000 C 
ATOM     24  C   UNL     1       5.164   3.692  16.702  0.00  0.00    +0.000 C 
ATOM     25  C   UNL     1       3.996   4.410  17.331  0.00  0.00    +0.000 C 
ATOM     26  O   UNL     1       2.824   4.230  17.026  0.00  0.00    +0.000 OA
ENDBRANCH  15  16
ENDBRANCH   2  15
TORSDOF 2
ENDMDL
MODEL 8
REMARK VINA RESULT:      -6.7      8.072      9.303
REMARK  Name = 
REMARK  2 active torsions:
REMARK  status: ('A' for Active; 'I' for Inactive)
REMARK    1  A    between atoms: C_2  and  C_3
REMARK    2  A    between atoms: C_3  and  N_4
REMARK                            x       y       z     vdW  Elec       q    Type
REMARK                         _______ _______ _______ _____ _____    ______ ____
ROOT
ATOM      1  O   UNL     1       5.800  13.888  22.029  0.00  0.00    +0.000 OA
ATOM      2  C   UNL     1       6.039  14.920  21.391  0.00  0.00    +0.000 C 
ATOM      3  N   UNL     1       5.028  15.559  20.676  0.00  0.00    +0.000 N 
ATOM      4  C   UNL     1       5.144  16.821  19.919  0.00  0.00    +0.000 C 
ATOM      5  C   UNL     1       4.348  16.777  18.592  0.00  0.00    +0.000 C 
ATOM      6  N   UNL     1       2.974  16.387  18.890  0.00  0.00    +0.000 N 
ATOM      7  C   UNL     1       1.910  16.935  18.223  0.00  0.00    +0.000 A 
ATOM      8  N   UNL     1       2.131  17.831  17.248  0.00  0.00    +0.000 NA
ATOM      9  C   UNL     1       1.056  18.401  16.667  0.00  0.00    +0.000 A 
ATOM     10  C   UNL     1      -0.237  18.132  17.029  0.00  0.00    +0.000 A 
ATOM     11  C   UNL     1      -0.373  17.210  18.032  0.00  0.00    +0.000 A 
ATOM     12  N   UNL     1       0.670  16.601  18.624  0.00  0.00    +0.000 NA
ATOM     13  C   UNL     1       2.812  15.109  19.584  0.00  0.00    +0.000 C 
ATOM     14  C   UNL     1       3.636  15.123  20.886  0.00  0.00    +0.000 C 
ENDROOT
BRANCH   2  15
ATOM     15  C   UNL     1       7.487  15.431  21.290  0.00  0.00    +0.000 C 
BRANCH  15  16
ATOM     16  N   UNL     1       8.256  14.416  20.595  0.00  0.00    +0.000 N 
ATOM     17  C   UNL     1       8.189  14.198  19.248  0.00  0.00    +0.000 C 
ATOM     18  O   UNL     1       7.378  14.681  18.474  0.00  0.00    +0.000 OA
ATOM     19  C   UNL     1       9.308  13.254  18.859  0.00  0.00    +0.000 C 
ATOM     20  C   UNL     1       8.893  12.210  17.825  0.00  0.00    +0.000 C 
ATOM     21  C   UNL     1       8.923  10.787  18.279  0.00  0.00    +0.000 C 
ATOM     22  C   UNL     1       9.427  10.377  19.445  0.00  0.00    +0.000 C 
ATOM     23  C   UNL     1      10.034  11.284  20.461  0.00  0.00    +0.000 C 
ATOM     24  C   UNL     1       9.866  12.777  20.202  0.00  0.00    +0.000 C 
ATOM     25  C   UNL     1       8.971  13.444  21.216  0.00  0.00    +0.000 C 
ATOM     26  O   UNL     1       8.941  13.163  22.406  0.00  0.00    +0.000 OA
ENDBRANCH  15  16
ENDBRANCH   2  15
TORSDOF 2
ENDMDL
MODEL 9
REMARK VINA RESULT:      -6.7      3.296      9.948
REMARK  Name = 
REMARK  2 active torsions:
REMARK  status: ('A' for Active; 'I' for Inactive)
REMARK    1  A    between atoms: C_2  and  C_3
REMARK    2  A    between atoms: C_3  and  N_4
REMARK                            x       y       z     vdW  Elec       q    Type
REMARK                         _______ _______ _______ _____ _____    ______ ____
ROOT
ATOM      1  O   UNL     1      -1.401  10.794  23.321  0.00  0.00    +0.000 OA
ATOM      2  C   UNL     1      -1.171  11.067  22.137  0.00  0.00    +0.000 C 
ATOM      3  N   UNL     1      -0.444  10.187  21.337  0.00  0.00    +0.000 N 
ATOM      4  C   UNL     1      -0.140  10.346  19.901  0.00  0.00    +0.000 C 
ATOM      5  C   UNL     1       1.297   9.884  19.559  0.00  0.00    +0.000 C 
ATOM      6  N   UNL     1       1.478   8.525  20.059  0.00  0.00    +0.000 N 
ATOM      7  C   UNL     1       2.200   7.593  19.361  0.00  0.00    +0.000 A 
ATOM      8  N   UNL     1       2.786   7.939  18.204  0.00  0.00    +0.000 NA
ATOM      9  C   UNL     1       3.426   6.974  17.513  0.00  0.00    +0.000 A 
ATOM     10  C   UNL     1       3.492   5.667  17.915  0.00  0.00    +0.000 A 
ATOM     11  C   UNL     1       2.867   5.398  19.103  0.00  0.00    +0.000 A 
ATOM     12  N   UNL     1       2.236   6.334  19.836  0.00  0.00    +0.000 NA
ATOM     13  C   UNL     1       1.249   8.339  21.492  0.00  0.00    +0.000 C 
ATOM     14  C   UNL     1      -0.163   8.836  21.855  0.00  0.00    +0.000 C 
ENDROOT
BRANCH   2  15
ATOM     15  C   UNL     1      -1.587  12.439  21.581  0.00  0.00    +0.000 C 
BRANCH  15  16
ATOM     16  N   UNL     1      -2.454  13.060  22.565  0.00  0.00    +0.000 N 
ATOM     17  C   UNL     1      -3.818  13.070  22.481  0.00  0.00    +0.000 C 
ATOM     18  O   UNL     1      -4.488  12.729  21.519  0.00  0.00    +0.000 OA
ATOM     19  C   UNL     1      -4.376  13.570  23.798  0.00  0.00    +0.000 C 
ATOM     20  C   UNL     1      -5.567  14.511  23.637  0.00  0.00    +0.000 C 
ATOM     21  C   UNL     1      -5.363  15.916  24.102  0.00  0.00    +0.000 C 
ATOM     22  C   UNL     1      -4.290  16.341  24.773  0.00  0.00    +0.000 C 
ATOM     23  C   UNL     1      -3.142  15.470  25.155  0.00  0.00    +0.000 C 
ATOM     24  C   UNL     1      -3.141  14.070  24.551  0.00  0.00    +0.000 C 
ATOM     25  C   UNL     1      -2.017  13.865  23.566  0.00  0.00    +0.000 C 
ATOM     26  O   UNL     1      -0.891  14.328  23.691  0.00  0.00    +0.000 OA
ENDBRANCH  15  16
ENDBRANCH   2  15
TORSDOF 2
ENDMDL
