MODEL 1
REMARK VINA RESULT:      -7.8      0.000      0.000
REMARK  Name = 
REMARK  2 active torsions:
REMARK  status: ('A' for Active; 'I' for Inactive)
REMARK    1  A    between atoms: C_2  and  C_3
REMARK    2  A    between atoms: C_6  and  C_7
REMARK                            x       y       z     vdW  Elec       q    Type
REMARK                         _______ _______ _______ _____ _____    ______ ____
ROOT
ATOM      1  O   UNL     1       1.218  11.664  20.502  0.00  0.00    +0.000 OA
ATOM      2  C   UNL     1       0.684  10.897  19.697  0.00  0.00    +0.000 C 
ATOM      3  N   UNL     1      -0.670  11.039  19.373  0.00  0.00    +0.000 N 
ATOM      4  C   UNL     1      -1.390  12.184  19.948  0.00  0.00    +0.000 C 
ATOM      5  C   UNL     1      -2.921  12.081  19.902  0.00  0.00    +0.000 C 
ATOM      6  C   UNL     1      -3.365  11.616  18.546  0.00  0.00    +0.000 A 
ATOM      7  C   UNL     1      -4.490  12.145  17.902  0.00  0.00    +0.000 A 
ATOM      8  C   UNL     1      -4.847  11.668  16.636  0.00  0.00    +0.000 A 
ATOM      9  C   UNL     1      -4.110  10.647  16.032  0.00  0.00    +0.000 A 
ATOM     10  C   UNL     1      -3.002  10.107  16.679  0.00  0.00    +0.000 A 
ATOM     11  C   UNL     1      -2.625  10.592  17.936  0.00  0.00    +0.000 A 
ATOM     12  C   UNL     1      -1.456  10.015  18.685  0.00  0.00    +0.000 C 
ENDROOT
BRANCH   2  13
ATOM     13  C   UNL     1       1.446   9.821  19.092  0.00  0.00    +0.000 A 
ATOM     14  C   UNL     1       1.995   9.720  17.828  0.00  0.00    +0.000 A 
ATOM     15  C   UNL     1       2.528   8.417  17.718  0.00  0.00    +0.000 A 
ATOM     16  C   UNL     1       2.255   7.771  18.905  0.00  0.00    +0.000 A 
ATOM     17  O   UNL     1       1.598   8.624  19.741  0.00  0.00    +0.000 OA
BRANCH  16  18
ATOM     18  C   UNL     1       2.453   6.404  19.371  0.00  0.00    +0.000 A 
ATOM     19  C   UNL     1       1.717   5.940  20.472  0.00  0.00    +0.000 A 
ATOM     20  C   UNL     1       1.949   4.675  21.014  0.00  0.00    +0.000 A 
ATOM     21  C   UNL     1       2.922   3.855  20.453  0.00  0.00    +0.000 A 
ATOM     22 CL   UNL     1       3.238   2.315  21.149  0.00  0.00    +0.000 Cl
ATOM     23  C   UNL     1       3.648   4.282  19.343  0.00  0.00    +0.000 A 
ATOM     24  C   UNL     1       3.410   5.550  18.799  0.00  0.00    +0.000 A 
ENDBRANCH  16  18
ENDBRANCH   2  13
TORSDOF 2
ENDMDL
MODEL 2
REMARK VINA RESULT:      -7.7      0.596      1.086
REMARK  Name = 
REMARK  2 active torsions:
REMARK  status: ('A' for Active; 'I' for Inactive)
REMARK    1  A    between atoms: C_2  and  C_3
REMARK    2  A    between atoms: C_6  and  C_7
REMARK                            x       y       z     vdW  Elec       q    Type
REMARK                         _______ _______ _______ _____ _____    ______ ____
ROOT
ATOM      1  O   UNL     1       1.246  11.799  20.500  0.00  0.00    +0.000 OA
ATOM      2  C   UNL     1       0.681  11.037  19.713  0.00  0.00    +0.000 C 
ATOM      3  N   UNL     1      -0.685  11.182  19.444  0.00  0.00    +0.000 N 
ATOM      4  C   UNL     1      -1.380  12.325  20.051  0.00  0.00    +0.000 C 
ATOM      5  C   UNL     1      -2.912  12.223  20.065  0.00  0.00    +0.000 C 
ATOM      6  C   UNL     1      -3.410  11.765  18.725  0.00  0.00    +0.000 A 
ATOM      7  C   UNL     1      -4.558  12.298  18.128  0.00  0.00    +0.000 A 
ATOM      8  C   UNL     1      -4.965  11.826  16.875  0.00  0.00    +0.000 A 
ATOM      9  C   UNL     1      -4.254  10.808  16.238  0.00  0.00    +0.000 A 
ATOM     10  C   UNL     1      -3.122  10.263  16.839  0.00  0.00    +0.000 A 
ATOM     11  C   UNL     1      -2.695  10.743  18.082  0.00  0.00    +0.000 A 
ATOM     12  C   UNL     1      -1.498  10.161  18.782  0.00  0.00    +0.000 C 
ENDROOT
BRANCH   2  13
ATOM     13  C   UNL     1       1.417   9.961  19.075  0.00  0.00    +0.000 A 
ATOM     14  C   UNL     1       2.051   9.924  17.848  0.00  0.00    +0.000 A 
ATOM     15  C   UNL     1       2.509   8.601  17.665  0.00  0.00    +0.000 A 
ATOM     16  C   UNL     1       2.108   7.883  18.773  0.00  0.00    +0.000 A 
ATOM     17  O   UNL     1       1.445   8.709  19.630  0.00  0.00    +0.000 OA
BRANCH  16  18
ATOM     18  C   UNL     1       2.186   6.473  19.135  0.00  0.00    +0.000 A 
ATOM     19  C   UNL     1       2.457   5.522  18.139  0.00  0.00    +0.000 A 
ATOM     20  C   UNL     1       2.439   4.155  18.421  0.00  0.00    +0.000 A 
ATOM     21  C   UNL     1       2.153   3.725  19.712  0.00  0.00    +0.000 A 
ATOM     22 CL   UNL     1       2.087   2.040  20.049  0.00  0.00    +0.000 Cl
ATOM     23  C   UNL     1       1.906   4.649  20.725  0.00  0.00    +0.000 A 
ATOM     24  C   UNL     1       1.929   6.020  20.439  0.00  0.00    +0.000 A 
ENDBRANCH  16  18
ENDBRANCH   2  13
TORSDOF 2
ENDMDL
MODEL 3
REMARK VINA RESULT:      -7.6      3.305      8.260
REMARK  Name = 
REMARK  2 active torsions:
REMARK  status: ('A' for Active; 'I' for Inactive)
REMARK    1  A    between atoms: C_2  and  C_3
REMARK    2  A    between atoms: C_6  and  C_7
REMARK                            x       y       z     vdW  Elec       q    Type
REMARK                         _______ _______ _______ _____ _____    ______ ____
ROOT
ATOM      1  O   UNL     1       3.498   8.303  17.058  0.00  0.00    +0.000 OA
ATOM      2  C   UNL     1       2.739   7.832  17.908  0.00  0.00    +0.000 C 
ATOM      3  N   UNL     1       2.792   6.470  18.227  0.00  0.00    +0.000 N 
ATOM      4  C   UNL     1       3.842   5.663  17.590  0.00  0.00    +0.000 C 
ATOM      5  C   UNL     1       3.621   4.144  17.648  0.00  0.00    +0.000 C 
ATOM      6  C   UNL     1       3.201   3.737  19.030  0.00  0.00    +0.000 A 
ATOM      7  C   UNL     1       3.675   2.573  19.647  0.00  0.00    +0.000 A 
ATOM      8  C   UNL     1       3.244   2.254  20.939  0.00  0.00    +0.000 A 
ATOM      9  C   UNL     1       2.321   3.069  21.598  0.00  0.00    +0.000 A 
ATOM     10  C   UNL     1       1.834   4.217  20.978  0.00  0.00    +0.000 A 
ATOM     11  C   UNL     1       2.275   4.555  19.695  0.00  0.00    +0.000 A 
ATOM     12  C   UNL     1       1.750   5.767  18.976  0.00  0.00    +0.000 C 
ENDROOT
BRANCH   2  13
ATOM     13  C   UNL     1       1.762   8.676  18.570  0.00  0.00    +0.000 A 
ATOM     14  C   UNL     1       1.623   8.993  19.907  0.00  0.00    +0.000 A 
ATOM     15  C   UNL     1       0.439   9.754  20.024  0.00  0.00    +0.000 A 
ATOM     16  C   UNL     1      -0.107   9.841  18.760  0.00  0.00    +0.000 A 
ATOM     17  O   UNL     1       0.698   9.187  17.876  0.00  0.00    +0.000 OA
BRANCH  16  18
ATOM     18  C   UNL     1      -1.350  10.399  18.241  0.00  0.00    +0.000 A 
ATOM     19  C   UNL     1      -2.031  11.372  18.990  0.00  0.00    +0.000 A 
ATOM     20  C   UNL     1      -3.274  11.857  18.581  0.00  0.00    +0.000 A 
ATOM     21  C   UNL     1      -3.848  11.376  17.410  0.00  0.00    +0.000 A 
ATOM     22 CL   UNL     1      -5.399  11.942  16.931  0.00  0.00    +0.000 Cl
ATOM     23  C   UNL     1      -3.180  10.430  16.635  0.00  0.00    +0.000 A 
ATOM     24  C   UNL     1      -1.931   9.947  17.046  0.00  0.00    +0.000 A 
ENDBRANCH  16  18
ENDBRANCH   2  13
TORSDOF 2
ENDMDL
MODEL 4
REMARK VINA RESULT:      -7.6      6.950      8.786
REMARK  Name = 
REMARK  2 active torsions:
REMARK  status: ('A' for Active; 'I' for Inactive)
REMARK    1  A    between atoms: C_2  and  C_3
REMARK    2  A    between atoms: C_6  and  C_7
REMARK                            x       y       z     vdW  Elec       q    Type
REMARK                         _______ _______ _______ _____ _____    ______ ____
ROOT
ATOM      1  O   UNL     1       5.560   4.767  15.681  0.00  0.00    +0.000 OA
ATOM      2  C   UNL     1       5.450   5.041  16.878  0.00  0.00    +0.000 C 
ATOM      3  N   UNL     1       4.260   4.766  17.562  0.00  0.00    +0.000 N 
ATOM      4  C   UNL     1       3.203   4.056  16.829  0.00  0.00    +0.000 C 
ATOM      5  C   UNL     1       1.807   4.133  17.463  0.00  0.00    +0.000 C 
ATOM      6  C   UNL     1       1.897   3.872  18.939  0.00  0.00    +0.000 A 
ATOM      7  C   UNL     1       0.951   3.102  19.625  0.00  0.00    +0.000 A 
ATOM      8  C   UNL     1       1.096   2.897  21.001  0.00  0.00    +0.000 A 
ATOM      9  C   UNL     1       2.156   3.484  21.694  0.00  0.00    +0.000 A 
ATOM     10  C   UNL     1       3.088   4.266  21.017  0.00  0.00    +0.000 A 
ATOM     11  C   UNL     1       2.962   4.460  19.637  0.00  0.00    +0.000 A 
ATOM     12  C   UNL     1       3.926   5.324  18.873  0.00  0.00    +0.000 C 
ENDROOT
BRANCH   2  13
ATOM     13  C   UNL     1       6.544   5.677  17.588  0.00  0.00    +0.000 A 
ATOM     14  C   UNL     1       7.372   5.178  18.575  0.00  0.00    +0.000 A 
ATOM     15  C   UNL     1       8.186   6.249  19.004  0.00  0.00    +0.000 A 
ATOM     16  C   UNL     1       7.798   7.359  18.284  0.00  0.00    +0.000 A 
ATOM     17  O   UNL     1       6.801   7.012  17.423  0.00  0.00    +0.000 OA
BRANCH  16  18
ATOM     18  C   UNL     1       8.178   8.767  18.330  0.00  0.00    +0.000 A 
ATOM     19  C   UNL     1       7.618   9.659  17.402  0.00  0.00    +0.000 A 
ATOM     20  C   UNL     1       8.030  10.991  17.343  0.00  0.00    +0.000 A 
ATOM     21  C   UNL     1       9.007  11.447  18.222  0.00  0.00    +0.000 A 
ATOM     22 CL   UNL     1       9.544  13.077  18.120  0.00  0.00    +0.000 Cl
ATOM     23  C   UNL     1       9.558  10.588  19.170  0.00  0.00    +0.000 A 
ATOM     24  C   UNL     1       9.140   9.253  19.229  0.00  0.00    +0.000 A 
ENDBRANCH  16  18
ENDBRANCH   2  13
TORSDOF 2
ENDMDL
MODEL 5
REMARK VINA RESULT:      -7.5      7.174      8.890
REMARK  Name = 
REMARK  2 active torsions:
REMARK  status: ('A' for Active; 'I' for Inactive)
REMARK    1  A    between atoms: C_2  and  C_3
REMARK    2  A    between atoms: C_6  and  C_7
REMARK                            x       y       z     vdW  Elec       q    Type
REMARK                         _______ _______ _______ _____ _____    ______ ____
ROOT
ATOM      1  O   UNL     1       5.986   4.402  15.863  0.00  0.00    +0.000 OA
ATOM      2  C   UNL     1       5.754   4.779  17.013  0.00  0.00    +0.000 C 
ATOM      3  N   UNL     1       4.511   4.528  17.604  0.00  0.00    +0.000 N 
ATOM      4  C   UNL     1       3.547   3.722  16.843  0.00  0.00    +0.000 C 
ATOM      5  C   UNL     1       2.094   3.809  17.333  0.00  0.00    +0.000 C 
ATOM      6  C   UNL     1       2.046   3.685  18.827  0.00  0.00    +0.000 A 
ATOM      7  C   UNL     1       1.056   2.949  19.489  0.00  0.00    +0.000 A 
ATOM      8  C   UNL     1       1.072   2.873  20.886  0.00  0.00    +0.000 A 
ATOM      9  C   UNL     1       2.045   3.554  21.619  0.00  0.00    +0.000 A 
ATOM     10  C   UNL     1       3.019   4.302  20.964  0.00  0.00    +0.000 A 
ATOM     11  C   UNL     1       3.024   4.367  19.567  0.00  0.00    +0.000 A 
ATOM     12  C   UNL     1       4.037   5.190  18.820  0.00  0.00    +0.000 C 
ENDROOT
BRANCH   2  13
ATOM     13  C   UNL     1       6.759   5.510  17.763  0.00  0.00    +0.000 A 
ATOM     14  C   UNL     1       7.467   5.145  18.891  0.00  0.00    +0.000 A 
ATOM     15  C   UNL     1       8.226   6.271  19.278  0.00  0.00    +0.000 A 
ATOM     16  C   UNL     1       7.924   7.282  18.390  0.00  0.00    +0.000 A 
ATOM     17  O   UNL     1       7.032   6.820  17.468  0.00  0.00    +0.000 OA
BRANCH  16  18
ATOM     18  C   UNL     1       8.295   8.690  18.309  0.00  0.00    +0.000 A 
ATOM     19  C   UNL     1       9.200   9.216  19.243  0.00  0.00    +0.000 A 
ATOM     20  C   UNL     1       9.504  10.578  19.266  0.00  0.00    +0.000 A 
ATOM     21  C   UNL     1       8.906  11.430  18.344  0.00  0.00    +0.000 A 
ATOM     22 CL   UNL     1       9.248  13.114  18.401  0.00  0.00    +0.000 Cl
ATOM     23  C   UNL     1       8.025  10.928  17.389  0.00  0.00    +0.000 A 
ATOM     24  C   UNL     1       7.725   9.560  17.366  0.00  0.00    +0.000 A 
ENDBRANCH  16  18
ENDBRANCH   2  13
TORSDOF 2
ENDMDL
MODEL 6
REMARK VINA RESULT:      -7.4      4.193      8.363
REMARK  Name = 
REMARK  2 active torsions:
REMARK  status: ('A' for Active; 'I' for Inactive)
REMARK    1  A    between atoms: C_2  and  C_3
REMARK    2  A    between atoms: C_6  and  C_7
REMARK                            x       y       z     vdW  Elec       q    Type
REMARK                         _______ _______ _______ _____ _____    ______ ____
ROOT
ATOM      1  O   UNL     1       1.937   5.698  20.660  0.00  0.00    +0.000 OA
ATOM      2  C   UNL     1       2.422   6.339  19.726  0.00  0.00    +0.000 C 
ATOM      3  N   UNL     1       3.488   5.817  18.985  0.00  0.00    +0.000 N 
ATOM      4  C   UNL     1       3.930   4.451  19.300  0.00  0.00    +0.000 C 
ATOM      5  C   UNL     1       5.319   4.076  18.764  0.00  0.00    +0.000 C 
ATOM      6  C   UNL     1       5.457   4.518  17.336  0.00  0.00    +0.000 A 
ATOM      7  C   UNL     1       6.094   3.736  16.366  0.00  0.00    +0.000 A 
ATOM      8  C   UNL     1       6.186   4.208  15.052  0.00  0.00    +0.000 A 
ATOM      9  C   UNL     1       5.679   5.464  14.715  0.00  0.00    +0.000 A 
ATOM     10  C   UNL     1       5.062   6.252  15.684  0.00  0.00    +0.000 A 
ATOM     11  C   UNL     1       4.947   5.780  16.995  0.00  0.00    +0.000 A 
ATOM     12  C   UNL     1       4.319   6.612  18.079  0.00  0.00    +0.000 C 
ENDROOT
BRANCH   2  13
ATOM     13  C   UNL     1       1.911   7.657  19.397  0.00  0.00    +0.000 A 
ATOM     14  C   UNL     1       2.073   8.413  18.252  0.00  0.00    +0.000 A 
ATOM     15  C   UNL     1       1.469   9.665  18.501  0.00  0.00    +0.000 A 
ATOM     16  C   UNL     1       0.993   9.629  19.795  0.00  0.00    +0.000 A 
ATOM     17  O   UNL     1       1.261   8.409  20.340  0.00  0.00    +0.000 OA
BRANCH  16  18
ATOM     18  C   UNL     1       0.369  10.621  20.662  0.00  0.00    +0.000 A 
ATOM     19  C   UNL     1       0.567  11.986  20.397  0.00  0.00    +0.000 A 
ATOM     20  C   UNL     1       0.074  12.967  21.259  0.00  0.00    +0.000 A 
ATOM     21  C   UNL     1      -0.631  12.590  22.397  0.00  0.00    +0.000 A 
ATOM     22 CL   UNL     1      -1.200  13.798  23.480  0.00  0.00    +0.000 Cl
ATOM     23  C   UNL     1      -0.865  11.243  22.668  0.00  0.00    +0.000 A 
ATOM     24  C   UNL     1      -0.372  10.261  21.799  0.00  0.00    +0.000 A 
ENDBRANCH  16  18
ENDBRANCH   2  13
TORSDOF 2
ENDMDL
MODEL 7
REMARK VINA RESULT:      -7.4      3.883      8.303
REMARK  Name = 
REMARK  2 active torsions:
REMARK  status: ('A' for Active; 'I' for Inactive)
REMARK    1  A    between atoms: C_2  and  C_3
REMARK    2  A    between atoms: C_6  and  C_7
REMARK                            x       y       z     vdW  Elec       q    Type
REMARK                         _______ _______ _______ _____ _____    ______ ____
ROOT
ATOM      1  O   UNL     1       2.125   5.539  20.678  0.00  0.00    +0.000 OA
ATOM      2  C   UNL     1       2.549   6.219  19.741  0.00  0.00    +0.000 C 
ATOM      3  N   UNL     1       3.614   5.760  18.957  0.00  0.00    +0.000 N 
ATOM      4  C   UNL     1       4.128   4.411  19.232  0.00  0.00    +0.000 C 
ATOM      5  C   UNL     1       5.515   4.110  18.645  0.00  0.00    +0.000 C 
ATOM      6  C   UNL     1       5.587   4.583  17.223  0.00  0.00    +0.000 A 
ATOM      7  C   UNL     1       6.227   3.849  16.218  0.00  0.00    +0.000 A 
ATOM      8  C   UNL     1       6.254   4.347  14.911  0.00  0.00    +0.000 A 
ATOM      9  C   UNL     1       5.680   5.585  14.615  0.00  0.00    +0.000 A 
ATOM     10  C   UNL     1       5.059   6.326  15.617  0.00  0.00    +0.000 A 
ATOM     11  C   UNL     1       5.008   5.826  16.922  0.00  0.00    +0.000 A 
ATOM     12  C   UNL     1       4.378   6.608  18.041  0.00  0.00    +0.000 C 
ENDROOT
BRANCH   2  13
ATOM     13  C   UNL     1       1.968   7.517  19.453  0.00  0.00    +0.000 A 
ATOM     14  C   UNL     1       2.161   8.358  18.375  0.00  0.00    +0.000 A 
ATOM     15  C   UNL     1       1.447   9.545  18.651  0.00  0.00    +0.000 A 
ATOM     16  C   UNL     1       0.877   9.388  19.896  0.00  0.00    +0.000 A 
ATOM     17  O   UNL     1       1.193   8.156  20.385  0.00  0.00    +0.000 OA
BRANCH  16  18
ATOM     18  C   UNL     1       0.115  10.274  20.768  0.00  0.00    +0.000 A 
ATOM     19  C   UNL     1      -0.082   9.913  22.111  0.00  0.00    +0.000 A 
ATOM     20  C   UNL     1      -0.890  10.679  22.953  0.00  0.00    +0.000 A 
ATOM     21  C   UNL     1      -1.508  11.822  22.458  0.00  0.00    +0.000 A 
ATOM     22 CL   UNL     1      -2.538  12.740  23.484  0.00  0.00    +0.000 Cl
ATOM     23  C   UNL     1      -1.307  12.216  21.137  0.00  0.00    +0.000 A 
ATOM     24  C   UNL     1      -0.493  11.448  20.296  0.00  0.00    +0.000 A 
ENDBRANCH  16  18
ENDBRANCH   2  13
TORSDOF 2
ENDMDL
MODEL 8
REMARK VINA RESULT:      -7.3      2.739      4.484
REMARK  Name = 
REMARK  2 active torsions:
REMARK  status: ('A' for Active; 'I' for Inactive)
REMARK    1  A    between atoms: C_2  and  C_3
REMARK    2  A    between atoms: C_6  and  C_7
REMARK                            x       y       z     vdW  Elec       q    Type
REMARK                         _______ _______ _______ _____ _____    ______ ____
ROOT
ATOM      1  O   UNL     1      -3.055  11.695  17.631  0.00  0.00    +0.000 OA
ATOM      2  C   UNL     1      -2.539  11.884  18.734  0.00  0.00    +0.000 C 
ATOM      3  N   UNL     1      -3.306  12.370  19.800  0.00  0.00    +0.000 N 
ATOM      4  C   UNL     1      -4.748  12.544  19.576  0.00  0.00    +0.000 C 
ATOM      5  C   UNL     1      -5.463  13.435  20.603  0.00  0.00    +0.000 C 
ATOM      6  C   UNL     1      -5.036  13.064  21.993  0.00  0.00    +0.000 A 
ATOM      7  C   UNL     1      -5.933  13.013  23.066  0.00  0.00    +0.000 A 
ATOM      8  C   UNL     1      -5.467  12.658  24.337  0.00  0.00    +0.000 A 
ATOM      9  C   UNL     1      -4.113  12.391  24.544  0.00  0.00    +0.000 A 
ATOM     10  C   UNL     1      -3.216  12.460  23.481  0.00  0.00    +0.000 A 
ATOM     11  C   UNL     1      -3.675  12.794  22.203  0.00  0.00    +0.000 A 
ATOM     12  C   UNL     1      -2.736  12.912  21.034  0.00  0.00    +0.000 C 
ENDROOT
BRANCH   2  13
ATOM     13  C   UNL     1      -1.125  11.632  18.938  0.00  0.00    +0.000 A 
ATOM     14  C   UNL     1      -0.052  12.500  18.893  0.00  0.00    +0.000 A 
ATOM     15  C   UNL     1       1.113  11.717  19.044  0.00  0.00    +0.000 A 
ATOM     16  C   UNL     1       0.702  10.404  19.145  0.00  0.00    +0.000 A 
ATOM     17  O   UNL     1      -0.658  10.352  19.081  0.00  0.00    +0.000 OA
BRANCH  16  18
ATOM     18  C   UNL     1       1.414   9.134  19.219  0.00  0.00    +0.000 A 
ATOM     19  C   UNL     1       2.142   8.688  18.105  0.00  0.00    +0.000 A 
ATOM     20  C   UNL     1       2.752   7.433  18.096  0.00  0.00    +0.000 A 
ATOM     21  C   UNL     1       2.643   6.609  19.211  0.00  0.00    +0.000 A 
ATOM     22 CL   UNL     1       3.358   5.045  19.183  0.00  0.00    +0.000 Cl
ATOM     23  C   UNL     1       1.948   7.039  20.340  0.00  0.00    +0.000 A 
ATOM     24  C   UNL     1       1.341   8.301  20.347  0.00  0.00    +0.000 A 
ENDBRANCH  16  18
ENDBRANCH   2  13
TORSDOF 2
ENDMDL
MODEL 9
REMARK VINA RESULT:      -7.2      1.933      2.579
REMARK  Name = 
REMARK  2 active torsions:
REMARK  status: ('A' for Active; 'I' for Inactive)
REMARK    1  A    between atoms: C_2  and  C_3
REMARK    2  A    between atoms: C_6  and  C_7
REMARK                            x       y       z     vdW  Elec       q    Type
REMARK                         _______ _______ _______ _____ _____    ______ ____
ROOT
ATOM      1  O   UNL     1       1.037  11.131  20.824  0.00  0.00    +0.000 OA
ATOM      2  C   UNL     1       0.541  10.255  20.112  0.00  0.00    +0.000 C 
ATOM      3  N   UNL     1      -0.591  10.530  19.336  0.00  0.00    +0.000 N 
ATOM      4  C   UNL     1      -1.091  11.912  19.329  0.00  0.00    +0.000 C 
ATOM      5  C   UNL     1      -2.525  12.083  18.808  0.00  0.00    +0.000 C 
ATOM      6  C   UNL     1      -2.714  11.291  17.548  0.00  0.00    +0.000 A 
ATOM      7  C   UNL     1      -3.443  11.777  16.457  0.00  0.00    +0.000 A 
ATOM      8  C   UNL     1      -3.578  10.986  15.310  0.00  0.00    +0.000 A 
ATOM      9  C   UNL     1      -3.020   9.708  15.265  0.00  0.00    +0.000 A 
ATOM     10  C   UNL     1      -2.310   9.215  16.356  0.00  0.00    +0.000 A 
ATOM     11  C   UNL     1      -2.153  10.006  17.499  0.00  0.00    +0.000 A 
ATOM     12  C   UNL     1      -1.422   9.500  18.712  0.00  0.00    +0.000 C 
ENDROOT
BRANCH   2  13
ATOM     13  C   UNL     1       1.106   8.919  20.089  0.00  0.00    +0.000 A 
ATOM     14  C   UNL     1       1.211   7.981  21.097  0.00  0.00    +0.000 A 
ATOM     15  C   UNL     1       1.951   6.899  20.571  0.00  0.00    +0.000 A 
ATOM     16  C   UNL     1       2.290   7.237  19.278  0.00  0.00    +0.000 A 
ATOM     17  O   UNL     1       1.777   8.465  18.984  0.00  0.00    +0.000 OA
BRANCH  16  18
ATOM     18  C   UNL     1       3.115   6.600  18.259  0.00  0.00    +0.000 A 
ATOM     19  C   UNL     1       3.088   5.202  18.128  0.00  0.00    +0.000 A 
ATOM     20  C   UNL     1       3.937   4.544  17.237  0.00  0.00    +0.000 A 
ATOM     21  C   UNL     1       4.822   5.282  16.459  0.00  0.00    +0.000 A 
ATOM     22 CL   UNL     1       5.898   4.468  15.394  0.00  0.00    +0.000 Cl
ATOM     23  C   UNL     1       4.850   6.673  16.551  0.00  0.00    +0.000 A 
ATOM     24  C   UNL     1       3.994   7.330  17.443  0.00  0.00    +0.000 A 
ENDBRANCH  16  18
ENDBRANCH   2  13
TORSDOF 2
ENDMDL
