MODEL 1
REMARK VINA RESULT:      -7.9      0.000      0.000
REMARK  Name = 
REMARK  13 active torsions:
REMARK  status: ('A' for Active; 'I' for Inactive)
REMARK    1  A    between atoms: C_1  and  O_2
REMARK    2  A    between atoms: O_2  and  C_3
REMARK    3  A    between atoms: C_6  and  C_7
REMARK    4  A    between atoms: C_7  and  N_8
REMARK    5  A    between atoms: C_9  and  C_11
REMARK    6  A    between atoms: C_11  and  N_12
REMARK    7  A    between atoms: N_12  and  C_13
REMARK    8  A    between atoms: N_12  and  S_21
REMARK    9  A    between atoms: C_15  and  C_16
REMARK   10  A    between atoms: C_18  and  C_19
REMARK   11  A    between atoms: S_21  and  C_24
REMARK   12  A    between atoms: C_25  and  C_26
REMARK   13  A    between atoms: C_29  and  C_30
REMARK                            x       y       z     vdW  Elec       q    Type
REMARK                         _______ _______ _______ _____ _____    ______ ____
ROOT
ATOM      1  N   UNL     1       2.788   5.872  18.417  0.00  0.00    +0.000 N 
ENDROOT
BRANCH   1   2
ATOM      2  C   UNL     1       4.136   5.721  17.945  0.00  0.00    +0.000 A 
ATOM      3  C   UNL     1       5.162   5.781  18.888  0.00  0.00    +0.000 A 
ATOM      4  C   UNL     1       6.498   5.650  18.499  0.00  0.00    +0.000 A 
ATOM      5  C   UNL     1       7.600   5.740  19.512  0.00  0.00    +0.000 C 
ATOM      6  C   UNL     1       6.793   5.432  17.147  0.00  0.00    +0.000 A 
ATOM      7  C   UNL     1       5.775   5.373  16.191  0.00  0.00    +0.000 A 
ATOM      8  C   UNL     1       6.105   5.106  14.745  0.00  0.00    +0.000 C 
ATOM      9  C   UNL     1       4.443   5.547  16.591  0.00  0.00    +0.000 A 
ENDBRANCH   1   2
BRANCH   1  10
ATOM     10  S   UNL     1       1.877   4.458  18.619  0.00  0.00    +0.000 S 
ATOM     11  O   UNL     1       0.849   4.736  19.602  0.00  0.00    +0.000 OA
ATOM     12  O   UNL     1       1.508   3.935  17.322  0.00  0.00    +0.000 OA
BRANCH  10  13
ATOM     13  C   UNL     1       2.818   3.222  19.340  0.00  0.00    +0.000 A 
ATOM     14  C   UNL     1       2.940   2.880  20.711  0.00  0.00    +0.000 A 
ATOM     15  C   UNL     1       2.300   3.428  21.932  0.00  0.00    +0.000 C 
ATOM     16  N   UNL     1       3.810   1.869  20.871  0.00  0.00    +0.000 NA
ATOM     17  O   UNL     1       4.265   1.549  19.611  0.00  0.00    +0.000 OA
ATOM     18  C   UNL     1       3.669   2.354  18.693  0.00  0.00    +0.000 A 
ATOM     19  C   UNL     1       4.071   2.126  17.292  0.00  0.00    +0.000 C 
ENDBRANCH  10  13
ENDBRANCH   1  10
BRANCH   1  20
ATOM     20  C   UNL     1       2.479   7.032  19.283  0.00  0.00    +0.000 C 
BRANCH  20  22
ATOM     21  N   UNL     1       1.459   9.259  19.103  0.00  0.00    +0.000 N 
ATOM     22  C   UNL     1       2.180   8.276  18.450  0.00  0.00    +0.000 C 
ATOM     23  O   UNL     1       2.581   8.392  17.294  0.00  0.00    +0.000 OA
ATOM     24  H   UNL     1       1.156   9.096  20.055  0.00  0.00    +0.000 HD
BRANCH  21  25
ATOM     25  C   UNL     1       1.060  10.487  18.450  0.00  0.00    +0.000 C 
BRANCH  25  29
ATOM     26  C   UNL     1      -3.244  10.763  18.058  0.00  0.00    +0.000 A 
ATOM     27  C   UNL     1      -2.523   9.809  17.340  0.00  0.00    +0.000 A 
ATOM     28  C   UNL     1      -1.133   9.728  17.460  0.00  0.00    +0.000 A 
ATOM     29  C   UNL     1      -0.436  10.610  18.297  0.00  0.00    +0.000 A 
ATOM     30  C   UNL     1      -1.164  11.590  18.989  0.00  0.00    +0.000 A 
ATOM     31  C   UNL     1      -2.560  11.664  18.872  0.00  0.00    +0.000 A 
BRANCH  26  33
ATOM     32  C   UNL     1      -5.148  11.857  17.167  0.00  0.00    +0.000 C 
ATOM     33  O   UNL     1      -4.597  10.741  17.856  0.00  0.00    +0.000 OA
ENDBRANCH  26  33
ENDBRANCH  25  29
ENDBRANCH  21  25
ENDBRANCH  20  22
ENDBRANCH   1  20
TORSDOF 8
ENDMDL
MODEL 2
REMARK VINA RESULT:      -7.8      1.498      1.761
REMARK  Name = 
REMARK  13 active torsions:
REMARK  status: ('A' for Active; 'I' for Inactive)
REMARK    1  A    between atoms: C_1  and  O_2
REMARK    2  A    between atoms: O_2  and  C_3
REMARK    3  A    between atoms: C_6  and  C_7
REMARK    4  A    between atoms: C_7  and  N_8
REMARK    5  A    between atoms: C_9  and  C_11
REMARK    6  A    between atoms: C_11  and  N_12
REMARK    7  A    between atoms: N_12  and  C_13
REMARK    8  A    between atoms: N_12  and  S_21
REMARK    9  A    between atoms: C_15  and  C_16
REMARK   10  A    between atoms: C_18  and  C_19
REMARK   11  A    between atoms: S_21  and  C_24
REMARK   12  A    between atoms: C_25  and  C_26
REMARK   13  A    between atoms: C_29  and  C_30
REMARK                            x       y       z     vdW  Elec       q    Type
REMARK                         _______ _______ _______ _____ _____    ______ ____
ROOT
ATOM      1  N   UNL     1       3.445   5.060  17.981  0.00  0.00    +0.000 N 
ENDROOT
BRANCH   1   2
ATOM      2  C   UNL     1       4.817   5.139  17.567  0.00  0.00    +0.000 A 
ATOM      3  C   UNL     1       5.775   5.386  18.550  0.00  0.00    +0.000 A 
ATOM      4  C   UNL     1       7.130   5.482  18.218  0.00  0.00    +0.000 A 
ATOM      5  C   UNL     1       8.156   5.773  19.273  0.00  0.00    +0.000 C 
ATOM      6  C   UNL     1       7.516   5.301  16.884  0.00  0.00    +0.000 A 
ATOM      7  C   UNL     1       6.566   5.057  15.888  0.00  0.00    +0.000 A 
ATOM      8  C   UNL     1       6.999   4.832  14.463  0.00  0.00    +0.000 C 
ATOM      9  C   UNL     1       5.207   5.003  16.231  0.00  0.00    +0.000 A 
ENDBRANCH   1   2
BRANCH   1  10
ATOM     10  S   UNL     1       2.781   3.513  18.171  0.00  0.00    +0.000 S 
ATOM     11  O   UNL     1       1.411   3.564  17.701  0.00  0.00    +0.000 OA
ATOM     12  O   UNL     1       3.691   2.530  17.626  0.00  0.00    +0.000 OA
BRANCH  10  13
ATOM     13  C   UNL     1       2.637   3.109  19.829  0.00  0.00    +0.000 A 
ATOM     14  C   UNL     1       1.614   3.460  20.747  0.00  0.00    +0.000 A 
ATOM     15  C   UNL     1       0.359   4.234  20.586  0.00  0.00    +0.000 C 
ATOM     16  N   UNL     1       1.889   2.976  21.969  0.00  0.00    +0.000 NA
ATOM     17  O   UNL     1       3.091   2.314  21.860  0.00  0.00    +0.000 OA
ATOM     18  C   UNL     1       3.539   2.388  20.580  0.00  0.00    +0.000 A 
ATOM     19  C   UNL     1       4.830   1.724  20.318  0.00  0.00    +0.000 C 
ENDBRANCH  10  13
ENDBRANCH   1  10
BRANCH   1  20
ATOM     20  C   UNL     1       2.904   6.160  18.813  0.00  0.00    +0.000 C 
BRANCH  20  22
ATOM     21  N   UNL     1       2.045   8.450  18.596  0.00  0.00    +0.000 N 
ATOM     22  C   UNL     1       2.815   7.460  18.017  0.00  0.00    +0.000 C 
ATOM     23  O   UNL     1       3.414   7.609  16.953  0.00  0.00    +0.000 OA
ATOM     24  H   UNL     1       1.575   8.259  19.472  0.00  0.00    +0.000 HD
BRANCH  21  25
ATOM     25  C   UNL     1       1.826   9.731  17.960  0.00  0.00    +0.000 C 
BRANCH  25  29
ATOM     26  C   UNL     1      -1.921  11.514  19.201  0.00  0.00    +0.000 A 
ATOM     27  C   UNL     1      -1.893  10.533  18.211  0.00  0.00    +0.000 A 
ATOM     28  C   UNL     1      -0.681   9.966  17.804  0.00  0.00    +0.000 A 
ATOM     29  C   UNL     1       0.529  10.379  18.377  0.00  0.00    +0.000 A 
ATOM     30  C   UNL     1       0.497  11.392  19.348  0.00  0.00    +0.000 A 
ATOM     31  C   UNL     1      -0.721  11.954  19.760  0.00  0.00    +0.000 A 
BRANCH  26  33
ATOM     32  C   UNL     1      -3.216  13.029  20.483  0.00  0.00    +0.000 C 
ATOM     33  O   UNL     1      -3.165  11.990  19.512  0.00  0.00    +0.000 OA
ENDBRANCH  26  33
ENDBRANCH  25  29
ENDBRANCH  21  25
ENDBRANCH  20  22
ENDBRANCH   1  20
TORSDOF 8
ENDMDL
MODEL 3
REMARK VINA RESULT:      -7.7      1.145      1.981
REMARK  Name = 
REMARK  13 active torsions:
REMARK  status: ('A' for Active; 'I' for Inactive)
REMARK    1  A    between atoms: C_1  and  O_2
REMARK    2  A    between atoms: O_2  and  C_3
REMARK    3  A    between atoms: C_6  and  C_7
REMARK    4  A    between atoms: C_7  and  N_8
REMARK    5  A    between atoms: C_9  and  C_11
REMARK    6  A    between atoms: C_11  and  N_12
REMARK    7  A    between atoms: N_12  and  C_13
REMARK    8  A    between atoms: N_12  and  S_21
REMARK    9  A    between atoms: C_15  and  C_16
REMARK   10  A    between atoms: C_18  and  C_19
REMARK   11  A    between atoms: S_21  and  C_24
REMARK   12  A    between atoms: C_25  and  C_26
REMARK   13  A    between atoms: C_29  and  C_30
REMARK                            x       y       z     vdW  Elec       q    Type
REMARK                         _______ _______ _______ _____ _____    ______ ____
ROOT
ATOM      1  N   UNL     1       3.298   5.456  17.934  0.00  0.00    +0.000 N 
ENDROOT
BRANCH   1   2
ATOM      2  C   UNL     1       4.668   5.545  17.512  0.00  0.00    +0.000 A 
ATOM      3  C   UNL     1       4.961   5.207  16.191  0.00  0.00    +0.000 A 
ATOM      4  C   UNL     1       6.274   5.264  15.714  0.00  0.00    +0.000 A 
ATOM      5  C   UNL     1       6.589   4.876  14.300  0.00  0.00    +0.000 C 
ATOM      6  C   UNL     1       7.292   5.689  16.577  0.00  0.00    +0.000 A 
ATOM      7  C   UNL     1       7.013   6.027  17.904  0.00  0.00    +0.000 A 
ATOM      8  C   UNL     1       8.112   6.515  18.812  0.00  0.00    +0.000 C 
ATOM      9  C   UNL     1       5.697   5.926  18.379  0.00  0.00    +0.000 A 
ENDBRANCH   1   2
BRANCH   1  10
ATOM     10  S   UNL     1       2.624   3.906  18.051  0.00  0.00    +0.000 S 
ATOM     11  O   UNL     1       1.231   4.005  17.665  0.00  0.00    +0.000 OA
ATOM     12  O   UNL     1       3.488   2.955  17.387  0.00  0.00    +0.000 OA
BRANCH  10  13
ATOM     13  C   UNL     1       2.567   3.386  19.682  0.00  0.00    +0.000 A 
ATOM     14  C   UNL     1       1.632   3.724  20.694  0.00  0.00    +0.000 A 
ATOM     15  C   UNL     1       0.421   4.579  20.679  0.00  0.00    +0.000 C 
ATOM     16  N   UNL     1       1.958   3.133  21.855  0.00  0.00    +0.000 NA
ATOM     17  O   UNL     1       3.106   2.413  21.613  0.00  0.00    +0.000 OA
ATOM     18  C   UNL     1       3.470   2.558  20.312  0.00  0.00    +0.000 A 
ATOM     19  C   UNL     1       4.696   1.842  19.911  0.00  0.00    +0.000 C 
ENDBRANCH  10  13
ENDBRANCH   1  10
BRANCH   1  20
ATOM     20  C   UNL     1       2.774   6.515  18.826  0.00  0.00    +0.000 C 
BRANCH  20  22
ATOM     21  N   UNL     1       1.761   8.747  18.679  0.00  0.00    +0.000 N 
ATOM     22  C   UNL     1       2.601   7.832  18.073  0.00  0.00    +0.000 C 
ATOM     23  O   UNL     1       3.195   8.058  17.020  0.00  0.00    +0.000 OA
ATOM     24  H   UNL     1       1.300   8.494  19.544  0.00  0.00    +0.000 HD
BRANCH  21  25
ATOM     25  C   UNL     1       1.459  10.031  18.084  0.00  0.00    +0.000 C 
BRANCH  25  29
ATOM     26  C   UNL     1      -2.770  10.942  18.310  0.00  0.00    +0.000 A 
ATOM     27  C   UNL     1      -2.309   9.893  17.515  0.00  0.00    +0.000 A 
ATOM     28  C   UNL     1      -0.943   9.607  17.436  0.00  0.00    +0.000 A 
ATOM     29  C   UNL     1      -0.009  10.375  18.145  0.00  0.00    +0.000 A 
ATOM     30  C   UNL     1      -0.477  11.451  18.914  0.00  0.00    +0.000 A 
ATOM     31  C   UNL     1      -1.849  11.731  18.999  0.00  0.00    +0.000 A 
BRANCH  26  33
ATOM     32  C   UNL     1      -4.688  11.635  17.104  0.00  0.00    +0.000 C 
ATOM     33  O   UNL     1      -4.126  11.121  18.305  0.00  0.00    +0.000 OA
ENDBRANCH  26  33
ENDBRANCH  25  29
ENDBRANCH  21  25
ENDBRANCH  20  22
ENDBRANCH   1  20
TORSDOF 8
ENDMDL
MODEL 4
REMARK VINA RESULT:      -7.7      1.549      2.555
REMARK  Name = 
REMARK  13 active torsions:
REMARK  status: ('A' for Active; 'I' for Inactive)
REMARK    1  A    between atoms: C_1  and  O_2
REMARK    2  A    between atoms: O_2  and  C_3
REMARK    3  A    between atoms: C_6  and  C_7
REMARK    4  A    between atoms: C_7  and  N_8
REMARK    5  A    between atoms: C_9  and  C_11
REMARK    6  A    between atoms: C_11  and  N_12
REMARK    7  A    between atoms: N_12  and  C_13
REMARK    8  A    between atoms: N_12  and  S_21
REMARK    9  A    between atoms: C_15  and  C_16
REMARK   10  A    between atoms: C_18  and  C_19
REMARK   11  A    between atoms: S_21  and  C_24
REMARK   12  A    between atoms: C_25  and  C_26
REMARK   13  A    between atoms: C_29  and  C_30
REMARK                            x       y       z     vdW  Elec       q    Type
REMARK                         _______ _______ _______ _____ _____    ______ ____
ROOT
ATOM      1  N   UNL     1       3.494   5.116  18.075  0.00  0.00    +0.000 N 
ENDROOT
BRANCH   1   2
ATOM      2  C   UNL     1       4.885   5.186  17.728  0.00  0.00    +0.000 A 
ATOM      3  C   UNL     1       5.227   5.003  16.389  0.00  0.00    +0.000 A 
ATOM      4  C   UNL     1       6.563   5.052  15.979  0.00  0.00    +0.000 A 
ATOM      5  C   UNL     1       6.929   4.829  14.542  0.00  0.00    +0.000 C 
ATOM      6  C   UNL     1       7.555   5.311  16.933  0.00  0.00    +0.000 A 
ATOM      7  C   UNL     1       7.227   5.492  18.279  0.00  0.00    +0.000 A 
ATOM      8  C   UNL     1       8.302   5.802  19.289  0.00  0.00    +0.000 C 
ATOM      9  C   UNL     1       5.886   5.401  18.680  0.00  0.00    +0.000 A 
ENDBRANCH   1   2
BRANCH   1  10
ATOM     10  S   UNL     1       2.805   3.574  18.206  0.00  0.00    +0.000 S 
ATOM     11  O   UNL     1       1.442   3.660  17.720  0.00  0.00    +0.000 OA
ATOM     12  O   UNL     1       3.708   2.596  17.641  0.00  0.00    +0.000 OA
BRANCH  10  13
ATOM     13  C   UNL     1       2.632   3.118  19.848  0.00  0.00    +0.000 A 
ATOM     14  C   UNL     1       1.584   3.426  20.753  0.00  0.00    +0.000 A 
ATOM     15  C   UNL     1       0.321   4.185  20.587  0.00  0.00    +0.000 C 
ATOM     16  N   UNL     1       1.840   2.910  21.966  0.00  0.00    +0.000 NA
ATOM     17  O   UNL     1       3.055   2.269  21.864  0.00  0.00    +0.000 OA
ATOM     18  C   UNL     1       3.528   2.388  20.596  0.00  0.00    +0.000 A 
ATOM     19  C   UNL     1       4.835   1.751  20.343  0.00  0.00    +0.000 C 
ENDBRANCH  10  13
ENDBRANCH   1  10
BRANCH   1  20
ATOM     20  C   UNL     1       2.926   6.207  18.902  0.00  0.00    +0.000 C 
BRANCH  20  22
ATOM     21  N   UNL     1       1.851   8.394  18.601  0.00  0.00    +0.000 N 
ATOM     22  C   UNL     1       2.753   7.484  18.083  0.00  0.00    +0.000 C 
ATOM     23  O   UNL     1       3.396   7.685  17.055  0.00  0.00    +0.000 OA
ATOM     24  H   UNL     1       1.352   8.162  19.451  0.00  0.00    +0.000 HD
BRANCH  21  25
ATOM     25  C   UNL     1       1.541   9.641  17.935  0.00  0.00    +0.000 C 
BRANCH  25  29
ATOM     26  C   UNL     1      -1.872  11.721  19.603  0.00  0.00    +0.000 A 
ATOM     27  C   UNL     1      -0.626  11.784  20.225  0.00  0.00    +0.000 A 
ATOM     28  C   UNL     1       0.472  11.103  19.691  0.00  0.00    +0.000 A 
ATOM     29  C   UNL     1       0.340  10.337  18.525  0.00  0.00    +0.000 A 
ATOM     30  C   UNL     1      -0.924  10.250  17.924  0.00  0.00    +0.000 A 
ATOM     31  C   UNL     1      -2.024  10.940  18.458  0.00  0.00    +0.000 A 
BRANCH  26  33
ATOM     32  C   UNL     1      -2.743  12.585  21.630  0.00  0.00    +0.000 C 
ATOM     33  O   UNL     1      -2.866  12.429  20.221  0.00  0.00    +0.000 OA
ENDBRANCH  26  33
ENDBRANCH  25  29
ENDBRANCH  21  25
ENDBRANCH  20  22
ENDBRANCH   1  20
TORSDOF 8
ENDMDL
MODEL 5
REMARK VINA RESULT:      -7.6      2.357      3.280
REMARK  Name = 
REMARK  13 active torsions:
REMARK  status: ('A' for Active; 'I' for Inactive)
REMARK    1  A    between atoms: C_1  and  O_2
REMARK    2  A    between atoms: O_2  and  C_3
REMARK    3  A    between atoms: C_6  and  C_7
REMARK    4  A    between atoms: C_7  and  N_8
REMARK    5  A    between atoms: C_9  and  C_11
REMARK    6  A    between atoms: C_11  and  N_12
REMARK    7  A    between atoms: N_12  and  C_13
REMARK    8  A    between atoms: N_12  and  S_21
REMARK    9  A    between atoms: C_15  and  C_16
REMARK   10  A    between atoms: C_18  and  C_19
REMARK   11  A    between atoms: S_21  and  C_24
REMARK   12  A    between atoms: C_25  and  C_26
REMARK   13  A    between atoms: C_29  and  C_30
REMARK                            x       y       z     vdW  Elec       q    Type
REMARK                         _______ _______ _______ _____ _____    ______ ____
ROOT
ATOM      1  N   UNL     1       3.554   5.108  18.127  0.00  0.00    +0.000 N 
ENDROOT
BRANCH   1   2
ATOM      2  C   UNL     1       4.768   5.369  17.406  0.00  0.00    +0.000 A 
ATOM      3  C   UNL     1       4.946   4.723  16.183  0.00  0.00    +0.000 A 
ATOM      4  C   UNL     1       6.107   4.925  15.431  0.00  0.00    +0.000 A 
ATOM      5  C   UNL     1       6.307   4.209  14.129  0.00  0.00    +0.000 C 
ATOM      6  C   UNL     1       7.081   5.809  15.911  0.00  0.00    +0.000 A 
ATOM      7  C   UNL     1       6.918   6.461  17.137  0.00  0.00    +0.000 A 
ATOM      8  C   UNL     1       7.959   7.433  17.626  0.00  0.00    +0.000 C 
ATOM      9  C   UNL     1       5.766   6.216  17.899  0.00  0.00    +0.000 A 
ENDBRANCH   1   2
BRANCH   1  10
ATOM     10  S   UNL     1       3.077   3.489  18.277  0.00  0.00    +0.000 S 
ATOM     11  O   UNL     1       1.786   3.352  17.632  0.00  0.00    +0.000 OA
ATOM     12  O   UNL     1       4.171   2.628  17.885  0.00  0.00    +0.000 OA
BRANCH  10  13
ATOM     13  C   UNL     1       2.768   3.092  19.914  0.00  0.00    +0.000 A 
ATOM     14  C   UNL     1       3.554   2.321  20.808  0.00  0.00    +0.000 A 
ATOM     15  C   UNL     1       4.867   1.651  20.650  0.00  0.00    +0.000 C 
ATOM     16  N   UNL     1       2.943   2.211  22.000  0.00  0.00    +0.000 NA
ATOM     17  O   UNL     1       1.757   2.901  21.890  0.00  0.00    +0.000 OA
ATOM     18  C   UNL     1       1.652   3.434  20.645  0.00  0.00    +0.000 A 
ATOM     19  C   UNL     1       0.418   4.199  20.383  0.00  0.00    +0.000 C 
ENDBRANCH  10  13
ENDBRANCH   1  10
BRANCH   1  20
ATOM     20  C   UNL     1       3.161   6.054  19.196  0.00  0.00    +0.000 C 
BRANCH  20  22
ATOM     21  N   UNL     1       2.077   8.232  19.532  0.00  0.00    +0.000 N 
ATOM     22  C   UNL     1       2.369   7.229  18.627  0.00  0.00    +0.000 C 
ATOM     23  O   UNL     1       2.045   7.277  17.442  0.00  0.00    +0.000 OA
ATOM     24  H   UNL     1       2.370   8.126  20.495  0.00  0.00    +0.000 HD
BRANCH  21  25
ATOM     25  C   UNL     1       1.305   9.400  19.169  0.00  0.00    +0.000 C 
BRANCH  25  29
ATOM     26  C   UNL     1      -1.102  10.866  22.458  0.00  0.00    +0.000 A 
ATOM     27  C   UNL     1      -0.456   9.633  22.543  0.00  0.00    +0.000 A 
ATOM     28  C   UNL     1       0.312   9.157  21.476  0.00  0.00    +0.000 A 
ATOM     29  C   UNL     1       0.440   9.905  20.298  0.00  0.00    +0.000 A 
ATOM     30  C   UNL     1      -0.241  11.128  20.206  0.00  0.00    +0.000 A 
ATOM     31  C   UNL     1      -1.006  11.607  21.281  0.00  0.00    +0.000 A 
BRANCH  26  33
ATOM     32  C   UNL     1      -2.822  12.215  23.373  0.00  0.00    +0.000 C 
ATOM     33  O   UNL     1      -1.822  11.222  23.566  0.00  0.00    +0.000 OA
ENDBRANCH  26  33
ENDBRANCH  25  29
ENDBRANCH  21  25
ENDBRANCH  20  22
ENDBRANCH   1  20
TORSDOF 8
ENDMDL
MODEL 6
REMARK VINA RESULT:      -7.5      1.348      2.425
REMARK  Name = 
REMARK  13 active torsions:
REMARK  status: ('A' for Active; 'I' for Inactive)
REMARK    1  A    between atoms: C_1  and  O_2
REMARK    2  A    between atoms: O_2  and  C_3
REMARK    3  A    between atoms: C_6  and  C_7
REMARK    4  A    between atoms: C_7  and  N_8
REMARK    5  A    between atoms: C_9  and  C_11
REMARK    6  A    between atoms: C_11  and  N_12
REMARK    7  A    between atoms: N_12  and  C_13
REMARK    8  A    between atoms: N_12  and  S_21
REMARK    9  A    between atoms: C_15  and  C_16
REMARK   10  A    between atoms: C_18  and  C_19
REMARK   11  A    between atoms: S_21  and  C_24
REMARK   12  A    between atoms: C_25  and  C_26
REMARK   13  A    between atoms: C_29  and  C_30
REMARK                            x       y       z     vdW  Elec       q    Type
REMARK                         _______ _______ _______ _____ _____    ______ ____
ROOT
ATOM      1  N   UNL     1       3.368   5.361  17.994  0.00  0.00    +0.000 N 
ENDROOT
BRANCH   1   2
ATOM      2  C   UNL     1       4.758   5.402  17.638  0.00  0.00    +0.000 A 
ATOM      3  C   UNL     1       5.091   5.187  16.301  0.00  0.00    +0.000 A 
ATOM      4  C   UNL     1       6.425   5.206  15.885  0.00  0.00    +0.000 A 
ATOM      5  C   UNL     1       6.781   4.949  14.451  0.00  0.00    +0.000 C 
ATOM      6  C   UNL     1       7.427   5.468  16.828  0.00  0.00    +0.000 A 
ATOM      7  C   UNL     1       7.108   5.681  18.172  0.00  0.00    +0.000 A 
ATOM      8  C   UNL     1       8.193   5.994  19.170  0.00  0.00    +0.000 C 
ATOM      9  C   UNL     1       5.768   5.619  18.581  0.00  0.00    +0.000 A 
ENDBRANCH   1   2
BRANCH   1  10
ATOM     10  S   UNL     1       2.653   3.832  18.144  0.00  0.00    +0.000 S 
ATOM     11  O   UNL     1       1.268   3.955  17.733  0.00  0.00    +0.000 OA
ATOM     12  O   UNL     1       3.502   2.841  17.521  0.00  0.00    +0.000 OA
BRANCH  10  13
ATOM     13  C   UNL     1       2.557   3.362  19.788  0.00  0.00    +0.000 A 
ATOM     14  C   UNL     1       3.412   2.496  20.519  0.00  0.00    +0.000 A 
ATOM     15  C   UNL     1       4.642   1.762  20.137  0.00  0.00    +0.000 C 
ATOM     16  N   UNL     1       2.974   2.355  21.781  0.00  0.00    +0.000 NA
ATOM     17  O   UNL     1       1.831   3.117  21.881  0.00  0.00    +0.000 OA
ATOM     18  C   UNL     1       1.583   3.725  20.692  0.00  0.00    +0.000 A 
ATOM     19  C   UNL     1       0.377   4.574  20.651  0.00  0.00    +0.000 C 
ENDBRANCH  10  13
ENDBRANCH   1  10
BRANCH   1  20
ATOM     20  C   UNL     1       2.825   6.470  18.811  0.00  0.00    +0.000 C 
BRANCH  20  22
ATOM     21  N   UNL     1       2.058   8.796  18.627  0.00  0.00    +0.000 N 
ATOM     22  C   UNL     1       2.682   7.745  17.982  0.00  0.00    +0.000 C 
ATOM     23  O   UNL     1       3.120   7.823  16.836  0.00  0.00    +0.000 OA
ATOM     24  H   UNL     1       1.718   8.661  19.571  0.00  0.00    +0.000 HD
BRANCH  21  25
ATOM     25  C   UNL     1       1.811  10.065  17.977  0.00  0.00    +0.000 C 
BRANCH  25  29
ATOM     26  C   UNL     1      -2.166  11.552  18.834  0.00  0.00    +0.000 A 
ATOM     27  C   UNL     1      -1.987  10.340  18.168  0.00  0.00    +0.000 A 
ATOM     28  C   UNL     1      -0.703   9.867  17.883  0.00  0.00    +0.000 A 
ATOM     29  C   UNL     1       0.429  10.605  18.253  0.00  0.00    +0.000 A 
ATOM     30  C   UNL     1       0.241  11.839  18.892  0.00  0.00    +0.000 A 
ATOM     31  C   UNL     1      -1.048  12.309  19.184  0.00  0.00    +0.000 A 
BRANCH  26  33
ATOM     32  C   UNL     1      -3.714  12.707  20.205  0.00  0.00    +0.000 C 
ATOM     33  O   UNL     1      -3.469  11.906  19.056  0.00  0.00    +0.000 OA
ENDBRANCH  26  33
ENDBRANCH  25  29
ENDBRANCH  21  25
ENDBRANCH  20  22
ENDBRANCH   1  20
TORSDOF 8
ENDMDL
MODEL 7
REMARK VINA RESULT:      -7.5      3.443      9.543
REMARK  Name = 
REMARK  13 active torsions:
REMARK  status: ('A' for Active; 'I' for Inactive)
REMARK    1  A    between atoms: C_1  and  O_2
REMARK    2  A    between atoms: O_2  and  C_3
REMARK    3  A    between atoms: C_6  and  C_7
REMARK    4  A    between atoms: C_7  and  N_8
REMARK    5  A    between atoms: C_9  and  C_11
REMARK    6  A    between atoms: C_11  and  N_12
REMARK    7  A    between atoms: N_12  and  C_13
REMARK    8  A    between atoms: N_12  and  S_21
REMARK    9  A    between atoms: C_15  and  C_16
REMARK   10  A    between atoms: C_18  and  C_19
REMARK   11  A    between atoms: S_21  and  C_24
REMARK   12  A    between atoms: C_25  and  C_26
REMARK   13  A    between atoms: C_29  and  C_30
REMARK                            x       y       z     vdW  Elec       q    Type
REMARK                         _______ _______ _______ _____ _____    ______ ____
ROOT
ATOM      1  N   UNL     1      -0.745  11.299  19.343  0.00  0.00    +0.000 N 
ENDROOT
BRANCH   1   2
ATOM      2  C   UNL     1      -1.928  11.221  18.535  0.00  0.00    +0.000 A 
ATOM      3  C   UNL     1      -1.824  10.590  17.295  0.00  0.00    +0.000 A 
ATOM      4  C   UNL     1      -2.935  10.484  16.453  0.00  0.00    +0.000 A 
ATOM      5  C   UNL     1      -2.814   9.827  15.110  0.00  0.00    +0.000 C 
ATOM      6  C   UNL     1      -4.164  11.000  16.881  0.00  0.00    +0.000 A 
ATOM      7  C   UNL     1      -4.282  11.638  18.119  0.00  0.00    +0.000 A 
ATOM      8  C   UNL     1      -5.617  12.160  18.582  0.00  0.00    +0.000 C 
ATOM      9  C   UNL     1      -3.149  11.772  18.936  0.00  0.00    +0.000 A 
ENDBRANCH   1   2
BRANCH   1  10
ATOM     10  S   UNL     1       0.246  12.658  19.136  0.00  0.00    +0.000 S 
ATOM     11  O   UNL     1       1.574  12.184  18.802  0.00  0.00    +0.000 OA
ATOM     12  O   UNL     1      -0.416  13.607  18.269  0.00  0.00    +0.000 OA
BRANCH  10  13
ATOM     13  C   UNL     1       0.462  13.489  20.617  0.00  0.00    +0.000 A 
ATOM     14  C   UNL     1      -0.520  13.959  21.527  0.00  0.00    +0.000 A 
ATOM     15  C   UNL     1      -2.000  13.868  21.525  0.00  0.00    +0.000 C 
ATOM     16  N   UNL     1       0.058  14.596  22.559  0.00  0.00    +0.000 NA
ATOM     17  O   UNL     1       1.415  14.553  22.327  0.00  0.00    +0.000 OA
ATOM     18  C   UNL     1       1.659  13.886  21.169  0.00  0.00    +0.000 A 
ATOM     19  C   UNL     1       3.081  13.769  20.791  0.00  0.00    +0.000 C 
ENDBRANCH  10  13
ENDBRANCH   1  10
BRANCH   1  20
ATOM     20  C   UNL     1      -0.764  10.645  20.672  0.00  0.00    +0.000 C 
BRANCH  20  22
ATOM     21  N   UNL     1       0.888   8.897  20.178  0.00  0.00    +0.000 N 
ATOM     22  C   UNL     1       0.576   9.981  20.978  0.00  0.00    +0.000 C 
ATOM     23  O   UNL     1       1.325  10.407  21.855  0.00  0.00    +0.000 OA
ATOM     24  H   UNL     1       0.223   8.596  19.477  0.00  0.00    +0.000 HD
BRANCH  21  25
ATOM     25  C   UNL     1       2.103   8.131  20.354  0.00  0.00    +0.000 C 
BRANCH  25  29
ATOM     26  C   UNL     1       1.681   4.093  18.845  0.00  0.00    +0.000 A 
ATOM     27  C   UNL     1       1.378   4.392  20.173  0.00  0.00    +0.000 A 
ATOM     28  C   UNL     1       1.525   5.693  20.661  0.00  0.00    +0.000 A 
ATOM     29  C   UNL     1       1.987   6.721  19.828  0.00  0.00    +0.000 A 
ATOM     30  C   UNL     1       2.323   6.406  18.503  0.00  0.00    +0.000 A 
ATOM     31  C   UNL     1       2.168   5.100  18.014  0.00  0.00    +0.000 A 
BRANCH  26  33
ATOM     32  C   UNL     1       2.532   2.193  17.714  0.00  0.00    +0.000 C 
ATOM     33  O   UNL     1       1.496   2.785  18.488  0.00  0.00    +0.000 OA
ENDBRANCH  26  33
ENDBRANCH  25  29
ENDBRANCH  21  25
ENDBRANCH  20  22
ENDBRANCH   1  20
TORSDOF 8
ENDMDL
MODEL 8
REMARK VINA RESULT:      -7.4      2.204      3.144
REMARK  Name = 
REMARK  13 active torsions:
REMARK  status: ('A' for Active; 'I' for Inactive)
REMARK    1  A    between atoms: C_1  and  O_2
REMARK    2  A    between atoms: O_2  and  C_3
REMARK    3  A    between atoms: C_6  and  C_7
REMARK    4  A    between atoms: C_7  and  N_8
REMARK    5  A    between atoms: C_9  and  C_11
REMARK    6  A    between atoms: C_11  and  N_12
REMARK    7  A    between atoms: N_12  and  C_13
REMARK    8  A    between atoms: N_12  and  S_21
REMARK    9  A    between atoms: C_15  and  C_16
REMARK   10  A    between atoms: C_18  and  C_19
REMARK   11  A    between atoms: S_21  and  C_24
REMARK   12  A    between atoms: C_25  and  C_26
REMARK   13  A    between atoms: C_29  and  C_30
REMARK                            x       y       z     vdW  Elec       q    Type
REMARK                         _______ _______ _______ _____ _____    ______ ____
ROOT
ATOM      1  N   UNL     1       3.029   5.802  18.298  0.00  0.00    +0.000 N 
ENDROOT
BRANCH   1   2
ATOM      2  C   UNL     1       4.362   5.639  17.792  0.00  0.00    +0.000 A 
ATOM      3  C   UNL     1       5.415   5.736  18.700  0.00  0.00    +0.000 A 
ATOM      4  C   UNL     1       6.740   5.595  18.276  0.00  0.00    +0.000 A 
ATOM      5  C   UNL     1       7.872   5.725  19.252  0.00  0.00    +0.000 C 
ATOM      6  C   UNL     1       6.995   5.328  16.925  0.00  0.00    +0.000 A 
ATOM      7  C   UNL     1       5.949   5.232  16.003  0.00  0.00    +0.000 A 
ATOM      8  C   UNL     1       6.236   4.912  14.559  0.00  0.00    +0.000 C 
ATOM      9  C   UNL     1       4.629   5.416  16.437  0.00  0.00    +0.000 A 
ENDBRANCH   1   2
BRANCH   1  10
ATOM     10  S   UNL     1       2.099   4.399  18.497  0.00  0.00    +0.000 S 
ATOM     11  O   UNL     1       0.979   4.734  19.353  0.00  0.00    +0.000 OA
ATOM     12  O   UNL     1       1.859   3.796  17.204  0.00  0.00    +0.000 OA
BRANCH  10  13
ATOM     13  C   UNL     1       2.961   3.215  19.384  0.00  0.00    +0.000 A 
ATOM     14  C   UNL     1       2.981   2.989  20.784  0.00  0.00    +0.000 A 
ATOM     15  C   UNL     1       2.271   3.649  21.906  0.00  0.00    +0.000 C 
ATOM     16  N   UNL     1       3.816   1.982  21.088  0.00  0.00    +0.000 NA
ATOM     17  O   UNL     1       4.350   1.549  19.895  0.00  0.00    +0.000 OA
ATOM     18  C   UNL     1       3.836   2.282  18.873  0.00  0.00    +0.000 A 
ATOM     19  C   UNL     1       4.328   1.929  17.527  0.00  0.00    +0.000 C 
ENDBRANCH  10  13
ENDBRANCH   1  10
BRANCH   1  20
ATOM     20  C   UNL     1       2.759   6.951  19.193  0.00  0.00    +0.000 C 
BRANCH  20  22
ATOM     21  N   UNL     1       1.389   8.987  19.094  0.00  0.00    +0.000 N 
ATOM     22  C   UNL     1       2.250   8.155  18.403  0.00  0.00    +0.000 C 
ATOM     23  O   UNL     1       2.611   8.370  17.248  0.00  0.00    +0.000 OA
ATOM     24  H   UNL     1       1.129   8.747  20.042  0.00  0.00    +0.000 HD
BRANCH  21  25
ATOM     25  C   UNL     1       0.786  10.153  18.485  0.00  0.00    +0.000 C 
BRANCH  25  29
ATOM     26  C   UNL     1       2.634  13.897  19.637  0.00  0.00    +0.000 A 
ATOM     27  C   UNL     1       2.885  13.334  18.386  0.00  0.00    +0.000 A 
ATOM     28  C   UNL     1       2.296  12.121  18.020  0.00  0.00    +0.000 A 
ATOM     29  C   UNL     1       1.449  11.442  18.906  0.00  0.00    +0.000 A 
ATOM     30  C   UNL     1       1.229  11.996  20.176  0.00  0.00    +0.000 A 
ATOM     31  C   UNL     1       1.815  13.218  20.538  0.00  0.00    +0.000 A 
BRANCH  26  33
ATOM     32  C   UNL     1       2.438  16.168  20.283  0.00  0.00    +0.000 C 
ATOM     33  O   UNL     1       3.267  15.086  19.876  0.00  0.00    +0.000 OA
ENDBRANCH  26  33
ENDBRANCH  25  29
ENDBRANCH  21  25
ENDBRANCH  20  22
ENDBRANCH   1  20
TORSDOF 8
ENDMDL
MODEL 9
REMARK VINA RESULT:      -7.4      1.159      2.053
REMARK  Name = 
REMARK  13 active torsions:
REMARK  status: ('A' for Active; 'I' for Inactive)
REMARK    1  A    between atoms: C_1  and  O_2
REMARK    2  A    between atoms: O_2  and  C_3
REMARK    3  A    between atoms: C_6  and  C_7
REMARK    4  A    between atoms: C_7  and  N_8
REMARK    5  A    between atoms: C_9  and  C_11
REMARK    6  A    between atoms: C_11  and  N_12
REMARK    7  A    between atoms: N_12  and  C_13
REMARK    8  A    between atoms: N_12  and  S_21
REMARK    9  A    between atoms: C_15  and  C_16
REMARK   10  A    between atoms: C_18  and  C_19
REMARK   11  A    between atoms: S_21  and  C_24
REMARK   12  A    between atoms: C_25  and  C_26
REMARK   13  A    between atoms: C_29  and  C_30
REMARK                            x       y       z     vdW  Elec       q    Type
REMARK                         _______ _______ _______ _____ _____    ______ ____
ROOT
ATOM      1  N   UNL     1       2.929   5.768  18.389  0.00  0.00    +0.000 N 
ENDROOT
BRANCH   1   2
ATOM      2  C   UNL     1       4.292   5.627  17.963  0.00  0.00    +0.000 A 
ATOM      3  C   UNL     1       4.525   5.379  16.610  0.00  0.00    +0.000 A 
ATOM      4  C   UNL     1       5.827   5.224  16.126  0.00  0.00    +0.000 A 
ATOM      5  C   UNL     1       6.072   4.932  14.675  0.00  0.00    +0.000 C 
ATOM      6  C   UNL     1       6.901   5.346  17.016  0.00  0.00    +0.000 A 
ATOM      7  C   UNL     1       6.683   5.591  18.375  0.00  0.00    +0.000 A 
ATOM      8  C   UNL     1       7.849   5.752  19.315  0.00  0.00    +0.000 C 
ATOM      9  C   UNL     1       5.369   5.704  18.852  0.00  0.00    +0.000 A 
ENDBRANCH   1   2
BRANCH   1  10
ATOM     10  S   UNL     1       2.027   4.346  18.581  0.00  0.00    +0.000 S 
ATOM     11  O   UNL     1       0.923   4.645  19.470  0.00  0.00    +0.000 OA
ATOM     12  O   UNL     1       1.767   3.765  17.283  0.00  0.00    +0.000 OA
BRANCH  10  13
ATOM     13  C   UNL     1       2.930   3.159  19.423  0.00  0.00    +0.000 A 
ATOM     14  C   UNL     1       2.983   2.903  20.817  0.00  0.00    +0.000 A 
ATOM     15  C   UNL     1       2.284   3.524  21.968  0.00  0.00    +0.000 C 
ATOM     16  N   UNL     1       3.842   1.905  21.082  0.00  0.00    +0.000 NA
ATOM     17  O   UNL     1       4.359   1.509  19.868  0.00  0.00    +0.000 OA
ATOM     18  C   UNL     1       3.810   2.254  18.874  0.00  0.00    +0.000 A 
ATOM     19  C   UNL     1       4.281   1.941  17.511  0.00  0.00    +0.000 C 
ENDBRANCH  10  13
ENDBRANCH   1  10
BRANCH   1  20
ATOM     20  C   UNL     1       2.579   6.936  19.231  0.00  0.00    +0.000 C 
BRANCH  20  22
ATOM     21  N   UNL     1       1.443   9.100  18.991  0.00  0.00    +0.000 N 
ATOM     22  C   UNL     1       2.230   8.148  18.370  0.00  0.00    +0.000 C 
ATOM     23  O   UNL     1       2.648   8.267  17.220  0.00  0.00    +0.000 OA
ATOM     24  H   UNL     1       1.130   8.936  19.940  0.00  0.00    +0.000 HD
BRANCH  21  25
ATOM     25  C   UNL     1       0.991  10.294  18.310  0.00  0.00    +0.000 C 
BRANCH  25  29
ATOM     26  C   UNL     1      -2.234  12.270  20.420  0.00  0.00    +0.000 A 
ATOM     27  C   UNL     1      -2.281  12.111  19.036  0.00  0.00    +0.000 A 
ATOM     28  C   UNL     1      -1.234  11.482  18.355  0.00  0.00    +0.000 A 
ATOM     29  C   UNL     1      -0.113  11.007  19.050  0.00  0.00    +0.000 A 
ATOM     30  C   UNL     1      -0.057  11.202  20.438  0.00  0.00    +0.000 A 
ATOM     31  C   UNL     1      -1.112  11.827  21.120  0.00  0.00    +0.000 A 
BRANCH  26  33
ATOM     32  C   UNL     1      -4.579  12.601  20.385  0.00  0.00    +0.000 C 
ATOM     33  O   UNL     1      -3.317  12.900  20.970  0.00  0.00    +0.000 OA
ENDBRANCH  26  33
ENDBRANCH  25  29
ENDBRANCH  21  25
ENDBRANCH  20  22
ENDBRANCH   1  20
TORSDOF 8
ENDMDL
