MODEL 1
REMARK VINA RESULT:      -8.0      0.000      0.000
REMARK  Name = 
REMARK  1 active torsions:
REMARK  status: ('A' for Active; 'I' for Inactive)
REMARK    1  A    between atoms: C_1  and  C_2
REMARK                            x       y       z     vdW  Elec       q    Type
REMARK                         _______ _______ _______ _____ _____    ______ ____
ROOT
ATOM      1  C   UNL     1       7.032   4.395  13.492  0.00  0.00    +0.000 C 
ATOM      2  C   UNL     1       6.542   4.433  14.910  0.00  0.00    +0.000 A 
ATOM      3  C   UNL     1       7.424   4.688  15.972  0.00  0.00    +0.000 A 
ATOM      4  C   UNL     1       6.955   4.719  17.288  0.00  0.00    +0.000 A 
ATOM      5  C   UNL     1       5.589   4.507  17.558  0.00  0.00    +0.000 A 
ATOM      6  C   UNL     1       5.061   4.546  18.861  0.00  0.00    +0.000 A 
ATOM      7  O   UNL     1       5.816   4.764  19.797  0.00  0.00    +0.000 OA
ATOM      8  N   UNL     1       3.698   4.353  19.079  0.00  0.00    +0.000 N 
ATOM      9  C   UNL     1       2.876   4.114  18.000  0.00  0.00    +0.000 A 
ATOM     10  N   UNL     1       3.397   4.067  16.746  0.00  0.00    +0.000 NA
ATOM     11  C   UNL     1       4.711   4.257  16.496  0.00  0.00    +0.000 A 
ATOM     12  C   UNL     1       5.185   4.214  15.180  0.00  0.00    +0.000 A 
ATOM     13  C   UNL     1       1.388   3.919  18.116  0.00  0.00    +0.000 C 
ATOM     14  C   UNL     1       1.007   2.672  18.912  0.00  0.00    +0.000 C 
ATOM     15  C   UNL     1       1.137   2.854  20.422  0.00  0.00    +0.000 C 
ATOM     16  C   UNL     1       2.551   3.114  20.942  0.00  0.00    +0.000 C 
ATOM     17  C   UNL     1       3.161   4.436  20.458  0.00  0.00    +0.000 C 
ENDROOT
TORSDOF 0
ENDMDL
MODEL 2
REMARK VINA RESULT:      -7.4      1.588      1.783
REMARK  Name = 
REMARK  1 active torsions:
REMARK  status: ('A' for Active; 'I' for Inactive)
REMARK    1  A    between atoms: C_1  and  C_2
REMARK                            x       y       z     vdW  Elec       q    Type
REMARK                         _______ _______ _______ _____ _____    ______ ____
ROOT
ATOM      1  C   UNL     1       6.776   4.616  14.018  0.00  0.00    +0.000 C 
ATOM      2  C   UNL     1       5.852   4.945  15.154  0.00  0.00    +0.000 A 
ATOM      3  C   UNL     1       5.731   6.260  15.630  0.00  0.00    +0.000 A 
ATOM      4  C   UNL     1       4.868   6.551  16.689  0.00  0.00    +0.000 A 
ATOM      5  C   UNL     1       4.102   5.528  17.280  0.00  0.00    +0.000 A 
ATOM      6  C   UNL     1       3.205   5.770  18.336  0.00  0.00    +0.000 A 
ATOM      7  O   UNL     1       3.090   6.909  18.764  0.00  0.00    +0.000 OA
ATOM      8  N   UNL     1       2.449   4.730  18.876  0.00  0.00    +0.000 N 
ATOM      9  C   UNL     1       2.602   3.460  18.367  0.00  0.00    +0.000 A 
ATOM     10  N   UNL     1       3.479   3.234  17.354  0.00  0.00    +0.000 NA
ATOM     11  C   UNL     1       4.222   4.217  16.801  0.00  0.00    +0.000 A 
ATOM     12  C   UNL     1       5.096   3.926  15.748  0.00  0.00    +0.000 A 
ATOM     13  C   UNL     1       1.819   2.269  18.854  0.00  0.00    +0.000 C 
ATOM     14  C   UNL     1       2.113   1.915  20.311  0.00  0.00    +0.000 C 
ATOM     15  C   UNL     1       1.411   2.832  21.310  0.00  0.00    +0.000 C 
ATOM     16  C   UNL     1       1.829   4.301  21.275  0.00  0.00    +0.000 C 
ATOM     17  C   UNL     1       1.484   5.018  19.963  0.00  0.00    +0.000 C 
ENDROOT
TORSDOF 0
ENDMDL
MODEL 3
REMARK VINA RESULT:      -7.1      1.818      5.760
REMARK  Name = 
REMARK  1 active torsions:
REMARK  status: ('A' for Active; 'I' for Inactive)
REMARK    1  A    between atoms: C_1  and  C_2
REMARK                            x       y       z     vdW  Elec       q    Type
REMARK                         _______ _______ _______ _____ _____    ______ ____
ROOT
ATOM      1  C   UNL     1       1.509   2.417  21.961  0.00  0.00    +0.000 C 
ATOM      2  C   UNL     1       2.026   3.405  20.956  0.00  0.00    +0.000 A 
ATOM      3  C   UNL     1       1.361   4.620  20.729  0.00  0.00    +0.000 A 
ATOM      4  C   UNL     1       1.854   5.529  19.789  0.00  0.00    +0.000 A 
ATOM      5  C   UNL     1       3.030   5.240  19.072  0.00  0.00    +0.000 A 
ATOM      6  C   UNL     1       3.578   6.127  18.130  0.00  0.00    +0.000 A 
ATOM      7  O   UNL     1       3.010   7.188  17.917  0.00  0.00    +0.000 OA
ATOM      8  N   UNL     1       4.758   5.809  17.459  0.00  0.00    +0.000 N 
ATOM      9  C   UNL     1       5.374   4.607  17.726  0.00  0.00    +0.000 A 
ATOM     10  N   UNL     1       4.831   3.750  18.630  0.00  0.00    +0.000 NA
ATOM     11  C   UNL     1       3.694   4.028  19.304  0.00  0.00    +0.000 A 
ATOM     12  C   UNL     1       3.193   3.113  20.236  0.00  0.00    +0.000 A 
ATOM     13  C   UNL     1       6.664   4.172  17.082  0.00  0.00    +0.000 C 
ATOM     14  C   UNL     1       6.545   3.981  15.571  0.00  0.00    +0.000 C 
ATOM     15  C   UNL     1       6.556   5.294  14.792  0.00  0.00    +0.000 C 
ATOM     16  C   UNL     1       5.385   6.239  15.062  0.00  0.00    +0.000 C 
ATOM     17  C   UNL     1       5.336   6.778  16.497  0.00  0.00    +0.000 C 
ENDROOT
TORSDOF 0
ENDMDL
MODEL 4
REMARK VINA RESULT:      -7.0      1.753      2.787
REMARK  Name = 
REMARK  1 active torsions:
REMARK  status: ('A' for Active; 'I' for Inactive)
REMARK    1  A    between atoms: C_1  and  C_2
REMARK                            x       y       z     vdW  Elec       q    Type
REMARK                         _______ _______ _______ _____ _____    ______ ____
ROOT
ATOM      1  C   UNL     1       7.843   7.892  17.439  0.00  0.00    +0.000 C 
ATOM      2  C   UNL     1       6.925   6.705  17.456  0.00  0.00    +0.000 A 
ATOM      3  C   UNL     1       6.982   5.733  16.445  0.00  0.00    +0.000 A 
ATOM      4  C   UNL     1       6.120   4.634  16.472  0.00  0.00    +0.000 A 
ATOM      5  C   UNL     1       5.196   4.485  17.524  0.00  0.00    +0.000 A 
ATOM      6  C   UNL     1       4.319   3.389  17.610  0.00  0.00    +0.000 A 
ATOM      7  O   UNL     1       4.354   2.536  16.736  0.00  0.00    +0.000 OA
ATOM      8  N   UNL     1       3.435   3.271  18.681  0.00  0.00    +0.000 N 
ATOM      9  C   UNL     1       3.426   4.249  19.650  0.00  0.00    +0.000 A 
ATOM     10  N   UNL     1       4.269   5.311  19.553  0.00  0.00    +0.000 NA
ATOM     11  C   UNL     1       5.144   5.454  18.534  0.00  0.00    +0.000 A 
ATOM     12  C   UNL     1       5.999   6.561  18.498  0.00  0.00    +0.000 A 
ATOM     13  C   UNL     1       2.535   4.210  20.863  0.00  0.00    +0.000 C 
ATOM     14  C   UNL     1       1.049   4.287  20.517  0.00  0.00    +0.000 C 
ATOM     15  C   UNL     1       0.477   2.966  20.009  0.00  0.00    +0.000 C 
ATOM     16  C   UNL     1       1.059   2.449  18.693  0.00  0.00    +0.000 C 
ATOM     17  C   UNL     1       2.547   2.087  18.769  0.00  0.00    +0.000 C 
ENDROOT
TORSDOF 0
ENDMDL
MODEL 5
REMARK VINA RESULT:      -6.9      3.591      5.373
REMARK  Name = 
REMARK  1 active torsions:
REMARK  status: ('A' for Active; 'I' for Inactive)
REMARK    1  A    between atoms: C_1  and  C_2
REMARK                            x       y       z     vdW  Elec       q    Type
REMARK                         _______ _______ _______ _____ _____    ______ ____
ROOT
ATOM      1  C   UNL     1       0.545  11.060  19.891  0.00  0.00    +0.000 C 
ATOM      2  C   UNL     1       1.199   9.786  19.445  0.00  0.00    +0.000 A 
ATOM      3  C   UNL     1       1.889   9.716  18.224  0.00  0.00    +0.000 A 
ATOM      4  C   UNL     1       2.492   8.523  17.820  0.00  0.00    +0.000 A 
ATOM      5  C   UNL     1       2.425   7.381  18.642  0.00  0.00    +0.000 A 
ATOM      6  C   UNL     1       3.030   6.162  18.293  0.00  0.00    +0.000 A 
ATOM      7  O   UNL     1       3.631   6.084  17.232  0.00  0.00    +0.000 OA
ATOM      8  N   UNL     1       2.957   5.063  19.148  0.00  0.00    +0.000 N 
ATOM      9  C   UNL     1       2.275   5.188  20.337  0.00  0.00    +0.000 A 
ATOM     10  N   UNL     1       1.683   6.368  20.662  0.00  0.00    +0.000 NA
ATOM     11  C   UNL     1       1.739   7.455  19.862  0.00  0.00    +0.000 A 
ATOM     12  C   UNL     1       1.125   8.648  20.259  0.00  0.00    +0.000 A 
ATOM     13  C   UNL     1       2.155   4.078  21.348  0.00  0.00    +0.000 C 
ATOM     14  C   UNL     1       1.381   2.870  20.823  0.00  0.00    +0.000 C 
ATOM     15  C   UNL     1       2.203   1.983  19.892  0.00  0.00    +0.000 C 
ATOM     16  C   UNL     1       2.659   2.631  18.584  0.00  0.00    +0.000 C 
ATOM     17  C   UNL     1       3.635   3.800  18.773  0.00  0.00    +0.000 C 
ENDROOT
TORSDOF 0
ENDMDL
MODEL 6
REMARK VINA RESULT:      -6.9      1.943      3.177
REMARK  Name = 
REMARK  1 active torsions:
REMARK  status: ('A' for Active; 'I' for Inactive)
REMARK    1  A    between atoms: C_1  and  C_2
REMARK                            x       y       z     vdW  Elec       q    Type
REMARK                         _______ _______ _______ _____ _____    ______ ____
ROOT
ATOM      1  C   UNL     1       8.508   7.674  18.503  0.00  0.00    +0.000 C 
ATOM      2  C   UNL     1       7.421   6.716  18.110  0.00  0.00    +0.000 A 
ATOM      3  C   UNL     1       7.007   6.602  16.773  0.00  0.00    +0.000 A 
ATOM      4  C   UNL     1       5.993   5.708  16.422  0.00  0.00    +0.000 A 
ATOM      5  C   UNL     1       5.387   4.902  17.405  0.00  0.00    +0.000 A 
ATOM      6  C   UNL     1       4.377   3.972  17.103  0.00  0.00    +0.000 A 
ATOM      7  O   UNL     1       4.002   3.864  15.945  0.00  0.00    +0.000 OA
ATOM      8  N   UNL     1       3.821   3.179  18.105  0.00  0.00    +0.000 N 
ATOM      9  C   UNL     1       4.270   3.326  19.398  0.00  0.00    +0.000 A 
ATOM     10  N   UNL     1       5.240   4.234  19.683  0.00  0.00    +0.000 NA
ATOM     11  C   UNL     1       5.806   5.015  18.737  0.00  0.00    +0.000 A 
ATOM     12  C   UNL     1       6.813   5.920  19.089  0.00  0.00    +0.000 A 
ATOM     13  C   UNL     1       3.762   2.504  20.554  0.00  0.00    +0.000 C 
ATOM     14  C   UNL     1       2.281   2.738  20.850  0.00  0.00    +0.000 C 
ATOM     15  C   UNL     1       1.349   2.018  19.879  0.00  0.00    +0.000 C 
ATOM     16  C   UNL     1       1.430   2.465  18.420  0.00  0.00    +0.000 C 
ATOM     17  C   UNL     1       2.783   2.181  17.755  0.00  0.00    +0.000 C 
ENDROOT
TORSDOF 0
ENDMDL
MODEL 7
REMARK VINA RESULT:      -6.8      1.976      2.984
REMARK  Name = 
REMARK  1 active torsions:
REMARK  status: ('A' for Active; 'I' for Inactive)
REMARK    1  A    between atoms: C_1  and  C_2
REMARK                            x       y       z     vdW  Elec       q    Type
REMARK                         _______ _______ _______ _____ _____    ______ ____
ROOT
ATOM      1  C   UNL     1       7.808   7.416  17.358  0.00  0.00    +0.000 C 
ATOM      2  C   UNL     1       6.626   6.492  17.344  0.00  0.00    +0.000 A 
ATOM      3  C   UNL     1       5.906   6.257  16.162  0.00  0.00    +0.000 A 
ATOM      4  C   UNL     1       4.807   5.395  16.163  0.00  0.00    +0.000 A 
ATOM      5  C   UNL     1       4.420   4.744  17.350  0.00  0.00    +0.000 A 
ATOM      6  C   UNL     1       3.334   3.853  17.403  0.00  0.00    +0.000 A 
ATOM      7  O   UNL     1       2.694   3.640  16.384  0.00  0.00    +0.000 OA
ATOM      8  N   UNL     1       2.999   3.212  18.595  0.00  0.00    +0.000 N 
ATOM      9  C   UNL     1       3.744   3.472  19.724  0.00  0.00    +0.000 A 
ATOM     10  N   UNL     1       4.786   4.343  19.666  0.00  0.00    +0.000 NA
ATOM     11  C   UNL     1       5.142   4.977  18.527  0.00  0.00    +0.000 A 
ATOM     12  C   UNL     1       6.236   5.850  18.526  0.00  0.00    +0.000 A 
ATOM     13  C   UNL     1       3.491   2.818  21.056  0.00  0.00    +0.000 C 
ATOM     14  C   UNL     1       2.131   3.177  21.652  0.00  0.00    +0.000 C 
ATOM     15  C   UNL     1       0.971   2.415  21.016  0.00  0.00    +0.000 C 
ATOM     16  C   UNL     1       0.725   2.691  19.533  0.00  0.00    +0.000 C 
ATOM     17  C   UNL     1       1.873   2.249  18.616  0.00  0.00    +0.000 C 
ENDROOT
TORSDOF 0
ENDMDL
MODEL 8
REMARK VINA RESULT:      -6.8      2.435      3.126
REMARK  Name = 
REMARK  1 active torsions:
REMARK  status: ('A' for Active; 'I' for Inactive)
REMARK    1  A    between atoms: C_1  and  C_2
REMARK                            x       y       z     vdW  Elec       q    Type
REMARK                         _______ _______ _______ _____ _____    ______ ____
ROOT
ATOM      1  C   UNL     1       8.072   7.447  17.537  0.00  0.00    +0.000 C 
ATOM      2  C   UNL     1       6.689   6.879  17.672  0.00  0.00    +0.000 A 
ATOM      3  C   UNL     1       5.607   7.438  16.974  0.00  0.00    +0.000 A 
ATOM      4  C   UNL     1       4.325   6.901  17.111  0.00  0.00    +0.000 A 
ATOM      5  C   UNL     1       4.110   5.784  17.941  0.00  0.00    +0.000 A 
ATOM      6  C   UNL     1       2.844   5.192  18.100  0.00  0.00    +0.000 A 
ATOM      7  O   UNL     1       1.891   5.669  17.502  0.00  0.00    +0.000 OA
ATOM      8  N   UNL     1       2.682   4.073  18.914  0.00  0.00    +0.000 N 
ATOM      9  C   UNL     1       3.779   3.560  19.570  0.00  0.00    +0.000 A 
ATOM     10  N   UNL     1       4.996   4.145  19.420  0.00  0.00    +0.000 NA
ATOM     11  C   UNL     1       5.192   5.225  18.633  0.00  0.00    +0.000 A 
ATOM     12  C   UNL     1       6.474   5.773  18.504  0.00  0.00    +0.000 A 
ATOM     13  C   UNL     1       3.726   2.340  20.452  0.00  0.00    +0.000 C 
ATOM     14  C   UNL     1       2.851   2.534  21.689  0.00  0.00    +0.000 C 
ATOM     15  C   UNL     1       1.356   2.432  21.396  0.00  0.00    +0.000 C 
ATOM     16  C   UNL     1       0.786   3.500  20.463  0.00  0.00    +0.000 C 
ATOM     17  C   UNL     1       1.345   3.446  19.036  0.00  0.00    +0.000 C 
ENDROOT
TORSDOF 0
ENDMDL
MODEL 9
REMARK VINA RESULT:      -6.8      1.543      5.946
REMARK  Name = 
REMARK  1 active torsions:
REMARK  status: ('A' for Active; 'I' for Inactive)
REMARK    1  A    between atoms: C_1  and  C_2
REMARK                            x       y       z     vdW  Elec       q    Type
REMARK                         _______ _______ _______ _____ _____    ______ ____
ROOT
ATOM      1  C   UNL     1       1.055   2.481  22.356  0.00  0.00    +0.000 C 
ATOM      2  C   UNL     1       1.586   2.793  20.987  0.00  0.00    +0.000 A 
ATOM      3  C   UNL     1       0.850   2.472  19.836  0.00  0.00    +0.000 A 
ATOM      4  C   UNL     1       1.357   2.767  18.568  0.00  0.00    +0.000 A 
ATOM      5  C   UNL     1       2.607   3.402  18.436  0.00  0.00    +0.000 A 
ATOM      6  C   UNL     1       3.155   3.738  17.186  0.00  0.00    +0.000 A 
ATOM      7  O   UNL     1       2.529   3.463  16.173  0.00  0.00    +0.000 OA
ATOM      8  N   UNL     1       4.386   4.388  17.102  0.00  0.00    +0.000 N 
ATOM      9  C   UNL     1       5.062   4.687  18.264  0.00  0.00    +0.000 A 
ATOM     10  N   UNL     1       4.530   4.348  19.468  0.00  0.00    +0.000 NA
ATOM     11  C   UNL     1       3.337   3.725  19.587  0.00  0.00    +0.000 A 
ATOM     12  C   UNL     1       2.833   3.418  20.855  0.00  0.00    +0.000 A 
ATOM     13  C   UNL     1       6.383   5.409  18.295  0.00  0.00    +0.000 C 
ATOM     14  C   UNL     1       7.511   4.624  17.627  0.00  0.00    +0.000 C 
ATOM     15  C   UNL     1       7.471   4.685  16.102  0.00  0.00    +0.000 C 
ATOM     16  C   UNL     1       6.245   4.057  15.442  0.00  0.00    +0.000 C 
ATOM     17  C   UNL     1       4.925   4.764  15.774  0.00  0.00    +0.000 C 
ENDROOT
TORSDOF 0
ENDMDL
