MODEL 1
REMARK VINA RESULT:      -7.8      0.000      0.000
REMARK  Name = 
REMARK  17 active torsions:
REMARK  status: ('A' for Active; 'I' for Inactive)
REMARK    1  A    between atoms: C_1  and  C_2
REMARK    2  A    between atoms: C_2  and  C_3
REMARK    3  A    between atoms: C_4  and  C_5
REMARK    4  A    between atoms: C_5  and  C_6
REMARK    5  A    between atoms: C_6  and  C_7
REMARK    6  A    between atoms: C_7  and  C_8
REMARK    7  A    between atoms: C_9  and  C_10
REMARK    8  A    between atoms: C_10  and  C_11
REMARK    9  A    between atoms: C_11  and  C_12
REMARK   10  A    between atoms: C_12  and  C_13
REMARK   11  A    between atoms: C_14  and  C_15
REMARK   12  A    between atoms: C_15  and  C_16
REMARK   13  A    between atoms: C_16  and  C_17
REMARK   14  A    between atoms: C_17  and  C_18
REMARK   15  A    between atoms: C_19  and  C_20
REMARK   16  A    between atoms: C_20  and  C_21
REMARK   17  A    between atoms: C_32  and  C_33
REMARK                            x       y       z     vdW  Elec       q    Type
REMARK                         _______ _______ _______ _____ _____    ______ ____
ROOT
ATOM      1  C   UNL     1       0.931   9.427  18.554  0.00  0.00    +0.000 C 
ATOM      2  C   UNL     1       0.828   9.902  19.978  0.00  0.00    +0.000 C 
ATOM      3  C   UNL     1      -0.134   9.410  17.739  0.00  0.00    +0.000 C 
ENDROOT
BRANCH   1   4
ATOM      4  C   UNL     1       2.308   8.985  18.092  0.00  0.00    +0.000 C 
BRANCH   4   5
ATOM      5  C   UNL     1       2.500   7.501  17.698  0.00  0.00    +0.000 C 
BRANCH   5   8
ATOM      6  C   UNL     1       4.837   6.524  17.432  0.00  0.00    +0.000 C 
ATOM      7  C   UNL     1       4.805   6.754  15.944  0.00  0.00    +0.000 C 
ATOM      8  C   UNL     1       3.794   6.898  18.193  0.00  0.00    +0.000 C 
BRANCH   6   9
ATOM      9  C   UNL     1       6.011   5.835  18.114  0.00  0.00    +0.000 C 
BRANCH   9  10
ATOM     10  C   UNL     1       5.759   4.365  18.395  0.00  0.00    +0.000 C 
BRANCH  10  13
ATOM     11  C   UNL     1       3.849   2.796  18.473  0.00  0.00    +0.000 C 
ATOM     12  C   UNL     1       4.377   2.292  19.802  0.00  0.00    +0.000 C 
ATOM     13  C   UNL     1       4.508   3.775  17.820  0.00  0.00    +0.000 C 
BRANCH  11  14
ATOM     14  C   UNL     1       2.584   2.221  17.868  0.00  0.00    +0.000 C 
BRANCH  14  15
ATOM     15  C   UNL     1       1.302   2.713  18.536  0.00  0.00    +0.000 C 
BRANCH  15  19
ATOM     16  C   UNL     1       1.500   5.832  20.821  0.00  0.00    +0.000 C 
ATOM     17  C   UNL     1       1.453   4.411  20.356  0.00  0.00    +0.000 C 
ATOM     18  C   UNL     1       1.524   3.328  21.401  0.00  0.00    +0.000 C 
ATOM     19  C   UNL     1       1.349   4.124  19.041  0.00  0.00    +0.000 C 
ENDBRANCH  15  19
ENDBRANCH  14  15
ENDBRANCH  11  14
ENDBRANCH  10  13
ENDBRANCH   9  10
ENDBRANCH   6   9
ENDBRANCH   5   8
ENDBRANCH   4   5
ENDBRANCH   1   4
BRANCH   3  20
ATOM     20  C   UNL     1      -1.506   9.919  18.017  0.00  0.00    +0.000 C 
BRANCH  20  21
ATOM     21  C   UNL     1      -1.738  11.280  17.339  0.00  0.00    +0.000 C 
ATOM     22  C   UNL     1      -1.420  12.429  18.285  0.00  0.00    +0.000 C 
ATOM     23  O   UNL     1      -0.389  13.091  18.207  0.00  0.00    +0.000 OA
ATOM     24  C   UNL     1      -2.386  12.678  19.376  0.00  0.00    +0.000 A 
ATOM     25  C   UNL     1      -1.983  13.392  20.510  0.00  0.00    +0.000 A 
ATOM     26  C   UNL     1      -2.868  13.548  21.579  0.00  0.00    +0.000 A 
ATOM     27  C   UNL     1      -4.145  12.991  21.513  0.00  0.00    +0.000 A 
ATOM     28  C   UNL     1      -4.550  12.285  20.375  0.00  0.00    +0.000 A 
ATOM     29  C   UNL     1      -3.671  12.138  19.297  0.00  0.00    +0.000 A 
ATOM     30  C   UNL     1      -4.105  11.388  18.086  0.00  0.00    +0.000 C 
ATOM     31  O   UNL     1      -5.164  10.771  18.092  0.00  0.00    +0.000 OA
ATOM     32  C   UNL     1      -3.185  11.458  16.873  0.00  0.00    +0.000 C 
ATOM     33  C   UNL     1      -3.561  10.445  15.793  0.00  0.00    +0.000 C 
ENDBRANCH  20  21
ENDBRANCH   3  20
TORSDOF 11
ENDMDL
MODEL 2
REMARK VINA RESULT:      -7.7      2.868      9.613
REMARK  Name = 
REMARK  17 active torsions:
REMARK  status: ('A' for Active; 'I' for Inactive)
REMARK    1  A    between atoms: C_1  and  C_2
REMARK    2  A    between atoms: C_2  and  C_3
REMARK    3  A    between atoms: C_4  and  C_5
REMARK    4  A    between atoms: C_5  and  C_6
REMARK    5  A    between atoms: C_6  and  C_7
REMARK    6  A    between atoms: C_7  and  C_8
REMARK    7  A    between atoms: C_9  and  C_10
REMARK    8  A    between atoms: C_10  and  C_11
REMARK    9  A    between atoms: C_11  and  C_12
REMARK   10  A    between atoms: C_12  and  C_13
REMARK   11  A    between atoms: C_14  and  C_15
REMARK   12  A    between atoms: C_15  and  C_16
REMARK   13  A    between atoms: C_16  and  C_17
REMARK   14  A    between atoms: C_17  and  C_18
REMARK   15  A    between atoms: C_19  and  C_20
REMARK   16  A    between atoms: C_20  and  C_21
REMARK   17  A    between atoms: C_32  and  C_33
REMARK                            x       y       z     vdW  Elec       q    Type
REMARK                         _______ _______ _______ _____ _____    ______ ____
ROOT
ATOM      1  C   UNL     1       1.984   8.160  18.792  0.00  0.00    +0.000 C 
ATOM      2  C   UNL     1       1.809   7.697  20.213  0.00  0.00    +0.000 C 
ATOM      3  C   UNL     1       2.899   7.607  17.980  0.00  0.00    +0.000 C 
ENDROOT
BRANCH   1   4
ATOM      4  C   UNL     1       1.060   9.271  18.329  0.00  0.00    +0.000 C 
BRANCH   4   5
ATOM      5  C   UNL     1       0.078   9.875  19.360  0.00  0.00    +0.000 C 
BRANCH   5   8
ATOM      6  C   UNL     1       0.957  12.232  19.760  0.00  0.00    +0.000 C 
ATOM      7  C   UNL     1       0.623  12.636  18.349  0.00  0.00    +0.000 C 
ATOM      8  C   UNL     1       0.672  10.990  20.190  0.00  0.00    +0.000 C 
BRANCH   6   9
ATOM      9  C   UNL     1       1.653  13.182  20.725  0.00  0.00    +0.000 C 
BRANCH   9  10
ATOM     10  C   UNL     1       0.686  14.052  21.508  0.00  0.00    +0.000 C 
BRANCH  10  13
ATOM     11  C   UNL     1      -1.749  13.618  21.482  0.00  0.00    +0.000 C 
ATOM     12  C   UNL     1      -1.561  12.750  22.709  0.00  0.00    +0.000 C 
ATOM     13  C   UNL     1      -0.682  14.229  20.925  0.00  0.00    +0.000 C 
BRANCH  11  14
ATOM     14  C   UNL     1      -3.122  13.819  20.872  0.00  0.00    +0.000 C 
BRANCH  14  15
ATOM     15  C   UNL     1      -3.716  12.553  20.259  0.00  0.00    +0.000 C 
BRANCH  15  19
ATOM     16  C   UNL     1      -2.593  10.890  16.949  0.00  0.00    +0.000 C 
ATOM     17  C   UNL     1      -3.445  11.508  18.012  0.00  0.00    +0.000 C 
ATOM     18  C   UNL     1      -4.921  11.640  17.739  0.00  0.00    +0.000 C 
ATOM     19  C   UNL     1      -2.896  11.927  19.172  0.00  0.00    +0.000 C 
ENDBRANCH  15  19
ENDBRANCH  14  15
ENDBRANCH  11  14
ENDBRANCH  10  13
ENDBRANCH   9  10
ENDBRANCH   6   9
ENDBRANCH   5   8
ENDBRANCH   4   5
ENDBRANCH   1   4
BRANCH   3  20
ATOM     20  C   UNL     1       3.784   6.443  18.259  0.00  0.00    +0.000 C 
BRANCH  20  21
ATOM     21  C   UNL     1       3.400   5.235  17.387  0.00  0.00    +0.000 C 
ATOM     22  C   UNL     1       2.104   4.598  17.868  0.00  0.00    +0.000 C 
ATOM     23  O   UNL     1       1.029   4.761  17.298  0.00  0.00    +0.000 OA
ATOM     24  C   UNL     1       2.173   3.817  19.121  0.00  0.00    +0.000 A 
ATOM     25  C   UNL     1       1.005   3.572  19.852  0.00  0.00    +0.000 A 
ATOM     26  C   UNL     1       1.083   2.914  21.080  0.00  0.00    +0.000 A 
ATOM     27  C   UNL     1       2.323   2.507  21.575  0.00  0.00    +0.000 A 
ATOM     28  C   UNL     1       3.488   2.745  20.840  0.00  0.00    +0.000 A 
ATOM     29  C   UNL     1       3.413   3.392  19.603  0.00  0.00    +0.000 A 
ATOM     30  C   UNL     1       4.656   3.642  18.821  0.00  0.00    +0.000 C 
ATOM     31  O   UNL     1       5.752   3.424  19.324  0.00  0.00    +0.000 OA
ATOM     32  C   UNL     1       4.475   4.147  17.395  0.00  0.00    +0.000 C 
ATOM     33  C   UNL     1       5.783   4.639  16.777  0.00  0.00    +0.000 C 
ENDBRANCH  20  21
ENDBRANCH   3  20
TORSDOF 11
ENDMDL
MODEL 3
REMARK VINA RESULT:      -7.7      3.015     10.088
REMARK  Name = 
REMARK  17 active torsions:
REMARK  status: ('A' for Active; 'I' for Inactive)
REMARK    1  A    between atoms: C_1  and  C_2
REMARK    2  A    between atoms: C_2  and  C_3
REMARK    3  A    between atoms: C_4  and  C_5
REMARK    4  A    between atoms: C_5  and  C_6
REMARK    5  A    between atoms: C_6  and  C_7
REMARK    6  A    between atoms: C_7  and  C_8
REMARK    7  A    between atoms: C_9  and  C_10
REMARK    8  A    between atoms: C_10  and  C_11
REMARK    9  A    between atoms: C_11  and  C_12
REMARK   10  A    between atoms: C_12  and  C_13
REMARK   11  A    between atoms: C_14  and  C_15
REMARK   12  A    between atoms: C_15  and  C_16
REMARK   13  A    between atoms: C_16  and  C_17
REMARK   14  A    between atoms: C_17  and  C_18
REMARK   15  A    between atoms: C_19  and  C_20
REMARK   16  A    between atoms: C_20  and  C_21
REMARK   17  A    between atoms: C_32  and  C_33
REMARK                            x       y       z     vdW  Elec       q    Type
REMARK                         _______ _______ _______ _____ _____    ______ ____
ROOT
ATOM      1  C   UNL     1       2.013   7.837  19.070  0.00  0.00    +0.000 C 
ATOM      2  C   UNL     1       2.043   8.850  17.957  0.00  0.00    +0.000 C 
ATOM      3  C   UNL     1       2.738   6.710  19.015  0.00  0.00    +0.000 C 
ENDROOT
BRANCH   1   4
ATOM      4  C   UNL     1       1.130   8.173  20.259  0.00  0.00    +0.000 C 
BRANCH   4   5
ATOM      5  C   UNL     1       0.891   9.665  20.586  0.00  0.00    +0.000 C 
BRANCH   5   8
ATOM      6  C   UNL     1      -0.746  11.318  19.547  0.00  0.00    +0.000 C 
ATOM      7  C   UNL     1       0.382  12.210  19.100  0.00  0.00    +0.000 C 
ATOM      8  C   UNL     1      -0.478  10.167  20.188  0.00  0.00    +0.000 C 
BRANCH   6   9
ATOM      9  C   UNL     1      -2.204  11.696  19.330  0.00  0.00    +0.000 C 
BRANCH   9  10
ATOM     10  C   UNL     1      -2.608  12.961  20.066  0.00  0.00    +0.000 C 
BRANCH  10  13
ATOM     11  C   UNL     1      -4.530  12.892  21.621  0.00  0.00    +0.000 C 
ATOM     12  C   UNL     1      -3.570  12.473  22.716  0.00  0.00    +0.000 C 
ATOM     13  C   UNL     1      -4.065  13.122  20.375  0.00  0.00    +0.000 C 
BRANCH  11  14
ATOM     14  C   UNL     1      -6.009  13.067  21.906  0.00  0.00    +0.000 C 
BRANCH  14  15
ATOM     15  C   UNL     1      -6.917  12.537  20.799  0.00  0.00    +0.000 C 
BRANCH  15  19
ATOM     16  C   UNL     1      -7.221   8.814  19.781  0.00  0.00    +0.000 C 
ATOM     17  C   UNL     1      -6.984  10.289  19.720  0.00  0.00    +0.000 C 
ATOM     18  C   UNL     1      -6.562  10.878  18.399  0.00  0.00    +0.000 C 
ATOM     19  C   UNL     1      -7.148  11.056  20.819  0.00  0.00    +0.000 C 
ENDBRANCH  15  19
ENDBRANCH  14  15
ENDBRANCH  11  14
ENDBRANCH  10  13
ENDBRANCH   9  10
ENDBRANCH   6   9
ENDBRANCH   5   8
ENDBRANCH   4   5
ENDBRANCH   1   4
BRANCH   3  20
ATOM     20  C   UNL     1       3.727   6.309  17.977  0.00  0.00    +0.000 C 
BRANCH  20  21
ATOM     21  C   UNL     1       3.258   5.052  17.223  0.00  0.00    +0.000 C 
ATOM     22  C   UNL     1       1.982   4.488  17.833  0.00  0.00    +0.000 C 
ATOM     23  O   UNL     1       0.876   4.639  17.324  0.00  0.00    +0.000 OA
ATOM     24  C   UNL     1       2.117   3.798  19.134  0.00  0.00    +0.000 A 
ATOM     25  C   UNL     1       0.994   3.639  19.955  0.00  0.00    +0.000 A 
ATOM     26  C   UNL     1       1.139   3.070  21.221  0.00  0.00    +0.000 A 
ATOM     27  C   UNL     1       2.399   2.666  21.663  0.00  0.00    +0.000 A 
ATOM     28  C   UNL     1       3.518   2.817  20.839  0.00  0.00    +0.000 A 
ATOM     29  C   UNL     1       3.376   3.375  19.565  0.00  0.00    +0.000 A 
ATOM     30  C   UNL     1       4.569   3.533  18.688  0.00  0.00    +0.000 C 
ATOM     31  O   UNL     1       5.691   3.322  19.133  0.00  0.00    +0.000 OA
ATOM     32  C   UNL     1       4.306   3.937  17.243  0.00  0.00    +0.000 C 
ATOM     33  C   UNL     1       5.581   4.347  16.506  0.00  0.00    +0.000 C 
ENDBRANCH  20  21
ENDBRANCH   3  20
TORSDOF 11
ENDMDL
MODEL 4
REMARK VINA RESULT:      -7.6      4.725     10.125
REMARK  Name = 
REMARK  17 active torsions:
REMARK  status: ('A' for Active; 'I' for Inactive)
REMARK    1  A    between atoms: C_1  and  C_2
REMARK    2  A    between atoms: C_2  and  C_3
REMARK    3  A    between atoms: C_4  and  C_5
REMARK    4  A    between atoms: C_5  and  C_6
REMARK    5  A    between atoms: C_6  and  C_7
REMARK    6  A    between atoms: C_7  and  C_8
REMARK    7  A    between atoms: C_9  and  C_10
REMARK    8  A    between atoms: C_10  and  C_11
REMARK    9  A    between atoms: C_11  and  C_12
REMARK   10  A    between atoms: C_12  and  C_13
REMARK   11  A    between atoms: C_14  and  C_15
REMARK   12  A    between atoms: C_15  and  C_16
REMARK   13  A    between atoms: C_16  and  C_17
REMARK   14  A    between atoms: C_17  and  C_18
REMARK   15  A    between atoms: C_19  and  C_20
REMARK   16  A    between atoms: C_20  and  C_21
REMARK   17  A    between atoms: C_32  and  C_33
REMARK                            x       y       z     vdW  Elec       q    Type
REMARK                         _______ _______ _______ _____ _____    ______ ____
ROOT
ATOM      1  C   UNL     1       2.098   8.194  18.464  0.00  0.00    +0.000 C 
ATOM      2  C   UNL     1       1.861   7.923  19.925  0.00  0.00    +0.000 C 
ATOM      3  C   UNL     1       2.991   7.488  17.754  0.00  0.00    +0.000 C 
ENDROOT
BRANCH   1   4
ATOM      4  C   UNL     1       1.260   9.295  17.840  0.00  0.00    +0.000 C 
BRANCH   4   5
ATOM      5  C   UNL     1       0.445  10.210  18.785  0.00  0.00    +0.000 C 
BRANCH   5   8
ATOM      6  C   UNL     1       0.401  12.739  19.085  0.00  0.00    +0.000 C 
ATOM      7  C   UNL     1      -1.104  12.757  19.028  0.00  0.00    +0.000 C 
ATOM      8  C   UNL     1       1.063  11.572  19.001  0.00  0.00    +0.000 C 
BRANCH   6   9
ATOM      9  C   UNL     1       1.216  14.019  19.198  0.00  0.00    +0.000 C 
BRANCH   9  10
ATOM     10  C   UNL     1       2.291  14.139  18.132  0.00  0.00    +0.000 C 
BRANCH  10  13
ATOM     11  C   UNL     1       4.515  15.125  18.577  0.00  0.00    +0.000 C 
ATOM     12  C   UNL     1       3.974  16.452  18.085  0.00  0.00    +0.000 C 
ATOM     13  C   UNL     1       3.712  14.041  18.597  0.00  0.00    +0.000 C 
BRANCH  11  14
ATOM     14  C   UNL     1       5.947  14.996  19.057  0.00  0.00    +0.000 C 
BRANCH  14  15
ATOM     15  C   UNL     1       6.988  15.328  17.990  0.00  0.00    +0.000 C 
BRANCH  15  19
ATOM     16  C   UNL     1      10.041  12.951  18.108  0.00  0.00    +0.000 C 
ATOM     17  C   UNL     1       8.669  13.492  17.856  0.00  0.00    +0.000 C 
ATOM     18  C   UNL     1       7.671  12.586  17.183  0.00  0.00    +0.000 C 
ATOM     19  C   UNL     1       8.350  14.750  18.227  0.00  0.00    +0.000 C 
ENDBRANCH  15  19
ENDBRANCH  14  15
ENDBRANCH  11  14
ENDBRANCH  10  13
ENDBRANCH   9  10
ENDBRANCH   6   9
ENDBRANCH   5   8
ENDBRANCH   4   5
ENDBRANCH   1   4
BRANCH   3  20
ATOM     20  C   UNL     1       3.791   6.314  18.200  0.00  0.00    +0.000 C 
BRANCH  20  21
ATOM     21  C   UNL     1       3.429   5.058  17.388  0.00  0.00    +0.000 C 
ATOM     22  C   UNL     1       2.109   4.462  17.855  0.00  0.00    +0.000 C 
ATOM     23  O   UNL     1       1.059   4.598  17.234  0.00  0.00    +0.000 OA
ATOM     24  C   UNL     1       2.120   3.758  19.155  0.00  0.00    +0.000 A 
ATOM     25  C   UNL     1       0.921   3.567  19.852  0.00  0.00    +0.000 A 
ATOM     26  C   UNL     1       0.945   2.985  21.120  0.00  0.00    +0.000 A 
ATOM     27  C   UNL     1       2.160   2.599  21.687  0.00  0.00    +0.000 A 
ATOM     28  C   UNL     1       3.356   2.783  20.987  0.00  0.00    +0.000 A 
ATOM     29  C   UNL     1       3.336   3.353  19.711  0.00  0.00    +0.000 A 
ATOM     30  C   UNL     1       4.611   3.546  18.966  0.00  0.00    +0.000 C 
ATOM     31  O   UNL     1       5.684   3.351  19.524  0.00  0.00    +0.000 OA
ATOM     32  C   UNL     1       4.492   3.964  17.505  0.00  0.00    +0.000 C 
ATOM     33  C   UNL     1       5.828   4.407  16.912  0.00  0.00    +0.000 C 
ENDBRANCH  20  21
ENDBRANCH   3  20
TORSDOF 11
ENDMDL
MODEL 5
REMARK VINA RESULT:      -7.4      2.158      4.236
REMARK  Name = 
REMARK  17 active torsions:
REMARK  status: ('A' for Active; 'I' for Inactive)
REMARK    1  A    between atoms: C_1  and  C_2
REMARK    2  A    between atoms: C_2  and  C_3
REMARK    3  A    between atoms: C_4  and  C_5
REMARK    4  A    between atoms: C_5  and  C_6
REMARK    5  A    between atoms: C_6  and  C_7
REMARK    6  A    between atoms: C_7  and  C_8
REMARK    7  A    between atoms: C_9  and  C_10
REMARK    8  A    between atoms: C_10  and  C_11
REMARK    9  A    between atoms: C_11  and  C_12
REMARK   10  A    between atoms: C_12  and  C_13
REMARK   11  A    between atoms: C_14  and  C_15
REMARK   12  A    between atoms: C_15  and  C_16
REMARK   13  A    between atoms: C_16  and  C_17
REMARK   14  A    between atoms: C_17  and  C_18
REMARK   15  A    between atoms: C_19  and  C_20
REMARK   16  A    between atoms: C_20  and  C_21
REMARK   17  A    between atoms: C_32  and  C_33
REMARK                            x       y       z     vdW  Elec       q    Type
REMARK                         _______ _______ _______ _____ _____    ______ ____
ROOT
ATOM      1  C   UNL     1       1.667   8.343  19.337  0.00  0.00    +0.000 C 
ATOM      2  C   UNL     1       2.037   9.008  18.038  0.00  0.00    +0.000 C 
ATOM      3  C   UNL     1       0.832   8.924  20.212  0.00  0.00    +0.000 C 
ENDROOT
BRANCH   1   4
ATOM      4  C   UNL     1       2.278   6.976  19.590  0.00  0.00    +0.000 C 
BRANCH   4   5
ATOM      5  C   UNL     1       1.778   6.173  20.813  0.00  0.00    +0.000 C 
BRANCH   5   8
ATOM      6  C   UNL     1       1.562   3.635  20.789  0.00  0.00    +0.000 C 
ATOM      7  C   UNL     1       2.789   3.485  21.650  0.00  0.00    +0.000 C 
ATOM      8  C   UNL     1       1.120   4.860  20.456  0.00  0.00    +0.000 C 
BRANCH   6   9
ATOM      9  C   UNL     1       0.814   2.429  20.241  0.00  0.00    +0.000 C 
BRANCH   9  10
ATOM     10  C   UNL     1       0.961   2.267  18.738  0.00  0.00    +0.000 C 
BRANCH  10  13
ATOM     11  C   UNL     1       2.625   3.519  17.405  0.00  0.00    +0.000 C 
ATOM     12  C   UNL     1       1.550   4.546  17.113  0.00  0.00    +0.000 C 
ATOM     13  C   UNL     1       2.336   2.449  18.174  0.00  0.00    +0.000 C 
BRANCH  11  14
ATOM     14  C   UNL     1       4.028   3.679  16.852  0.00  0.00    +0.000 C 
BRANCH  14  15
ATOM     15  C   UNL     1       4.469   5.133  16.700  0.00  0.00    +0.000 C 
BRANCH  15  19
ATOM     16  C   UNL     1       7.680   5.719  18.782  0.00  0.00    +0.000 C 
ATOM     17  C   UNL     1       6.259   5.435  18.409  0.00  0.00    +0.000 C 
ATOM     18  C   UNL     1       5.280   5.177  19.524  0.00  0.00    +0.000 C 
ATOM     19  C   UNL     1       5.882   5.416  17.113  0.00  0.00    +0.000 C 
ENDBRANCH  15  19
ENDBRANCH  14  15
ENDBRANCH  11  14
ENDBRANCH  10  13
ENDBRANCH   9  10
ENDBRANCH   6   9
ENDBRANCH   5   8
ENDBRANCH   4   5
ENDBRANCH   1   4
BRANCH   3  20
ATOM     20  C   UNL     1       0.074  10.195  20.046  0.00  0.00    +0.000 C 
BRANCH  20  21
ATOM     21  C   UNL     1       0.590  11.276  21.012  0.00  0.00    +0.000 C 
ATOM     22  C   UNL     1      -0.380  11.493  22.165  0.00  0.00    +0.000 C 
ATOM     23  O   UNL     1      -0.184  11.052  23.293  0.00  0.00    +0.000 OA
ATOM     24  C   UNL     1      -1.634  12.209  21.851  0.00  0.00    +0.000 A 
ATOM     25  C   UNL     1      -2.740  12.077  22.700  0.00  0.00    +0.000 A 
ATOM     26  C   UNL     1      -3.951  12.679  22.356  0.00  0.00    +0.000 A 
ATOM     27  C   UNL     1      -4.056  13.404  21.169  0.00  0.00    +0.000 A 
ATOM     28  C   UNL     1      -2.949  13.542  20.326  0.00  0.00    +0.000 A 
ATOM     29  C   UNL     1      -1.730  12.952  20.673  0.00  0.00    +0.000 A 
ATOM     30  C   UNL     1      -0.552  13.102  19.774  0.00  0.00    +0.000 C 
ATOM     31  O   UNL     1      -0.686  13.606  18.665  0.00  0.00    +0.000 OA
ATOM     32  C   UNL     1       0.788  12.626  20.321  0.00  0.00    +0.000 C 
ATOM     33  C   UNL     1       1.869  12.557  19.243  0.00  0.00    +0.000 C 
ENDBRANCH  20  21
ENDBRANCH   3  20
TORSDOF 11
ENDMDL
MODEL 6
REMARK VINA RESULT:      -7.4      1.994      3.138
REMARK  Name = 
REMARK  17 active torsions:
REMARK  status: ('A' for Active; 'I' for Inactive)
REMARK    1  A    between atoms: C_1  and  C_2
REMARK    2  A    between atoms: C_2  and  C_3
REMARK    3  A    between atoms: C_4  and  C_5
REMARK    4  A    between atoms: C_5  and  C_6
REMARK    5  A    between atoms: C_6  and  C_7
REMARK    6  A    between atoms: C_7  and  C_8
REMARK    7  A    between atoms: C_9  and  C_10
REMARK    8  A    between atoms: C_10  and  C_11
REMARK    9  A    between atoms: C_11  and  C_12
REMARK   10  A    between atoms: C_12  and  C_13
REMARK   11  A    between atoms: C_14  and  C_15
REMARK   12  A    between atoms: C_15  and  C_16
REMARK   13  A    between atoms: C_16  and  C_17
REMARK   14  A    between atoms: C_17  and  C_18
REMARK   15  A    between atoms: C_19  and  C_20
REMARK   16  A    between atoms: C_20  and  C_21
REMARK   17  A    between atoms: C_32  and  C_33
REMARK                            x       y       z     vdW  Elec       q    Type
REMARK                         _______ _______ _______ _____ _____    ______ ____
ROOT
ATOM      1  C   UNL     1       1.954   9.815  18.571  0.00  0.00    +0.000 C 
ATOM      2  C   UNL     1       2.307  11.232  18.209  0.00  0.00    +0.000 C 
ATOM      3  C   UNL     1       1.363   9.514  19.738  0.00  0.00    +0.000 C 
ENDROOT
BRANCH   1   4
ATOM      4  C   UNL     1       2.290   8.754  17.539  0.00  0.00    +0.000 C 
BRANCH   4   5
ATOM      5  C   UNL     1       2.147   7.270  17.950  0.00  0.00    +0.000 C 
BRANCH   5   8
ATOM      6  C   UNL     1       4.531   6.418  17.668  0.00  0.00    +0.000 C 
ATOM      7  C   UNL     1       4.563   6.873  16.233  0.00  0.00    +0.000 C 
ATOM      8  C   UNL     1       3.437   6.638  18.419  0.00  0.00    +0.000 C 
BRANCH   6   9
ATOM      9  C   UNL     1       5.696   5.669  18.301  0.00  0.00    +0.000 C 
BRANCH   9  10
ATOM     10  C   UNL     1       5.734   4.198  17.926  0.00  0.00    +0.000 C 
BRANCH  10  13
ATOM     11  C   UNL     1       3.817   2.671  18.249  0.00  0.00    +0.000 C 
ATOM     12  C   UNL     1       4.423   2.264  19.577  0.00  0.00    +0.000 C 
ATOM     13  C   UNL     1       4.443   3.585  17.480  0.00  0.00    +0.000 C 
BRANCH  11  14
ATOM     14  C   UNL     1       2.508   2.070  17.773  0.00  0.00    +0.000 C 
BRANCH  14  15
ATOM     15  C   UNL     1       1.320   2.382  18.679  0.00  0.00    +0.000 C 
BRANCH  15  19
ATOM     16  C   UNL     1       1.308   5.529  20.934  0.00  0.00    +0.000 C 
ATOM     17  C   UNL     1       1.381   4.106  20.481  0.00  0.00    +0.000 C 
ATOM     18  C   UNL     1       1.600   3.046  21.529  0.00  0.00    +0.000 C 
ATOM     19  C   UNL     1       1.250   3.796  19.173  0.00  0.00    +0.000 C 
ENDBRANCH  15  19
ENDBRANCH  14  15
ENDBRANCH  11  14
ENDBRANCH  10  13
ENDBRANCH   9  10
ENDBRANCH   6   9
ENDBRANCH   5   8
ENDBRANCH   4   5
ENDBRANCH   1   4
BRANCH   3  20
ATOM     20  C   UNL     1       0.874  10.453  20.784  0.00  0.00    +0.000 C 
BRANCH  20  21
ATOM     21  C   UNL     1      -0.644  10.675  20.662  0.00  0.00    +0.000 C 
ATOM     22  C   UNL     1      -0.976  11.571  19.477  0.00  0.00    +0.000 C 
ATOM     23  O   UNL     1      -1.424  11.138  18.420  0.00  0.00    +0.000 OA
ATOM     24  C   UNL     1      -0.661  13.008  19.622  0.00  0.00    +0.000 A 
ATOM     25  C   UNL     1      -0.524  13.807  18.481  0.00  0.00    +0.000 A 
ATOM     26  C   UNL     1      -0.137  15.141  18.614  0.00  0.00    +0.000 A 
ATOM     27  C   UNL     1       0.113  15.671  19.880  0.00  0.00    +0.000 A 
ATOM     28  C   UNL     1      -0.033  14.875  21.020  0.00  0.00    +0.000 A 
ATOM     29  C   UNL     1      -0.433  13.541  20.892  0.00  0.00    +0.000 A 
ATOM     30  C   UNL     1      -0.589  12.695  22.108  0.00  0.00    +0.000 C 
ATOM     31  O   UNL     1      -0.222  13.114  23.200  0.00  0.00    +0.000 OA
ATOM     32  C   UNL     1      -1.237  11.330  21.911  0.00  0.00    +0.000 C 
ATOM     33  C   UNL     1      -1.100  10.433  23.140  0.00  0.00    +0.000 C 
ENDBRANCH  20  21
ENDBRANCH   3  20
TORSDOF 11
ENDMDL
MODEL 7
REMARK VINA RESULT:      -7.3      4.003      9.999
REMARK  Name = 
REMARK  17 active torsions:
REMARK  status: ('A' for Active; 'I' for Inactive)
REMARK    1  A    between atoms: C_1  and  C_2
REMARK    2  A    between atoms: C_2  and  C_3
REMARK    3  A    between atoms: C_4  and  C_5
REMARK    4  A    between atoms: C_5  and  C_6
REMARK    5  A    between atoms: C_6  and  C_7
REMARK    6  A    between atoms: C_7  and  C_8
REMARK    7  A    between atoms: C_9  and  C_10
REMARK    8  A    between atoms: C_10  and  C_11
REMARK    9  A    between atoms: C_11  and  C_12
REMARK   10  A    between atoms: C_12  and  C_13
REMARK   11  A    between atoms: C_14  and  C_15
REMARK   12  A    between atoms: C_15  and  C_16
REMARK   13  A    between atoms: C_16  and  C_17
REMARK   14  A    between atoms: C_17  and  C_18
REMARK   15  A    between atoms: C_19  and  C_20
REMARK   16  A    between atoms: C_20  and  C_21
REMARK   17  A    between atoms: C_32  and  C_33
REMARK                            x       y       z     vdW  Elec       q    Type
REMARK                         _______ _______ _______ _____ _____    ______ ____
ROOT
ATOM      1  C   UNL     1       2.084   8.362  18.519  0.00  0.00    +0.000 C 
ATOM      2  C   UNL     1       1.741   8.085  19.958  0.00  0.00    +0.000 C 
ATOM      3  C   UNL     1       2.990   7.626  17.857  0.00  0.00    +0.000 C 
ENDROOT
BRANCH   1   4
ATOM      4  C   UNL     1       1.338   9.508  17.859  0.00  0.00    +0.000 C 
BRANCH   4   5
ATOM      5  C   UNL     1      -0.199   9.566  18.029  0.00  0.00    +0.000 C 
BRANCH   5   8
ATOM      6  C   UNL     1      -1.636  11.517  18.813  0.00  0.00    +0.000 C 
ATOM      7  C   UNL     1      -2.412  11.513  17.523  0.00  0.00    +0.000 C 
ATOM      8  C   UNL     1      -0.666  10.609  19.018  0.00  0.00    +0.000 C 
BRANCH   6   9
ATOM      9  C   UNL     1      -1.886  12.555  19.898  0.00  0.00    +0.000 C 
BRANCH   9  10
ATOM     10  C   UNL     1      -0.979  13.768  19.786  0.00  0.00    +0.000 C 
BRANCH  10  13
ATOM     11  C   UNL     1       1.482  13.601  19.960  0.00  0.00    +0.000 C 
ATOM     12  C   UNL     1       1.535  13.494  18.449  0.00  0.00    +0.000 C 
ATOM     13  C   UNL     1       0.291  13.732  20.580  0.00  0.00    +0.000 C 
BRANCH  11  14
ATOM     14  C   UNL     1       2.751  13.573  20.789  0.00  0.00    +0.000 C 
BRANCH  14  15
ATOM     15  C   UNL     1       3.196  14.947  21.283  0.00  0.00    +0.000 C 
BRANCH  15  19
ATOM     16  C   UNL     1       5.539  16.907  18.905  0.00  0.00    +0.000 C 
ATOM     17  C   UNL     1       5.048  15.983  19.974  0.00  0.00    +0.000 C 
ATOM     18  C   UNL     1       6.075  15.203  20.752  0.00  0.00    +0.000 C 
ATOM     19  C   UNL     1       3.727  15.864  20.223  0.00  0.00    +0.000 C 
ENDBRANCH  15  19
ENDBRANCH  14  15
ENDBRANCH  11  14
ENDBRANCH  10  13
ENDBRANCH   9  10
ENDBRANCH   6   9
ENDBRANCH   5   8
ENDBRANCH   4   5
ENDBRANCH   1   4
BRANCH   3  20
ATOM     20  C   UNL     1       3.706   6.412  18.336  0.00  0.00    +0.000 C 
BRANCH  20  21
ATOM     21  C   UNL     1       3.363   5.189  17.467  0.00  0.00    +0.000 C 
ATOM     22  C   UNL     1       2.061   4.541  17.917  0.00  0.00    +0.000 C 
ATOM     23  O   UNL     1       1.002   4.684  17.313  0.00  0.00    +0.000 OA
ATOM     24  C   UNL     1       2.102   3.776  19.181  0.00  0.00    +0.000 A 
ATOM     25  C   UNL     1       0.915   3.525  19.879  0.00  0.00    +0.000 A 
ATOM     26  C   UNL     1       0.964   2.882  21.117  0.00  0.00    +0.000 A 
ATOM     27  C   UNL     1       2.194   2.496  21.654  0.00  0.00    +0.000 A 
ATOM     28  C   UNL     1       3.378   2.740  20.951  0.00  0.00    +0.000 A 
ATOM     29  C   UNL     1       3.331   3.372  19.705  0.00  0.00    +0.000 A 
ATOM     30  C   UNL     1       4.594   3.629  18.958  0.00  0.00    +0.000 C 
ATOM     31  O   UNL     1       5.678   3.430  19.495  0.00  0.00    +0.000 OA
ATOM     32  C   UNL     1       4.450   4.114  17.520  0.00  0.00    +0.000 C 
ATOM     33  C   UNL     1       5.770   4.615  16.936  0.00  0.00    +0.000 C 
ENDBRANCH  20  21
ENDBRANCH   3  20
TORSDOF 11
ENDMDL
MODEL 8
REMARK VINA RESULT:      -7.3      3.089     10.236
REMARK  Name = 
REMARK  17 active torsions:
REMARK  status: ('A' for Active; 'I' for Inactive)
REMARK    1  A    between atoms: C_1  and  C_2
REMARK    2  A    between atoms: C_2  and  C_3
REMARK    3  A    between atoms: C_4  and  C_5
REMARK    4  A    between atoms: C_5  and  C_6
REMARK    5  A    between atoms: C_6  and  C_7
REMARK    6  A    between atoms: C_7  and  C_8
REMARK    7  A    between atoms: C_9  and  C_10
REMARK    8  A    between atoms: C_10  and  C_11
REMARK    9  A    between atoms: C_11  and  C_12
REMARK   10  A    between atoms: C_12  and  C_13
REMARK   11  A    between atoms: C_14  and  C_15
REMARK   12  A    between atoms: C_15  and  C_16
REMARK   13  A    between atoms: C_16  and  C_17
REMARK   14  A    between atoms: C_17  and  C_18
REMARK   15  A    between atoms: C_19  and  C_20
REMARK   16  A    between atoms: C_20  and  C_21
REMARK   17  A    between atoms: C_32  and  C_33
REMARK                            x       y       z     vdW  Elec       q    Type
REMARK                         _______ _______ _______ _____ _____    ______ ____
ROOT
ATOM      1  C   UNL     1       2.022   8.276  18.573  0.00  0.00    +0.000 C 
ATOM      2  C   UNL     1       1.892   8.004  20.048  0.00  0.00    +0.000 C 
ATOM      3  C   UNL     1       2.869   7.579  17.801  0.00  0.00    +0.000 C 
ENDROOT
BRANCH   1   4
ATOM      4  C   UNL     1       1.131   9.370  18.011  0.00  0.00    +0.000 C 
BRANCH   4   5
ATOM      5  C   UNL     1       0.146  10.071  18.977  0.00  0.00    +0.000 C 
BRANCH   5   8
ATOM      6  C   UNL     1       0.540  12.570  19.270  0.00  0.00    +0.000 C 
ATOM      7  C   UNL     1       1.601  12.319  20.309  0.00  0.00    +0.000 C 
ATOM      8  C   UNL     1      -0.073  11.534  18.671  0.00  0.00    +0.000 C 
BRANCH   6   9
ATOM      9  C   UNL     1       0.102  13.978  18.893  0.00  0.00    +0.000 C 
BRANCH   9  10
ATOM     10  C   UNL     1      -1.039  14.497  19.750  0.00  0.00    +0.000 C 
BRANCH  10  13
ATOM     11  C   UNL     1      -1.125  14.566  22.221  0.00  0.00    +0.000 C 
ATOM     12  C   UNL     1      -0.821  16.048  22.144  0.00  0.00    +0.000 C 
ATOM     13  C   UNL     1      -1.227  13.844  21.085  0.00  0.00    +0.000 C 
BRANCH  11  14
ATOM     14  C   UNL     1      -1.325  13.878  23.557  0.00  0.00    +0.000 C 
BRANCH  14  15
ATOM     15  C   UNL     1      -2.414  14.512  24.420  0.00  0.00    +0.000 C 
BRANCH  15  19
ATOM     16  C   UNL     1      -6.038  13.781  23.268  0.00  0.00    +0.000 C 
ATOM     17  C   UNL     1      -4.702  13.649  23.928  0.00  0.00    +0.000 C 
ATOM     18  C   UNL     1      -4.448  12.417  24.758  0.00  0.00    +0.000 C 
ATOM     19  C   UNL     1      -3.763  14.607  23.773  0.00  0.00    +0.000 C 
ENDBRANCH  15  19
ENDBRANCH  14  15
ENDBRANCH  11  14
ENDBRANCH  10  13
ENDBRANCH   9  10
ENDBRANCH   6   9
ENDBRANCH   5   8
ENDBRANCH   4   5
ENDBRANCH   1   4
BRANCH   3  20
ATOM     20  C   UNL     1       3.710   6.413  18.189  0.00  0.00    +0.000 C 
BRANCH  20  21
ATOM     21  C   UNL     1       3.347   5.170  17.357  0.00  0.00    +0.000 C 
ATOM     22  C   UNL     1       2.043   4.547  17.838  0.00  0.00    +0.000 C 
ATOM     23  O   UNL     1       0.980   4.684  17.241  0.00  0.00    +0.000 OA
ATOM     24  C   UNL     1       2.089   3.817  19.122  0.00  0.00    +0.000 A 
ATOM     25  C   UNL     1       0.907   3.597  19.839  0.00  0.00    +0.000 A 
ATOM     26  C   UNL     1       0.963   2.988  21.093  0.00  0.00    +0.000 A 
ATOM     27  C   UNL     1       2.194   2.606  21.628  0.00  0.00    +0.000 A 
ATOM     28  C   UNL     1       3.373   2.819  20.908  0.00  0.00    +0.000 A 
ATOM     29  C   UNL     1       3.321   3.416  19.645  0.00  0.00    +0.000 A 
ATOM     30  C   UNL     1       4.578   3.640  18.879  0.00  0.00    +0.000 C 
ATOM     31  O   UNL     1       5.665   3.446  19.412  0.00  0.00    +0.000 OA
ATOM     32  C   UNL     1       4.425   4.087  17.430  0.00  0.00    +0.000 C 
ATOM     33  C   UNL     1       5.743   4.559  16.819  0.00  0.00    +0.000 C 
ENDBRANCH  20  21
ENDBRANCH   3  20
TORSDOF 11
ENDMDL
MODEL 9
REMARK VINA RESULT:      -7.3      4.886     10.171
REMARK  Name = 
REMARK  17 active torsions:
REMARK  status: ('A' for Active; 'I' for Inactive)
REMARK    1  A    between atoms: C_1  and  C_2
REMARK    2  A    between atoms: C_2  and  C_3
REMARK    3  A    between atoms: C_4  and  C_5
REMARK    4  A    between atoms: C_5  and  C_6
REMARK    5  A    between atoms: C_6  and  C_7
REMARK    6  A    between atoms: C_7  and  C_8
REMARK    7  A    between atoms: C_9  and  C_10
REMARK    8  A    between atoms: C_10  and  C_11
REMARK    9  A    between atoms: C_11  and  C_12
REMARK   10  A    between atoms: C_12  and  C_13
REMARK   11  A    between atoms: C_14  and  C_15
REMARK   12  A    between atoms: C_15  and  C_16
REMARK   13  A    between atoms: C_16  and  C_17
REMARK   14  A    between atoms: C_17  and  C_18
REMARK   15  A    between atoms: C_19  and  C_20
REMARK   16  A    between atoms: C_20  and  C_21
REMARK   17  A    between atoms: C_32  and  C_33
REMARK                            x       y       z     vdW  Elec       q    Type
REMARK                         _______ _______ _______ _____ _____    ______ ____
ROOT
ATOM      1  C   UNL     1       1.884   8.368  18.582  0.00  0.00    +0.000 C 
ATOM      2  C   UNL     1       1.694   8.083  20.048  0.00  0.00    +0.000 C 
ATOM      3  C   UNL     1       2.768   7.683  17.841  0.00  0.00    +0.000 C 
ENDROOT
BRANCH   1   4
ATOM      4  C   UNL     1       1.009   9.460  17.991  0.00  0.00    +0.000 C 
BRANCH   4   5
ATOM      5  C   UNL     1       0.005  10.171  18.929  0.00  0.00    +0.000 C 
BRANCH   5   8
ATOM      6  C   UNL     1       0.498  12.618  19.433  0.00  0.00    +0.000 C 
ATOM      7  C   UNL     1      -0.339  13.067  18.265  0.00  0.00    +0.000 C 
ATOM      8  C   UNL     1       0.607  11.309  19.720  0.00  0.00    +0.000 C 
BRANCH   6   9
ATOM      9  C   UNL     1       1.269  13.607  20.296  0.00  0.00    +0.000 C 
BRANCH   9  10
ATOM     10  C   UNL     1       2.009  14.657  19.484  0.00  0.00    +0.000 C 
BRANCH  10  13
ATOM     11  C   UNL     1       4.056  14.984  18.138  0.00  0.00    +0.000 C 
ATOM     12  C   UNL     1       3.278  15.955  17.274  0.00  0.00    +0.000 C 
ATOM     13  C   UNL     1       3.448  14.378  19.179  0.00  0.00    +0.000 C 
BRANCH  11  14
ATOM     14  C   UNL     1       5.516  14.686  17.856  0.00  0.00    +0.000 C 
BRANCH  14  15
ATOM     15  C   UNL     1       6.455  15.063  18.999  0.00  0.00    +0.000 C 
BRANCH  15  19
ATOM     16  C   UNL     1      10.243  14.455  19.522  0.00  0.00    +0.000 C 
ATOM     17  C   UNL     1       8.821  14.857  19.759  0.00  0.00    +0.000 C 
ATOM     18  C   UNL     1       8.477  15.465  21.093  0.00  0.00    +0.000 C 
ATOM     19  C   UNL     1       7.890  14.676  18.799  0.00  0.00    +0.000 C 
ENDBRANCH  15  19
ENDBRANCH  14  15
ENDBRANCH  11  14
ENDBRANCH  10  13
ENDBRANCH   9  10
ENDBRANCH   6   9
ENDBRANCH   5   8
ENDBRANCH   4   5
ENDBRANCH   1   4
BRANCH   3  20
ATOM     20  C   UNL     1       3.600   6.520  18.255  0.00  0.00    +0.000 C 
BRANCH  20  21
ATOM     21  C   UNL     1       3.292   5.285  17.390  0.00  0.00    +0.000 C 
ATOM     22  C   UNL     1       2.016   4.593  17.851  0.00  0.00    +0.000 C 
ATOM     23  O   UNL     1       0.948   4.699  17.256  0.00  0.00    +0.000 OA
ATOM     24  C   UNL     1       2.093   3.832  19.116  0.00  0.00    +0.000 A 
ATOM     25  C   UNL     1       0.922   3.541  19.824  0.00  0.00    +0.000 A 
ATOM     26  C   UNL     1       1.003   2.902  21.062  0.00  0.00    +0.000 A 
ATOM     27  C   UNL     1       2.249   2.560  21.589  0.00  0.00    +0.000 A 
ATOM     28  C   UNL     1       3.418   2.843  20.877  0.00  0.00    +0.000 A 
ATOM     29  C   UNL     1       3.341   3.471  19.630  0.00  0.00    +0.000 A 
ATOM     30  C   UNL     1       4.588   3.770  18.872  0.00  0.00    +0.000 C 
ATOM     31  O   UNL     1       5.682   3.610  19.402  0.00  0.00    +0.000 OA
ATOM     32  C   UNL     1       4.416   4.248  17.436  0.00  0.00    +0.000 C 
ATOM     33  C   UNL     1       5.713   4.793  16.840  0.00  0.00    +0.000 C 
ENDBRANCH  20  21
ENDBRANCH   3  20
TORSDOF 11
ENDMDL
