MODEL 1
REMARK VINA RESULT:      -8.7      0.000      0.000
REMARK  Name = 
REMARK  5 active torsions:
REMARK  status: ('A' for Active; 'I' for Inactive)
REMARK    1  A    between atoms: C_2  and  C_20
REMARK    2  A    between atoms: N_3  and  C_4
REMARK    3  A    between atoms: C_4  and  C_5
REMARK    4  A    between atoms: C_5  and  N_6
REMARK    5  A    between atoms: N_9  and  C_10
REMARK                            x       y       z     vdW  Elec       q    Type
REMARK                         _______ _______ _______ _____ _____    ______ ____
ROOT
ATOM      1  C   UNL     1       3.294   5.093  19.408  0.00  0.00    +0.000 C 
ENDROOT
BRANCH   1   4
ATOM      2  O   UNL     1       2.978   7.521  18.033  0.00  0.00    +0.000 OA
ATOM      3  C   UNL     1       2.461   7.398  19.139  0.00  0.00    +0.000 C 
ATOM      4  N   UNL     1       2.633   6.278  19.929  0.00  0.00    +0.000 N 
ATOM      5  H   UNL     1       2.133   6.245  20.814  0.00  0.00    +0.000 HD
BRANCH   3   6
ATOM      6  C   UNL     1       1.579   8.467  19.688  0.00  0.00    +0.000 A 
ATOM      7  C   UNL     1       1.237   9.532  18.874  0.00  0.00    +0.000 A 
ATOM      8  N   UNL     1       0.443  10.542  19.299  0.00  0.00    +0.000 NA
ATOM      9  C   UNL     1       0.001  10.461  20.565  0.00  0.00    +0.000 A 
ATOM     10  C   UNL     1      -0.799  11.482  21.060  0.00  0.00    +0.000 A 
ATOM     11  C   UNL     1      -1.277  11.461  22.369  0.00  0.00    +0.000 A 
ATOM     12  C   UNL     1      -0.954  10.392  23.197  0.00  0.00    +0.000 A 
ATOM     13  C   UNL     1      -0.155   9.354  22.707  0.00  0.00    +0.000 A 
ATOM     14  C   UNL     1       0.340   9.363  21.406  0.00  0.00    +0.000 A 
ATOM     15  N   UNL     1       1.130   8.352  20.970  0.00  0.00    +0.000 NA
ENDBRANCH   3   6
ENDBRANCH   1   4
BRANCH   1  16
ATOM     16  C   UNL     1       4.829   5.110  19.592  0.00  0.00    +0.000 C 
BRANCH  16  17
ATOM     17  N   UNL     1       5.531   4.154  18.709  0.00  0.00    +0.000 NA
ATOM     18  C   UNL     1       4.660   3.593  17.643  0.00  0.00    +0.000 C 
ATOM     19  C   UNL     1       4.325   4.541  16.467  0.00  0.00    +0.000 C 
ATOM     20  N   UNL     1       5.536   5.159  15.902  0.00  0.00    +0.000 N 
ATOM     21  C   UNL     1       6.419   5.772  16.911  0.00  0.00    +0.000 C 
ATOM     22  C   UNL     1       6.717   4.771  18.059  0.00  0.00    +0.000 C 
BRANCH  20  23
ATOM     23  C   UNL     1       6.060   4.768  14.679  0.00  0.00    +0.000 A 
ATOM     24  C   UNL     1       7.243   5.351  14.193  0.00  0.00    +0.000 A 
ATOM     25  C   UNL     1       7.746   5.036  12.929  0.00  0.00    +0.000 A 
ATOM     26  F   UNL     1       8.859   5.641  12.494  0.00  0.00    +0.000 F 
ATOM     27  C   UNL     1       7.104   4.126  12.110  0.00  0.00    +0.000 A 
ATOM     28  C   UNL     1       5.950   3.526  12.581  0.00  0.00    +0.000 A 
ATOM     29  F   UNL     1       5.311   2.634  11.811  0.00  0.00    +0.000 F 
ATOM     30  C   UNL     1       5.431   3.837  13.841  0.00  0.00    +0.000 A 
ENDBRANCH  20  23
ENDBRANCH  16  17
ENDBRANCH   1  16
TORSDOF 5
ENDMDL
MODEL 2
REMARK VINA RESULT:      -8.7      6.443      8.454
REMARK  Name = 
REMARK  5 active torsions:
REMARK  status: ('A' for Active; 'I' for Inactive)
REMARK    1  A    between atoms: C_2  and  C_20
REMARK    2  A    between atoms: N_3  and  C_4
REMARK    3  A    between atoms: C_4  and  C_5
REMARK    4  A    between atoms: C_5  and  N_6
REMARK    5  A    between atoms: N_9  and  C_10
REMARK                            x       y       z     vdW  Elec       q    Type
REMARK                         _______ _______ _______ _____ _____    ______ ____
ROOT
ATOM      1  C   UNL     1       8.237   8.211  18.152  0.00  0.00    +0.000 C 
ENDROOT
BRANCH   1   4
ATOM      2  O   UNL     1       9.221  10.103  19.979  0.00  0.00    +0.000 OA
ATOM      3  C   UNL     1       9.152  10.409  18.792  0.00  0.00    +0.000 C 
ATOM      4  N   UNL     1       8.602   9.581  17.833  0.00  0.00    +0.000 N 
ATOM      5  H   UNL     1       8.624   9.899  16.868  0.00  0.00    +0.000 HD
BRANCH   3   6
ATOM      6  C   UNL     1       9.696  11.711  18.310  0.00  0.00    +0.000 A 
ATOM      7  C   UNL     1      10.957  11.737  17.743  0.00  0.00    +0.000 A 
ATOM      8  N   UNL     1      11.521  12.878  17.284  0.00  0.00    +0.000 NA
ATOM      9  C   UNL     1      10.790  13.997  17.412  0.00  0.00    +0.000 A 
ATOM     10  C   UNL     1      11.330  15.201  16.979  0.00  0.00    +0.000 A 
ATOM     11  C   UNL     1      10.625  16.398  17.096  0.00  0.00    +0.000 A 
ATOM     12  C   UNL     1       9.351  16.388  17.651  0.00  0.00    +0.000 A 
ATOM     13  C   UNL     1       8.794  15.181  18.085  0.00  0.00    +0.000 A 
ATOM     14  C   UNL     1       9.487  13.978  17.986  0.00  0.00    +0.000 A 
ATOM     15  N   UNL     1       8.927  12.829  18.435  0.00  0.00    +0.000 NA
ENDBRANCH   3   6
ENDBRANCH   1   4
BRANCH   1  16
ATOM     16  C   UNL     1       7.007   7.699  17.367  0.00  0.00    +0.000 C 
BRANCH  16  17
ATOM     17  N   UNL     1       6.888   6.226  17.369  0.00  0.00    +0.000 NA
ATOM     18  C   UNL     1       6.666   5.657  18.724  0.00  0.00    +0.000 C 
ATOM     19  C   UNL     1       5.249   5.843  19.318  0.00  0.00    +0.000 C 
ATOM     20  N   UNL     1       4.202   5.412  18.376  0.00  0.00    +0.000 N 
ATOM     21  C   UNL     1       4.346   5.981  17.024  0.00  0.00    +0.000 C 
ATOM     22  C   UNL     1       5.785   5.760  16.487  0.00  0.00    +0.000 C 
BRANCH  20  23
ATOM     23  C   UNL     1       3.492   4.234  18.553  0.00  0.00    +0.000 A 
ATOM     24  C   UNL     1       2.168   4.266  19.021  0.00  0.00    +0.000 A 
ATOM     25  C   UNL     1       1.460   3.092  19.286  0.00  0.00    +0.000 A 
ATOM     26  F   UNL     1       0.210   3.170  19.763  0.00  0.00    +0.000 F 
ATOM     27  C   UNL     1       2.033   1.849  19.087  0.00  0.00    +0.000 A 
ATOM     28  C   UNL     1       3.329   1.800  18.605  0.00  0.00    +0.000 A 
ATOM     29  F   UNL     1       3.907   0.609  18.394  0.00  0.00    +0.000 F 
ATOM     30  C   UNL     1       4.052   2.966  18.341  0.00  0.00    +0.000 A 
ENDBRANCH  20  23
ENDBRANCH  16  17
ENDBRANCH   1  16
TORSDOF 5
ENDMDL
MODEL 3
REMARK VINA RESULT:      -8.6      3.514      8.935
REMARK  Name = 
REMARK  5 active torsions:
REMARK  status: ('A' for Active; 'I' for Inactive)
REMARK    1  A    between atoms: C_2  and  C_20
REMARK    2  A    between atoms: N_3  and  C_4
REMARK    3  A    between atoms: C_4  and  C_5
REMARK    4  A    between atoms: C_5  and  N_6
REMARK    5  A    between atoms: N_9  and  C_10
REMARK                            x       y       z     vdW  Elec       q    Type
REMARK                         _______ _______ _______ _____ _____    ______ ____
ROOT
ATOM      1  C   UNL     1       4.088   2.549  19.243  0.00  0.00    +0.000 C 
ENDROOT
BRANCH   1   4
ATOM      2  O   UNL     1       6.105   4.486  18.977  0.00  0.00    +0.000 OA
ATOM      3  C   UNL     1       5.619   3.996  17.962  0.00  0.00    +0.000 C 
ATOM      4  N   UNL     1       4.565   3.104  17.987  0.00  0.00    +0.000 N 
ATOM      5  H   UNL     1       4.254   2.718  17.100  0.00  0.00    +0.000 HD
BRANCH   3   6
ATOM      6  C   UNL     1       6.174   4.328  16.618  0.00  0.00    +0.000 A 
ATOM      7  C   UNL     1       7.067   5.378  16.507  0.00  0.00    +0.000 A 
ATOM      8  N   UNL     1       7.613   5.743  15.323  0.00  0.00    +0.000 NA
ATOM      9  C   UNL     1       7.237   5.029  14.249  0.00  0.00    +0.000 A 
ATOM     10  C   UNL     1       7.749   5.374  13.006  0.00  0.00    +0.000 A 
ATOM     11  C   UNL     1       7.388   4.680  11.853  0.00  0.00    +0.000 A 
ATOM     12  C   UNL     1       6.502   3.614  11.948  0.00  0.00    +0.000 A 
ATOM     13  C   UNL     1       5.985   3.252  13.195  0.00  0.00    +0.000 A 
ATOM     14  C   UNL     1       6.326   3.940  14.357  0.00  0.00    +0.000 A 
ATOM     15  N   UNL     1       5.791   3.577  15.547  0.00  0.00    +0.000 NA
ENDBRANCH   3   6
ENDBRANCH   1   4
BRANCH   1  16
ATOM     16  C   UNL     1       2.641   2.011  19.172  0.00  0.00    +0.000 C 
BRANCH  16  17
ATOM     17  N   UNL     1       1.640   2.964  19.697  0.00  0.00    +0.000 NA
ATOM     18  C   UNL     1       2.159   3.811  20.802  0.00  0.00    +0.000 C 
ATOM     19  C   UNL     1       3.129   4.945  20.395  0.00  0.00    +0.000 C 
ATOM     20  N   UNL     1       2.580   5.766  19.301  0.00  0.00    +0.000 N 
ATOM     21  C   UNL     1       2.088   4.979  18.155  0.00  0.00    +0.000 C 
ATOM     22  C   UNL     1       1.121   3.863  18.632  0.00  0.00    +0.000 C 
BRANCH  20  23
ATOM     23  C   UNL     1       2.092   7.046  19.515  0.00  0.00    +0.000 A 
ATOM     24  C   UNL     1       1.541   7.398  20.759  0.00  0.00    +0.000 A 
ATOM     25  C   UNL     1       0.967   8.653  20.974  0.00  0.00    +0.000 A 
ATOM     26  F   UNL     1       0.424   8.933  22.166  0.00  0.00    +0.000 F 
ATOM     27  C   UNL     1       0.931   9.605  19.972  0.00  0.00    +0.000 A 
ATOM     28  C   UNL     1       1.489   9.283  18.748  0.00  0.00    +0.000 A 
ATOM     29  F   UNL     1       1.476  10.189  17.760  0.00  0.00    +0.000 F 
ATOM     30  C   UNL     1       2.061   8.028  18.516  0.00  0.00    +0.000 A 
ENDBRANCH  20  23
ENDBRANCH  16  17
ENDBRANCH   1  16
TORSDOF 5
ENDMDL
MODEL 4
REMARK VINA RESULT:      -8.6      0.160      1.527
REMARK  Name = 
REMARK  5 active torsions:
REMARK  status: ('A' for Active; 'I' for Inactive)
REMARK    1  A    between atoms: C_2  and  C_20
REMARK    2  A    between atoms: N_3  and  C_4
REMARK    3  A    between atoms: C_4  and  C_5
REMARK    4  A    between atoms: C_5  and  N_6
REMARK    5  A    between atoms: N_9  and  C_10
REMARK                            x       y       z     vdW  Elec       q    Type
REMARK                         _______ _______ _______ _____ _____    ______ ____
ROOT
ATOM      1  C   UNL     1       3.346   4.918  19.385  0.00  0.00    +0.000 C 
ENDROOT
BRANCH   1   4
ATOM      2  O   UNL     1       3.139   7.394  18.077  0.00  0.00    +0.000 OA
ATOM      3  C   UNL     1       2.572   7.247  19.155  0.00  0.00    +0.000 C 
ATOM      4  N   UNL     1       2.686   6.100  19.915  0.00  0.00    +0.000 N 
ATOM      5  H   UNL     1       2.148   6.050  20.776  0.00  0.00    +0.000 HD
BRANCH   3   6
ATOM      6  C   UNL     1       1.688   8.318  19.700  0.00  0.00    +0.000 A 
ATOM      7  C   UNL     1       1.305   9.354  18.867  0.00  0.00    +0.000 A 
ATOM      8  N   UNL     1       0.507  10.363  19.287  0.00  0.00    +0.000 NA
ATOM      9  C   UNL     1       0.104  10.310  20.566  0.00  0.00    +0.000 A 
ATOM     10  C   UNL     1      -0.699  11.332  21.056  0.00  0.00    +0.000 A 
ATOM     11  C   UNL     1      -1.139  11.341  22.378  0.00  0.00    +0.000 A 
ATOM     12  C   UNL     1      -0.776  10.300  23.225  0.00  0.00    +0.000 A 
ATOM     13  C   UNL     1       0.026   9.262  22.742  0.00  0.00    +0.000 A 
ATOM     14  C   UNL     1       0.484   9.242  21.427  0.00  0.00    +0.000 A 
ATOM     15  N   UNL     1       1.277   8.231  20.996  0.00  0.00    +0.000 NA
ENDBRANCH   3   6
ENDBRANCH   1   4
BRANCH   1  16
ATOM     16  C   UNL     1       4.867   4.884  19.656  0.00  0.00    +0.000 C 
BRANCH  16  17
ATOM     17  N   UNL     1       5.607   4.018  18.714  0.00  0.00    +0.000 NA
ATOM     18  C   UNL     1       4.753   3.469  17.629  0.00  0.00    +0.000 C 
ATOM     19  C   UNL     1       4.350   4.460  16.511  0.00  0.00    +0.000 C 
ATOM     20  N   UNL     1       5.518   5.174  15.968  0.00  0.00    +0.000 N 
ATOM     21  C   UNL     1       6.381   5.778  16.999  0.00  0.00    +0.000 C 
ATOM     22  C   UNL     1       6.749   4.733  18.086  0.00  0.00    +0.000 C 
BRANCH  20  23
ATOM     23  C   UNL     1       6.045   4.879  14.719  0.00  0.00    +0.000 A 
ATOM     24  C   UNL     1       5.428   3.924  13.894  0.00  0.00    +0.000 A 
ATOM     25  C   UNL     1       5.984   3.549  12.669  0.00  0.00    +0.000 A 
ATOM     26  F   UNL     1       5.377   2.610  11.930  0.00  0.00    +0.000 F 
ATOM     27  C   UNL     1       7.161   4.115  12.214  0.00  0.00    +0.000 A 
ATOM     28  C   UNL     1       7.770   5.074  13.003  0.00  0.00    +0.000 A 
ATOM     29  F   UNL     1       8.907   5.646  12.583  0.00  0.00    +0.000 F 
ATOM     30  C   UNL     1       7.228   5.454  14.234  0.00  0.00    +0.000 A 
ENDBRANCH  20  23
ENDBRANCH  16  17
ENDBRANCH   1  16
TORSDOF 5
ENDMDL
MODEL 5
REMARK VINA RESULT:      -8.6      3.492      8.883
REMARK  Name = 
REMARK  5 active torsions:
REMARK  status: ('A' for Active; 'I' for Inactive)
REMARK    1  A    between atoms: C_2  and  C_20
REMARK    2  A    between atoms: N_3  and  C_4
REMARK    3  A    between atoms: C_4  and  C_5
REMARK    4  A    between atoms: C_5  and  N_6
REMARK    5  A    between atoms: N_9  and  C_10
REMARK                            x       y       z     vdW  Elec       q    Type
REMARK                         _______ _______ _______ _____ _____    ______ ____
ROOT
ATOM      1  C   UNL     1       4.183   2.569  19.338  0.00  0.00    +0.000 C 
ENDROOT
BRANCH   1   4
ATOM      2  O   UNL     1       6.163   4.534  19.017  0.00  0.00    +0.000 OA
ATOM      3  C   UNL     1       5.674   4.021  18.015  0.00  0.00    +0.000 C 
ATOM      4  N   UNL     1       4.635   3.112  18.067  0.00  0.00    +0.000 N 
ATOM      5  H   UNL     1       4.320   2.707  17.190  0.00  0.00    +0.000 HD
BRANCH   3   6
ATOM      6  C   UNL     1       6.206   4.342  16.660  0.00  0.00    +0.000 A 
ATOM      7  C   UNL     1       7.091   5.396  16.524  0.00  0.00    +0.000 A 
ATOM      8  N   UNL     1       7.617   5.751  15.328  0.00  0.00    +0.000 NA
ATOM      9  C   UNL     1       7.229   5.023  14.268  0.00  0.00    +0.000 A 
ATOM     10  C   UNL     1       7.721   5.358  13.013  0.00  0.00    +0.000 A 
ATOM     11  C   UNL     1       7.346   4.649  11.873  0.00  0.00    +0.000 A 
ATOM     12  C   UNL     1       6.469   3.578  11.993  0.00  0.00    +0.000 A 
ATOM     13  C   UNL     1       5.973   3.227  13.253  0.00  0.00    +0.000 A 
ATOM     14  C   UNL     1       6.327   3.929  14.401  0.00  0.00    +0.000 A 
ATOM     15  N   UNL     1       5.812   3.576  15.603  0.00  0.00    +0.000 NA
ENDBRANCH   3   6
ENDBRANCH   1   4
BRANCH   1  16
ATOM     16  C   UNL     1       2.742   2.010  19.294  0.00  0.00    +0.000 C 
BRANCH  16  17
ATOM     17  N   UNL     1       1.739   2.942  19.851  0.00  0.00    +0.000 NA
ATOM     18  C   UNL     1       2.297   3.855  20.883  0.00  0.00    +0.000 C 
ATOM     19  C   UNL     1       3.186   5.010  20.364  0.00  0.00    +0.000 C 
ATOM     20  N   UNL     1       2.527   5.761  19.282  0.00  0.00    +0.000 N 
ATOM     21  C   UNL     1       1.991   4.908  18.205  0.00  0.00    +0.000 C 
ATOM     22  C   UNL     1       1.110   3.774  18.792  0.00  0.00    +0.000 C 
BRANCH  20  23
ATOM     23  C   UNL     1       1.999   7.028  19.481  0.00  0.00    +0.000 A 
ATOM     24  C   UNL     1       2.026   7.979  18.447  0.00  0.00    +0.000 A 
ATOM     25  C   UNL     1       1.577   9.287  18.647  0.00  0.00    +0.000 A 
ATOM     26  F   UNL     1       1.652  10.169  17.642  0.00  0.00    +0.000 F 
ATOM     27  C   UNL     1       1.077   9.693  19.870  0.00  0.00    +0.000 A 
ATOM     28  C   UNL     1       1.022   8.762  20.892  0.00  0.00    +0.000 A 
ATOM     29  F   UNL     1       0.533   9.126  22.087  0.00  0.00    +0.000 F 
ATOM     30  C   UNL     1       1.474   7.453  20.709  0.00  0.00    +0.000 A 
ENDBRANCH  20  23
ENDBRANCH  16  17
ENDBRANCH   1  16
TORSDOF 5
ENDMDL
MODEL 6
REMARK VINA RESULT:      -8.4      1.135      1.509
REMARK  Name = 
REMARK  5 active torsions:
REMARK  status: ('A' for Active; 'I' for Inactive)
REMARK    1  A    between atoms: C_2  and  C_20
REMARK    2  A    between atoms: N_3  and  C_4
REMARK    3  A    between atoms: C_4  and  C_5
REMARK    4  A    between atoms: C_5  and  N_6
REMARK    5  A    between atoms: N_9  and  C_10
REMARK                            x       y       z     vdW  Elec       q    Type
REMARK                         _______ _______ _______ _____ _____    ______ ____
ROOT
ATOM      1  C   UNL     1       3.712   5.191  19.927  0.00  0.00    +0.000 C 
ENDROOT
BRANCH   1   4
ATOM      2  O   UNL     1       1.056   5.600  20.743  0.00  0.00    +0.000 OA
ATOM      3  C   UNL     1       1.737   6.574  20.439  0.00  0.00    +0.000 C 
ATOM      4  N   UNL     1       3.021   6.470  19.943  0.00  0.00    +0.000 N 
ATOM      5  H   UNL     1       3.525   7.333  19.756  0.00  0.00    +0.000 HD
BRANCH   3   6
ATOM      6  C   UNL     1       1.206   7.957  20.618  0.00  0.00    +0.000 A 
ATOM      7  C   UNL     1       1.447   8.896  19.631  0.00  0.00    +0.000 A 
ATOM      8  N   UNL     1       1.001  10.171  19.721  0.00  0.00    +0.000 NA
ATOM      9  C   UNL     1       0.310  10.483  20.830  0.00  0.00    +0.000 A 
ATOM     10  C   UNL     1      -0.152  11.784  20.984  0.00  0.00    +0.000 A 
ATOM     11  C   UNL     1      -0.864  12.173  22.117  0.00  0.00    +0.000 A 
ATOM     12  C   UNL     1      -1.127  11.238  23.112  0.00  0.00    +0.000 A 
ATOM     13  C   UNL     1      -0.673   9.924  22.965  0.00  0.00    +0.000 A 
ATOM     14  C   UNL     1       0.049   9.520  21.845  0.00  0.00    +0.000 A 
ATOM     15  N   UNL     1       0.492   8.243  21.743  0.00  0.00    +0.000 NA
ENDBRANCH   3   6
ENDBRANCH   1   4
BRANCH   1  16
ATOM     16  C   UNL     1       5.094   5.243  19.236  0.00  0.00    +0.000 C 
BRANCH  16  17
ATOM     17  N   UNL     1       5.058   5.897  17.911  0.00  0.00    +0.000 NA
ATOM     18  C   UNL     1       6.408   6.212  17.375  0.00  0.00    +0.000 C 
ATOM     19  C   UNL     1       7.225   5.014  16.839  0.00  0.00    +0.000 C 
ATOM     20  N   UNL     1       6.445   4.203  15.888  0.00  0.00    +0.000 N 
ATOM     21  C   UNL     1       5.110   3.823  16.385  0.00  0.00    +0.000 C 
ATOM     22  C   UNL     1       4.344   5.068  16.905  0.00  0.00    +0.000 C 
BRANCH  20  23
ATOM     23  C   UNL     1       6.686   4.235  14.523  0.00  0.00    +0.000 A 
ATOM     24  C   UNL     1       7.527   5.216  13.972  0.00  0.00    +0.000 A 
ATOM     25  C   UNL     1       7.720   5.321  12.593  0.00  0.00    +0.000 A 
ATOM     26  F   UNL     1       8.504   6.294  12.110  0.00  0.00    +0.000 F 
ATOM     27  C   UNL     1       7.098   4.452  11.715  0.00  0.00    +0.000 A 
ATOM     28  C   UNL     1       6.285   3.465  12.242  0.00  0.00    +0.000 A 
ATOM     29  F   UNL     1       5.677   2.603  11.415  0.00  0.00    +0.000 F 
ATOM     30  C   UNL     1       6.078   3.352  13.619  0.00  0.00    +0.000 A 
ENDBRANCH  20  23
ENDBRANCH  16  17
ENDBRANCH   1  16
TORSDOF 5
ENDMDL
MODEL 7
REMARK VINA RESULT:      -8.4      0.975      2.336
REMARK  Name = 
REMARK  5 active torsions:
REMARK  status: ('A' for Active; 'I' for Inactive)
REMARK    1  A    between atoms: C_2  and  C_20
REMARK    2  A    between atoms: N_3  and  C_4
REMARK    3  A    between atoms: C_4  and  C_5
REMARK    4  A    between atoms: C_5  and  N_6
REMARK    5  A    between atoms: N_9  and  C_10
REMARK                            x       y       z     vdW  Elec       q    Type
REMARK                         _______ _______ _______ _____ _____    ______ ____
ROOT
ATOM      1  C   UNL     1       3.447   5.537  19.340  0.00  0.00    +0.000 C 
ENDROOT
BRANCH   1   4
ATOM      2  O   UNL     1       2.037   7.689  18.214  0.00  0.00    +0.000 OA
ATOM      3  C   UNL     1       2.096   7.597  19.436  0.00  0.00    +0.000 C 
ATOM      4  N   UNL     1       2.836   6.628  20.083  0.00  0.00    +0.000 N 
ATOM      5  H   UNL     1       2.793   6.601  21.099  0.00  0.00    +0.000 HD
BRANCH   3   6
ATOM      6  C   UNL     1       1.329   8.535  20.306  0.00  0.00    +0.000 A 
ATOM      7  C   UNL     1       1.397   8.377  21.679  0.00  0.00    +0.000 A 
ATOM      8  N   UNL     1       0.729   9.186  22.535  0.00  0.00    +0.000 NA
ATOM      9  C   UNL     1      -0.013  10.157  21.979  0.00  0.00    +0.000 A 
ATOM     10  C   UNL     1      -0.737  11.002  22.810  0.00  0.00    +0.000 A 
ATOM     11  C   UNL     1      -1.536  12.021  22.294  0.00  0.00    +0.000 A 
ATOM     12  C   UNL     1      -1.605  12.202  20.918  0.00  0.00    +0.000 A 
ATOM     13  C   UNL     1      -0.875  11.363  20.071  0.00  0.00    +0.000 A 
ATOM     14  C   UNL     1      -0.080  10.333  20.568  0.00  0.00    +0.000 A 
ATOM     15  N   UNL     1       0.598   9.524  19.719  0.00  0.00    +0.000 NA
ENDBRANCH   3   6
ENDBRANCH   1   4
BRANCH   1  16
ATOM     16  C   UNL     1       4.991   5.612  19.290  0.00  0.00    +0.000 C 
BRANCH  16  17
ATOM     17  N   UNL     1       5.500   6.310  18.091  0.00  0.00    +0.000 NA
ATOM     18  C   UNL     1       6.865   5.873  17.694  0.00  0.00    +0.000 C 
ATOM     19  C   UNL     1       6.967   4.487  17.017  0.00  0.00    +0.000 C 
ATOM     20  N   UNL     1       6.014   4.352  15.902  0.00  0.00    +0.000 N 
ATOM     21  C   UNL     1       4.632   4.730  16.250  0.00  0.00    +0.000 C 
ATOM     22  C   UNL     1       4.600   6.128  16.922  0.00  0.00    +0.000 C 
BRANCH  20  23
ATOM     23  C   UNL     1       6.422   4.386  14.577  0.00  0.00    +0.000 A 
ATOM     24  C   UNL     1       5.927   3.448  13.656  0.00  0.00    +0.000 A 
ATOM     25  C   UNL     1       6.383   3.409  12.337  0.00  0.00    +0.000 A 
ATOM     26  F   UNL     1       5.906   2.475  11.503  0.00  0.00    +0.000 F 
ATOM     27  C   UNL     1       7.335   4.303  11.882  0.00  0.00    +0.000 A 
ATOM     28  C   UNL     1       7.817   5.248  12.769  0.00  0.00    +0.000 A 
ATOM     29  F   UNL     1       8.734   6.133  12.353  0.00  0.00    +0.000 F 
ATOM     30  C   UNL     1       7.374   5.295  14.094  0.00  0.00    +0.000 A 
ENDBRANCH  20  23
ENDBRANCH  16  17
ENDBRANCH   1  16
TORSDOF 5
ENDMDL
MODEL 8
REMARK VINA RESULT:      -8.3      1.404      2.193
REMARK  Name = 
REMARK  5 active torsions:
REMARK  status: ('A' for Active; 'I' for Inactive)
REMARK    1  A    between atoms: C_2  and  C_20
REMARK    2  A    between atoms: N_3  and  C_4
REMARK    3  A    between atoms: C_4  and  C_5
REMARK    4  A    between atoms: C_5  and  N_6
REMARK    5  A    between atoms: N_9  and  C_10
REMARK                            x       y       z     vdW  Elec       q    Type
REMARK                         _______ _______ _______ _____ _____    ______ ____
ROOT
ATOM      1  C   UNL     1       3.637   5.294  19.688  0.00  0.00    +0.000 C 
ENDROOT
BRANCH   1   4
ATOM      2  O   UNL     1       1.336   5.907  21.177  0.00  0.00    +0.000 OA
ATOM      3  C   UNL     1       1.901   6.809  20.567  0.00  0.00    +0.000 C 
ATOM      4  N   UNL     1       2.985   6.593  19.739  0.00  0.00    +0.000 N 
ATOM      5  H   UNL     1       3.416   7.405  19.306  0.00  0.00    +0.000 HD
BRANCH   3   6
ATOM      6  C   UNL     1       1.452   8.224  20.714  0.00  0.00    +0.000 A 
ATOM      7  C   UNL     1       1.177   8.707  21.980  0.00  0.00    +0.000 A 
ATOM      8  N   UNL     1       0.762   9.977  22.196  0.00  0.00    +0.000 NA
ATOM      9  C   UNL     1       0.626  10.752  21.108  0.00  0.00    +0.000 A 
ATOM     10  C   UNL     1       0.181  12.058  21.269  0.00  0.00    +0.000 A 
ATOM     11  C   UNL     1       0.007  12.907  20.178  0.00  0.00    +0.000 A 
ATOM     12  C   UNL     1       0.291  12.441  18.899  0.00  0.00    +0.000 A 
ATOM     13  C   UNL     1       0.746  11.131  18.724  0.00  0.00    +0.000 A 
ATOM     14  C   UNL     1       0.916  10.265  19.802  0.00  0.00    +0.000 A 
ATOM     15  N   UNL     1       1.339   8.994  19.596  0.00  0.00    +0.000 NA
ENDBRANCH   3   6
ENDBRANCH   1   4
BRANCH   1  16
ATOM     16  C   UNL     1       5.130   5.366  19.295  0.00  0.00    +0.000 C 
BRANCH  16  17
ATOM     17  N   UNL     1       5.361   6.078  18.020  0.00  0.00    +0.000 NA
ATOM     18  C   UNL     1       6.772   6.007  17.557  0.00  0.00    +0.000 C 
ATOM     19  C   UNL     1       7.228   4.653  16.964  0.00  0.00    +0.000 C 
ATOM     20  N   UNL     1       6.298   4.168  15.931  0.00  0.00    +0.000 N 
ATOM     21  C   UNL     1       4.885   4.174  16.350  0.00  0.00    +0.000 C 
ATOM     22  C   UNL     1       4.492   5.559  16.932  0.00  0.00    +0.000 C 
BRANCH  20  23
ATOM     23  C   UNL     1       6.613   4.206  14.581  0.00  0.00    +0.000 A 
ATOM     24  C   UNL     1       7.473   5.197  14.079  0.00  0.00    +0.000 A 
ATOM     25  C   UNL     1       7.740   5.309  12.713  0.00  0.00    +0.000 A 
ATOM     26  F   UNL     1       8.541   6.290  12.276  0.00  0.00    +0.000 F 
ATOM     27  C   UNL     1       7.176   4.437  11.800  0.00  0.00    +0.000 A 
ATOM     28  C   UNL     1       6.345   3.440  12.279  0.00  0.00    +0.000 A 
ATOM     29  F   UNL     1       5.791   2.575  11.418  0.00  0.00    +0.000 F 
ATOM     30  C   UNL     1       6.063   3.321  13.643  0.00  0.00    +0.000 A 
ENDBRANCH  20  23
ENDBRANCH  16  17
ENDBRANCH   1  16
TORSDOF 5
ENDMDL
MODEL 9
REMARK VINA RESULT:      -8.2      0.678      1.378
REMARK  Name = 
REMARK  5 active torsions:
REMARK  status: ('A' for Active; 'I' for Inactive)
REMARK    1  A    between atoms: C_2  and  C_20
REMARK    2  A    between atoms: N_3  and  C_4
REMARK    3  A    between atoms: C_4  and  C_5
REMARK    4  A    between atoms: C_5  and  N_6
REMARK    5  A    between atoms: N_9  and  C_10
REMARK                            x       y       z     vdW  Elec       q    Type
REMARK                         _______ _______ _______ _____ _____    ______ ____
ROOT
ATOM      1  C   UNL     1       3.235   5.332  19.357  0.00  0.00    +0.000 C 
ENDROOT
BRANCH   1   4
ATOM      2  O   UNL     1       2.507   7.862  18.378  0.00  0.00    +0.000 OA
ATOM      3  C   UNL     1       2.213   7.569  19.533  0.00  0.00    +0.000 C 
ATOM      4  N   UNL     1       2.602   6.387  20.132  0.00  0.00    +0.000 N 
ATOM      5  H   UNL     1       2.278   6.210  21.079  0.00  0.00    +0.000 HD
BRANCH   3   6
ATOM      6  C   UNL     1       1.376   8.486  20.360  0.00  0.00    +0.000 A 
ATOM      7  C   UNL     1       1.329   8.292  21.729  0.00  0.00    +0.000 A 
ATOM      8  N   UNL     1       0.592   9.080  22.546  0.00  0.00    +0.000 NA
ATOM      9  C   UNL     1      -0.101  10.068  21.956  0.00  0.00    +0.000 A 
ATOM     10  C   UNL     1      -0.892  10.892  22.746  0.00  0.00    +0.000 A 
ATOM     11  C   UNL     1      -1.643  11.926  22.191  0.00  0.00    +0.000 A 
ATOM     12  C   UNL     1      -1.597  12.144  20.819  0.00  0.00    +0.000 A 
ATOM     13  C   UNL     1      -0.799  11.325  20.015  0.00  0.00    +0.000 A 
ATOM     14  C   UNL     1      -0.049  10.281  20.549  0.00  0.00    +0.000 A 
ATOM     15  N   UNL     1       0.698   9.492  19.739  0.00  0.00    +0.000 NA
ENDBRANCH   3   6
ENDBRANCH   1   4
BRANCH   1  16
ATOM     16  C   UNL     1       4.736   5.147  19.673  0.00  0.00    +0.000 C 
BRANCH  16  17
ATOM     17  N   UNL     1       5.399   4.163  18.791  0.00  0.00    +0.000 NA
ATOM     18  C   UNL     1       4.522   3.674  17.696  0.00  0.00    +0.000 C 
ATOM     19  C   UNL     1       4.275   4.658  16.528  0.00  0.00    +0.000 C 
ATOM     20  N   UNL     1       5.535   5.209  16.002  0.00  0.00    +0.000 N 
ATOM     21  C   UNL     1       6.429   5.751  17.042  0.00  0.00    +0.000 C 
ATOM     22  C   UNL     1       6.637   4.716  18.179  0.00  0.00    +0.000 C 
BRANCH  20  23
ATOM     23  C   UNL     1       6.064   4.805  14.785  0.00  0.00    +0.000 A 
ATOM     24  C   UNL     1       7.239   5.394  14.290  0.00  0.00    +0.000 A 
ATOM     25  C   UNL     1       7.746   5.065  13.031  0.00  0.00    +0.000 A 
ATOM     26  F   UNL     1       8.852   5.677  12.586  0.00  0.00    +0.000 F 
ATOM     27  C   UNL     1       7.115   4.134  12.227  0.00  0.00    +0.000 A 
ATOM     28  C   UNL     1       5.969   3.527  12.708  0.00  0.00    +0.000 A 
ATOM     29  F   UNL     1       5.342   2.615  11.953  0.00  0.00    +0.000 F 
ATOM     30  C   UNL     1       5.447   3.852  13.963  0.00  0.00    +0.000 A 
ENDBRANCH  20  23
ENDBRANCH  16  17
ENDBRANCH   1  16
TORSDOF 5
ENDMDL
