MODEL 1
REMARK VINA RESULT:      -5.9      0.000      0.000
REMARK  Name = 
REMARK  2 active torsions:
REMARK  status: ('A' for Active; 'I' for Inactive)
REMARK    1  A    between atoms: O_1  and  C_2
REMARK    2  A    between atoms: C_5  and  O_6
REMARK                            x       y       z     vdW  Elec       q    Type
REMARK                         _______ _______ _______ _____ _____    ______ ____
ROOT
ATOM      1  C   UNL     1       5.926   4.897  18.258  0.00  0.00    +0.000 A 
ATOM      2  C   UNL     1       6.092   6.131  17.625  0.00  0.00    +0.000 A 
ATOM      3  C   UNL     1       5.001   7.043  17.360  0.00  0.00    +0.000 A 
ATOM      4  C   UNL     1       3.658   6.773  17.679  0.00  0.00    +0.000 A 
ATOM      5  C   UNL     1       3.410   5.569  18.267  0.00  0.00    +0.000 A 
ATOM      6  C   UNL     1       4.646   4.631  18.619  0.00  0.00    +0.000 A 
ATOM      7  C   UNL     1       3.835   3.110  19.300  0.00  0.00    +0.000 C 
ATOM      8 CL   UNL     1       4.703   1.925  20.239  0.00  0.00    +0.000 Cl
ATOM      9  C   UNL     1       3.248   2.882  18.065  0.00  0.00    +0.000 C 
ATOM     10 CL   UNL     1       4.056   1.686  17.263  0.00  0.00    +0.000 Cl
ATOM     11  C   UNL     1       2.754   3.837  18.943  0.00  0.00    +0.000 C 
ATOM     12 CL   UNL     1       3.414   4.784  20.882  0.00  0.00    +0.000 Cl
ATOM     13  C   UNL     1       1.848   4.874  18.683  0.00  0.00    +0.000 C 
ATOM     14 CL   UNL     1       0.966   4.725  17.130  0.00  0.00    +0.000 Cl
ATOM     15  C   UNL     1       1.878   3.338  19.560  0.00  0.00    +0.000 C 
ATOM     16 CL   UNL     1       1.018   3.279  21.243  0.00  0.00    +0.000 Cl
ATOM     17 CL   UNL     1       0.731   1.897  18.748  0.00  0.00    +0.000 Cl
ENDROOT
BRANCH   1  18
ATOM     18  O   UNL     1       6.914   4.011  18.464  0.00  0.00    +0.000 OA
ATOM     19  H   UNL     1       6.958   3.798  19.412  0.00  0.00    +0.000 HD
ENDBRANCH   1  18
BRANCH   4  20
ATOM     20  O   UNL     1       2.651   7.637  17.431  0.00  0.00    +0.000 OA
ATOM     21  H   UNL     1       2.485   7.663  16.473  0.00  0.00    +0.000 HD
ENDBRANCH   4  20
TORSDOF 2
ENDMDL
MODEL 2
REMARK VINA RESULT:      -5.7     10.221     12.381
REMARK  Name = 
REMARK  2 active torsions:
REMARK  status: ('A' for Active; 'I' for Inactive)
REMARK    1  A    between atoms: O_1  and  C_2
REMARK    2  A    between atoms: C_5  and  O_6
REMARK                            x       y       z     vdW  Elec       q    Type
REMARK                         _______ _______ _______ _____ _____    ______ ____
ROOT
ATOM      1  C   UNL     1      10.792  12.060  19.520  0.00  0.00    +0.000 A 
ATOM      2  C   UNL     1      10.087  10.964  19.017  0.00  0.00    +0.000 A 
ATOM      3  C   UNL     1       8.985  11.084  18.088  0.00  0.00    +0.000 A 
ATOM      4  C   UNL     1       8.486  12.313  17.619  0.00  0.00    +0.000 A 
ATOM      5  C   UNL     1       9.099  13.433  18.095  0.00  0.00    +0.000 A 
ATOM      6  C   UNL     1      10.360  13.257  19.048  0.00  0.00    +0.000 A 
ATOM      7  C   UNL     1      10.787  15.002  19.503  0.00  0.00    +0.000 C 
ATOM      8 CL   UNL     1      12.333  15.443  20.176  0.00  0.00    +0.000 Cl
ATOM      9  C   UNL     1       9.567  15.122  20.149  0.00  0.00    +0.000 C 
ATOM     10 CL   UNL     1       9.772  15.001  21.782  0.00  0.00    +0.000 Cl
ATOM     11  C   UNL     1       9.672  15.196  18.766  0.00  0.00    +0.000 C 
ATOM     12 CL   UNL     1      11.273  14.831  17.218  0.00  0.00    +0.000 Cl
ATOM     13  C   UNL     1       8.652  15.110  17.809  0.00  0.00    +0.000 C 
ATOM     14 CL   UNL     1       6.993  15.279  18.466  0.00  0.00    +0.000 Cl
ATOM     15  C   UNL     1       9.738  16.339  18.472  0.00  0.00    +0.000 C 
ATOM     16 CL   UNL     1      10.498  17.576  17.260  0.00  0.00    +0.000 Cl
ATOM     17 CL   UNL     1       8.821  17.747  19.579  0.00  0.00    +0.000 Cl
ENDROOT
BRANCH   1  18
ATOM     18  O   UNL     1      11.781  11.977  20.426  0.00  0.00    +0.000 OA
ATOM     19  H   UNL     1      11.864  11.054  20.720  0.00  0.00    +0.000 HD
ENDBRANCH   1  18
BRANCH   4  20
ATOM     20  O   UNL     1       7.460  12.409  16.747  0.00  0.00    +0.000 OA
ATOM     21  H   UNL     1       7.151  11.515  16.521  0.00  0.00    +0.000 HD
ENDBRANCH   4  20
TORSDOF 2
ENDMDL
MODEL 3
REMARK VINA RESULT:      -5.7      7.257      9.375
REMARK  Name = 
REMARK  2 active torsions:
REMARK  status: ('A' for Active; 'I' for Inactive)
REMARK    1  A    between atoms: O_1  and  C_2
REMARK    2  A    between atoms: C_5  and  O_6
REMARK                            x       y       z     vdW  Elec       q    Type
REMARK                         _______ _______ _______ _____ _____    ______ ____
ROOT
ATOM      1  C   UNL     1      -2.685  12.537  20.830  0.00  0.00    +0.000 A 
ATOM      2  C   UNL     1      -2.931  12.415  22.199  0.00  0.00    +0.000 A 
ATOM      3  C   UNL     1      -2.042  11.728  23.110  0.00  0.00    +0.000 A 
ATOM      4  C   UNL     1      -0.856  11.085  22.713  0.00  0.00    +0.000 A 
ATOM      5  C   UNL     1      -0.565  11.129  21.383  0.00  0.00    +0.000 A 
ATOM      6  C   UNL     1      -1.523  11.965  20.426  0.00  0.00    +0.000 A 
ATOM      7  C   UNL     1      -0.800  11.666  18.746  0.00  0.00    +0.000 C 
ATOM      8 CL   UNL     1      -1.178  12.670  17.371  0.00  0.00    +0.000 Cl
ATOM      9  C   UNL     1      -1.107  10.319  18.864  0.00  0.00    +0.000 C 
ATOM     10 CL   UNL     1      -2.455   9.962  17.980  0.00  0.00    +0.000 Cl
ATOM     11  C   UNL     1      -0.010  10.878  19.507  0.00  0.00    +0.000 C 
ATOM     12 CL   UNL     1       0.797  12.953  19.875  0.00  0.00    +0.000 Cl
ATOM     13  C   UNL     1       0.762  10.336  20.543  0.00  0.00    +0.000 C 
ATOM     14 CL   UNL     1       0.518   8.582  20.819  0.00  0.00    +0.000 Cl
ATOM     15  C   UNL     1       0.936  10.701  18.821  0.00  0.00    +0.000 C 
ATOM     16 CL   UNL     1       2.582  11.435  18.247  0.00  0.00    +0.000 Cl
ATOM     17 CL   UNL     1       1.067   9.079  17.637  0.00  0.00    +0.000 Cl
ENDROOT
BRANCH   1  18
ATOM     18  O   UNL     1      -3.523  13.120  19.956  0.00  0.00    +0.000 OA
ATOM     19  H   UNL     1      -4.289  12.539  19.815  0.00  0.00    +0.000 HD
ENDBRANCH   1  18
BRANCH   4  20
ATOM     20  O   UNL     1      -0.033  10.454  23.576  0.00  0.00    +0.000 OA
ATOM     21  H   UNL     1      -0.423  10.485  24.466  0.00  0.00    +0.000 HD
ENDBRANCH   4  20
TORSDOF 2
ENDMDL
MODEL 4
REMARK VINA RESULT:      -5.6      9.765     11.589
REMARK  Name = 
REMARK  2 active torsions:
REMARK  status: ('A' for Active; 'I' for Inactive)
REMARK    1  A    between atoms: O_1  and  C_2
REMARK    2  A    between atoms: C_5  and  O_6
REMARK                            x       y       z     vdW  Elec       q    Type
REMARK                         _______ _______ _______ _____ _____    ______ ____
ROOT
ATOM      1  C   UNL     1       6.859  14.560  21.486  0.00  0.00    +0.000 A 
ATOM      2  C   UNL     1       6.345  13.836  22.564  0.00  0.00    +0.000 A 
ATOM      3  C   UNL     1       6.951  12.625  23.071  0.00  0.00    +0.000 A 
ATOM      4  C   UNL     1       8.098  12.030  22.515  0.00  0.00    +0.000 A 
ATOM      5  C   UNL     1       8.637  12.658  21.434  0.00  0.00    +0.000 A 
ATOM      6  C   UNL     1       7.992  14.033  20.959  0.00  0.00    +0.000 A 
ATOM      7  C   UNL     1       8.974  14.453  19.444  0.00  0.00    +0.000 C 
ATOM      8 CL   UNL     1       8.994  16.055  18.755  0.00  0.00    +0.000 Cl
ATOM      9  C   UNL     1       8.479  13.318  18.820  0.00  0.00    +0.000 C 
ATOM     10 CL   UNL     1       7.287  13.727  17.754  0.00  0.00    +0.000 Cl
ATOM     11  C   UNL     1       9.498  13.250  19.762  0.00  0.00    +0.000 C 
ATOM     12 CL   UNL     1      10.482  14.660  21.223  0.00  0.00    +0.000 Cl
ATOM     13  C   UNL     1       9.985  12.123  20.438  0.00  0.00    +0.000 C 
ATOM     14 CL   UNL     1       9.470  10.553  19.744  0.00  0.00    +0.000 Cl
ATOM     15  C   UNL     1      10.525  13.241  19.178  0.00  0.00    +0.000 C 
ATOM     16 CL   UNL     1      12.331  13.803  19.226  0.00  0.00    +0.000 Cl
ATOM     17 CL   UNL     1      10.668  12.420  17.345  0.00  0.00    +0.000 Cl
ENDROOT
BRANCH   1  18
ATOM     18  O   UNL     1       6.282  15.655  20.962  0.00  0.00    +0.000 OA
ATOM     19  H   UNL     1       6.727  15.880  20.128  0.00  0.00    +0.000 HD
ENDBRANCH   1  18
BRANCH   4  20
ATOM     20  O   UNL     1       8.656  10.902  23.004  0.00  0.00    +0.000 OA
ATOM     21  H   UNL     1       7.950  10.305  23.308  0.00  0.00    +0.000 HD
ENDBRANCH   4  20
TORSDOF 2
ENDMDL
MODEL 5
REMARK VINA RESULT:      -5.5     10.579     12.312
REMARK  Name = 
REMARK  2 active torsions:
REMARK  status: ('A' for Active; 'I' for Inactive)
REMARK    1  A    between atoms: O_1  and  C_2
REMARK    2  A    between atoms: C_5  and  O_6
REMARK                            x       y       z     vdW  Elec       q    Type
REMARK                         _______ _______ _______ _____ _____    ______ ____
ROOT
ATOM      1  C   UNL     1      10.907  14.353  17.025  0.00  0.00    +0.000 A 
ATOM      2  C   UNL     1      11.522  13.119  16.803  0.00  0.00    +0.000 A 
ATOM      3  C   UNL     1      11.252  11.940  17.596  0.00  0.00    +0.000 A 
ATOM      4  C   UNL     1      10.369  11.917  18.691  0.00  0.00    +0.000 A 
ATOM      5  C   UNL     1       9.756  13.096  18.994  0.00  0.00    +0.000 A 
ATOM      6  C   UNL     1      10.015  14.348  18.047  0.00  0.00    +0.000 A 
ATOM      7  C   UNL     1       9.073  15.707  18.884  0.00  0.00    +0.000 C 
ATOM      8 CL   UNL     1       8.648  17.190  18.073  0.00  0.00    +0.000 Cl
ATOM      9  C   UNL     1       9.918  15.605  19.979  0.00  0.00    +0.000 C 
ATOM     10 CL   UNL     1      11.021  16.833  19.964  0.00  0.00    +0.000 Cl
ATOM     11  C   UNL     1       8.892  14.694  19.760  0.00  0.00    +0.000 C 
ATOM     12 CL   UNL     1       7.438  14.227  18.100  0.00  0.00    +0.000 Cl
ATOM     13  C   UNL     1       8.698  13.441  20.356  0.00  0.00    +0.000 C 
ATOM     14 CL   UNL     1       9.693  13.146  21.818  0.00  0.00    +0.000 Cl
ATOM     15  C   UNL     1       7.959  15.048  20.392  0.00  0.00    +0.000 C 
ATOM     16 CL   UNL     1       6.070  15.137  20.431  0.00  0.00    +0.000 Cl
ATOM     17 CL   UNL     1       8.198  16.033  22.130  0.00  0.00    +0.000 Cl
ENDROOT
BRANCH   1  18
ATOM     18  O   UNL     1      11.184  15.474  16.338  0.00  0.00    +0.000 OA
ATOM     19  H   UNL     1      10.368  15.805  15.927  0.00  0.00    +0.000 HD
ENDBRANCH   1  18
BRANCH   4  20
ATOM     20  O   UNL     1      10.122  10.807  19.418  0.00  0.00    +0.000 OA
ATOM     21  H   UNL     1       9.213  10.508  19.240  0.00  0.00    +0.000 HD
ENDBRANCH   4  20
TORSDOF 2
ENDMDL
MODEL 6
REMARK VINA RESULT:      -5.5     10.478     12.554
REMARK  Name = 
REMARK  2 active torsions:
REMARK  status: ('A' for Active; 'I' for Inactive)
REMARK    1  A    between atoms: O_1  and  C_2
REMARK    2  A    between atoms: C_5  and  O_6
REMARK                            x       y       z     vdW  Elec       q    Type
REMARK                         _______ _______ _______ _____ _____    ______ ____
ROOT
ATOM      1  C   UNL     1      10.946  12.765  17.462  0.00  0.00    +0.000 A 
ATOM      2  C   UNL     1      10.914  11.450  17.933  0.00  0.00    +0.000 A 
ATOM      3  C   UNL     1      10.172  11.042  19.105  0.00  0.00    +0.000 A 
ATOM      4  C   UNL     1       9.434  11.926  19.913  0.00  0.00    +0.000 A 
ATOM      5  C   UNL     1       9.447  13.236  19.538  0.00  0.00    +0.000 A 
ATOM      6  C   UNL     1      10.204  13.631  18.196  0.00  0.00    +0.000 A 
ATOM      7  C   UNL     1      10.034  15.476  18.149  0.00  0.00    +0.000 C 
ATOM      8 CL   UNL     1      10.297  16.404  16.697  0.00  0.00    +0.000 Cl
ATOM      9  C   UNL     1      10.791  15.566  19.307  0.00  0.00    +0.000 C 
ATOM     10 CL   UNL     1      12.333  16.033  18.944  0.00  0.00    +0.000 Cl
ATOM     11  C   UNL     1       9.453  15.197  19.336  0.00  0.00    +0.000 C 
ATOM     12 CL   UNL     1       7.864  14.657  17.826  0.00  0.00    +0.000 Cl
ATOM     13  C   UNL     1       8.735  14.605  20.383  0.00  0.00    +0.000 C 
ATOM     14 CL   UNL     1       9.555  14.659  21.976  0.00  0.00    +0.000 Cl
ATOM     15  C   UNL     1       8.819  16.169  19.560  0.00  0.00    +0.000 C 
ATOM     16 CL   UNL     1       7.186  17.058  19.210  0.00  0.00    +0.000 Cl
ATOM     17 CL   UNL     1       9.570  17.659  20.684  0.00  0.00    +0.000 Cl
ENDROOT
BRANCH   1  18
ATOM     18  O   UNL     1      11.672  13.177  16.409  0.00  0.00    +0.000 OA
ATOM     19  H   UNL     1      11.108  13.710  15.824  0.00  0.00    +0.000 HD
ENDBRANCH   1  18
BRANCH   4  20
ATOM     20  O   UNL     1       8.741  11.529  21.001  0.00  0.00    +0.000 OA
ATOM     21  H   UNL     1       9.045  10.643  21.264  0.00  0.00    +0.000 HD
ENDBRANCH   4  20
TORSDOF 2
ENDMDL
MODEL 7
REMARK VINA RESULT:      -5.4      8.144      9.850
REMARK  Name = 
REMARK  2 active torsions:
REMARK  status: ('A' for Active; 'I' for Inactive)
REMARK    1  A    between atoms: O_1  and  C_2
REMARK    2  A    between atoms: C_5  and  O_6
REMARK                            x       y       z     vdW  Elec       q    Type
REMARK                         _______ _______ _______ _____ _____    ______ ____
ROOT
ATOM      1  C   UNL     1      -0.968  10.279  17.867  0.00  0.00    +0.000 A 
ATOM      2  C   UNL     1      -2.074   9.951  17.079  0.00  0.00    +0.000 A 
ATOM      3  C   UNL     1      -3.354  10.617  17.186  0.00  0.00    +0.000 A 
ATOM      4  C   UNL     1      -3.630  11.639  18.112  0.00  0.00    +0.000 A 
ATOM      5  C   UNL     1      -2.610  11.990  18.943  0.00  0.00    +0.000 A 
ATOM      6  C   UNL     1      -1.194  11.293  18.739  0.00  0.00    +0.000 A 
ATOM      7  C   UNL     1      -0.177  12.000  20.118  0.00  0.00    +0.000 C 
ATOM      8 CL   UNL     1       1.564  11.925  20.132  0.00  0.00    +0.000 Cl
ATOM      9  C   UNL     1      -1.015  11.385  21.037  0.00  0.00    +0.000 C 
ATOM     10 CL   UNL     1      -0.294  10.031  21.647  0.00  0.00    +0.000 Cl
ATOM     11  C   UNL     1      -1.382  12.553  20.380  0.00  0.00    +0.000 C 
ATOM     12 CL   UNL     1      -0.584  13.801  18.677  0.00  0.00    +0.000 Cl
ATOM     13  C   UNL     1      -2.653  13.133  20.280  0.00  0.00    +0.000 C 
ATOM     14 CL   UNL     1      -3.866  12.478  21.426  0.00  0.00    +0.000 Cl
ATOM     15  C   UNL     1      -1.114  13.461  21.087  0.00  0.00    +0.000 C 
ATOM     16 CL   UNL     1      -0.517  15.255  21.130  0.00  0.00    +0.000 Cl
ATOM     17 CL   UNL     1      -1.167  13.265  23.089  0.00  0.00    +0.000 Cl
ENDROOT
BRANCH   1  18
ATOM     18  O   UNL     1       0.211   9.637  17.825  0.00  0.00    +0.000 OA
ATOM     19  H   UNL     1       0.559   9.552  18.728  0.00  0.00    +0.000 HD
ENDBRANCH   1  18
BRANCH   4  20
ATOM     20  O   UNL     1      -4.828  12.256  18.196  0.00  0.00    +0.000 OA
ATOM     21  H   UNL     1      -4.734  13.058  18.737  0.00  0.00    +0.000 HD
ENDBRANCH   4  20
TORSDOF 2
ENDMDL
MODEL 8
REMARK VINA RESULT:      -5.4     10.536     12.641
REMARK  Name = 
REMARK  2 active torsions:
REMARK  status: ('A' for Active; 'I' for Inactive)
REMARK    1  A    between atoms: O_1  and  C_2
REMARK    2  A    between atoms: C_5  and  O_6
REMARK                            x       y       z     vdW  Elec       q    Type
REMARK                         _______ _______ _______ _____ _____    ______ ____
ROOT
ATOM      1  C   UNL     1       8.606  17.079  19.287  0.00  0.00    +0.000 A 
ATOM      2  C   UNL     1       9.056  17.996  18.335  0.00  0.00    +0.000 A 
ATOM      3  C   UNL     1       9.905  17.636  17.221  0.00  0.00    +0.000 A 
ATOM      4  C   UNL     1      10.393  16.337  16.996  0.00  0.00    +0.000 A 
ATOM      5  C   UNL     1      10.027  15.390  17.905  0.00  0.00    +0.000 A 
ATOM      6  C   UNL     1       9.024  15.807  19.068  0.00  0.00    +0.000 A 
ATOM      7  C   UNL     1       8.893  14.260  20.080  0.00  0.00    +0.000 C 
ATOM      8 CL   UNL     1       7.609  13.999  21.229  0.00  0.00    +0.000 Cl
ATOM      9  C   UNL     1      10.240  14.362  20.392  0.00  0.00    +0.000 C 
ATOM     10 CL   UNL     1      10.428  14.950  21.924  0.00  0.00    +0.000 Cl
ATOM     11  C   UNL     1       9.809  13.886  19.161  0.00  0.00    +0.000 C 
ATOM     12 CL   UNL     1       7.851  13.747  18.047  0.00  0.00    +0.000 Cl
ATOM     13  C   UNL     1      10.552  13.713  17.985  0.00  0.00    +0.000 C 
ATOM     14 CL   UNL     1      12.329  13.781  18.207  0.00  0.00    +0.000 Cl
ATOM     15  C   UNL     1       9.785  12.706  19.221  0.00  0.00    +0.000 C 
ATOM     16 CL   UNL     1       8.878  11.152  18.640  0.00  0.00    +0.000 Cl
ATOM     17 CL   UNL     1      11.077  11.703  20.394  0.00  0.00    +0.000 Cl
ENDROOT
BRANCH   1  18
ATOM     18  O   UNL     1       7.864  17.400  20.360  0.00  0.00    +0.000 OA
ATOM     19  H   UNL     1       7.288  18.150  20.136  0.00  0.00    +0.000 HD
ENDBRANCH   1  18
BRANCH   4  20
ATOM     20  O   UNL     1      11.180  16.014  15.947  0.00  0.00    +0.000 OA
ATOM     21  H   UNL     1      11.051  15.074  15.732  0.00  0.00    +0.000 HD
ENDBRANCH   4  20
TORSDOF 2
ENDMDL
MODEL 9
REMARK VINA RESULT:      -5.3     10.871     13.057
REMARK  Name = 
REMARK  2 active torsions:
REMARK  status: ('A' for Active; 'I' for Inactive)
REMARK    1  A    between atoms: O_1  and  C_2
REMARK    2  A    between atoms: C_5  and  O_6
REMARK                            x       y       z     vdW  Elec       q    Type
REMARK                         _______ _______ _______ _____ _____    ______ ____
ROOT
ATOM      1  C   UNL     1       9.899  12.288  19.638  0.00  0.00    +0.000 A 
ATOM      2  C   UNL     1      10.369  11.326  18.741  0.00  0.00    +0.000 A 
ATOM      3  C   UNL     1      11.186  11.641  17.590  0.00  0.00    +0.000 A 
ATOM      4  C   UNL     1      11.565  12.947  17.232  0.00  0.00    +0.000 A 
ATOM      5  C   UNL     1      11.113  13.947  18.039  0.00  0.00    +0.000 A 
ATOM      6  C   UNL     1      10.289  13.553  19.342  0.00  0.00    +0.000 A 
ATOM      7  C   UNL     1       9.821  15.199  20.054  0.00  0.00    +0.000 C 
ATOM      8 CL   UNL     1       9.282  15.389  21.701  0.00  0.00    +0.000 Cl
ATOM      9  C   UNL     1       9.059  15.460  18.925  0.00  0.00    +0.000 C 
ATOM     10 CL   UNL     1       7.457  15.236  19.255  0.00  0.00    +0.000 Cl
ATOM     11  C   UNL     1      10.442  15.581  18.917  0.00  0.00    +0.000 C 
ATOM     12 CL   UNL     1      12.145  15.067  20.306  0.00  0.00    +0.000 Cl
ATOM     13  C   UNL     1      11.301  15.682  17.814  0.00  0.00    +0.000 C 
ATOM     14 CL   UNL     1      10.485  16.052  16.262  0.00  0.00    +0.000 Cl
ATOM     15  C   UNL     1      10.704  16.715  19.120  0.00  0.00    +0.000 C 
ATOM     16 CL   UNL     1      11.941  17.888  19.939  0.00  0.00    +0.000 Cl
ATOM     17 CL   UNL     1       9.470  18.186  18.517  0.00  0.00    +0.000 Cl
ENDROOT
BRANCH   1  18
ATOM     18  O   UNL     1       9.094  12.026  20.681  0.00  0.00    +0.000 OA
ATOM     19  H   UNL     1       9.357  11.180  21.080  0.00  0.00    +0.000 HD
ENDBRANCH   1  18
BRANCH   4  20
ATOM     20  O   UNL     1      12.333  13.226  16.157  0.00  0.00    +0.000 OA
ATOM     21  H   UNL     1      12.634  12.391  15.759  0.00  0.00    +0.000 HD
ENDBRANCH   4  20
TORSDOF 2
ENDMDL
