MODEL 1
REMARK VINA RESULT:      -7.3      0.000      0.000
REMARK  Name = 
REMARK  7 active torsions:
REMARK  status: ('A' for Active; 'I' for Inactive)
REMARK    1  A    between atoms: C_1  and  O_2
REMARK    2  A    between atoms: O_2  and  C_3
REMARK    3  A    between atoms: C_3  and  C_4
REMARK    4  A    between atoms: N_6  and  C_7
REMARK    5  A    between atoms: N_6  and  C_8
REMARK    6  A    between atoms: C_8  and  C_9
REMARK    7  A    between atoms: C_19  and  C_20
REMARK                            x       y       z     vdW  Elec       q    Type
REMARK                         _______ _______ _______ _____ _____    ______ ____
ROOT
ATOM      1  C   UNL     1       5.748   4.292  17.134  0.00  0.00    +0.000 A 
ATOM      2  N   UNL     1       4.971   4.153  18.252  0.00  0.00    +0.000 NA
ATOM      3  C   UNL     1       3.685   3.808  18.126  0.00  0.00    +0.000 A 
ATOM      4  N   UNL     1       2.934   3.629  19.251  0.00  0.00    +0.000 N 
ATOM      5  C   UNL     1       1.522   3.329  19.230  0.00  0.00    +0.000 C 
ATOM      6  C   UNL     1       1.029   3.977  20.519  0.00  0.00    +0.000 C 
ATOM      7  C   UNL     1       2.201   3.801  21.477  0.00  0.00    +0.000 C 
ATOM      8  C   UNL     1       3.443   3.884  20.584  0.00  0.00    +0.000 C 
ATOM      9  N   UNL     1       3.117   3.635  16.932  0.00  0.00    +0.000 NA
ATOM     10  C   UNL     1       3.898   3.807  15.842  0.00  0.00    +0.000 A 
ATOM     11  C   UNL     1       5.253   4.128  15.840  0.00  0.00    +0.000 A 
ENDROOT
BRANCH  11  12
ATOM     12  C   UNL     1       6.008   4.228  14.562  0.00  0.00    +0.000 A 
ATOM     13  C   UNL     1       7.106   5.079  14.384  0.00  0.00    +0.000 A 
ATOM     14  C   UNL     1       7.788   5.110  13.176  0.00  0.00    +0.000 A 
ATOM     15  N   UNL     1       7.430   4.388  12.101  0.00  0.00    +0.000 NA
ATOM     16  C   UNL     1       6.359   3.590  12.253  0.00  0.00    +0.000 A 
ATOM     17  C   UNL     1       5.639   3.470  13.438  0.00  0.00    +0.000 A 
ENDBRANCH  11  12
BRANCH   1  18
ATOM     18  C   UNL     1       7.199   4.591  17.448  0.00  0.00    +0.000 C 
BRANCH  18  21
ATOM     19  C   UNL     1       7.769   6.936  17.689  0.00  0.00    +0.000 C 
ATOM     20  O   UNL     1       7.621   7.067  16.470  0.00  0.00    +0.000 OA
ATOM     21  N   UNL     1       7.492   5.732  18.334  0.00  0.00    +0.000 N 
ATOM     22  C   UNL     1       7.697   5.501  19.763  0.00  0.00    +0.000 C 
BRANCH  19  23
ATOM     23  C   UNL     1       8.254   8.128  18.529  0.00  0.00    +0.000 C 
BRANCH  23  25
ATOM     24  C   UNL     1       9.012  10.357  18.385  0.00  0.00    +0.000 C 
ATOM     25  O   UNL     1       8.020   9.419  17.986  0.00  0.00    +0.000 OA
ENDBRANCH  23  25
ENDBRANCH  19  23
ENDBRANCH  18  21
ENDBRANCH   1  18
TORSDOF 5
ENDMDL
MODEL 2
REMARK VINA RESULT:      -7.3      4.125      6.579
REMARK  Name = 
REMARK  7 active torsions:
REMARK  status: ('A' for Active; 'I' for Inactive)
REMARK    1  A    between atoms: C_1  and  O_2
REMARK    2  A    between atoms: O_2  and  C_3
REMARK    3  A    between atoms: C_3  and  C_4
REMARK    4  A    between atoms: N_6  and  C_7
REMARK    5  A    between atoms: N_6  and  C_8
REMARK    6  A    between atoms: C_8  and  C_9
REMARK    7  A    between atoms: C_19  and  C_20
REMARK                            x       y       z     vdW  Elec       q    Type
REMARK                         _______ _______ _______ _____ _____    ______ ____
ROOT
ATOM      1  C   UNL     1       2.407   6.940  18.727  0.00  0.00    +0.000 A 
ATOM      2  N   UNL     1       2.350   8.293  18.534  0.00  0.00    +0.000 NA
ATOM      3  C   UNL     1       1.734   9.066  19.436  0.00  0.00    +0.000 A 
ATOM      4  N   UNL     1       1.724  10.418  19.253  0.00  0.00    +0.000 N 
ATOM      5  C   UNL     1       1.028  11.336  20.123  0.00  0.00    +0.000 C 
ATOM      6  C   UNL     1       0.648  12.466  19.172  0.00  0.00    +0.000 C 
ATOM      7  C   UNL     1       1.813  12.511  18.191  0.00  0.00    +0.000 C 
ATOM      8  C   UNL     1       2.275  11.056  18.074  0.00  0.00    +0.000 C 
ATOM      9  N   UNL     1       1.130   8.550  20.506  0.00  0.00    +0.000 NA
ATOM     10  C   UNL     1       1.174   7.208  20.660  0.00  0.00    +0.000 A 
ATOM     11  C   UNL     1       1.812   6.302  19.816  0.00  0.00    +0.000 A 
ENDROOT
BRANCH  11  12
ATOM     12  C   UNL     1       1.834   4.850  20.137  0.00  0.00    +0.000 A 
ATOM     13  C   UNL     1       1.355   3.863  19.265  0.00  0.00    +0.000 A 
ATOM     14  C   UNL     1       1.426   2.521  19.610  0.00  0.00    +0.000 A 
ATOM     15  N   UNL     1       1.897   2.079  20.787  0.00  0.00    +0.000 NA
ATOM     16  C   UNL     1       2.332   3.021  21.642  0.00  0.00    +0.000 A 
ATOM     17  C   UNL     1       2.332   4.385  21.366  0.00  0.00    +0.000 A 
ENDBRANCH  11  12
BRANCH   1  18
ATOM     18  C   UNL     1       3.218   6.220  17.670  0.00  0.00    +0.000 C 
BRANCH  18  21
ATOM     19  C   UNL     1       5.466   6.390  16.772  0.00  0.00    +0.000 C 
ATOM     20  O   UNL     1       4.985   6.871  15.742  0.00  0.00    +0.000 OA
ATOM     21  N   UNL     1       4.673   6.097  17.881  0.00  0.00    +0.000 N 
ATOM     22  C   UNL     1       5.173   5.479  19.107  0.00  0.00    +0.000 C 
BRANCH  19  23
ATOM     23  C   UNL     1       6.976   6.120  16.855  0.00  0.00    +0.000 C 
BRANCH  23  25
ATOM     24  C   UNL     1       7.853   8.141  17.700  0.00  0.00    +0.000 C 
ATOM     25  O   UNL     1       7.829   7.228  16.609  0.00  0.00    +0.000 OA
ENDBRANCH  23  25
ENDBRANCH  19  23
ENDBRANCH  18  21
ENDBRANCH   1  18
TORSDOF 5
ENDMDL
MODEL 3
REMARK VINA RESULT:      -7.1      4.148      5.867
REMARK  Name = 
REMARK  7 active torsions:
REMARK  status: ('A' for Active; 'I' for Inactive)
REMARK    1  A    between atoms: C_1  and  O_2
REMARK    2  A    between atoms: O_2  and  C_3
REMARK    3  A    between atoms: C_3  and  C_4
REMARK    4  A    between atoms: N_6  and  C_7
REMARK    5  A    between atoms: N_6  and  C_8
REMARK    6  A    between atoms: C_8  and  C_9
REMARK    7  A    between atoms: C_19  and  C_20
REMARK                            x       y       z     vdW  Elec       q    Type
REMARK                         _______ _______ _______ _____ _____    ______ ____
ROOT
ATOM      1  C   UNL     1       3.283   6.722  19.120  0.00  0.00    +0.000 A 
ATOM      2  N   UNL     1       2.314   7.564  19.594  0.00  0.00    +0.000 NA
ATOM      3  C   UNL     1       1.813   8.513  18.795  0.00  0.00    +0.000 A 
ATOM      4  N   UNL     1       0.816   9.317  19.266  0.00  0.00    +0.000 N 
ATOM      5  C   UNL     1       0.256  10.417  18.518  0.00  0.00    +0.000 C 
ATOM      6  C   UNL     1      -0.149  11.391  19.618  0.00  0.00    +0.000 C 
ATOM      7  C   UNL     1      -0.574  10.478  20.762  0.00  0.00    +0.000 C 
ATOM      8  C   UNL     1       0.331   9.249  20.630  0.00  0.00    +0.000 C 
ATOM      9  N   UNL     1       2.263   8.696  17.553  0.00  0.00    +0.000 NA
ATOM     10  C   UNL     1       3.241   7.871  17.118  0.00  0.00    +0.000 A 
ATOM     11  C   UNL     1       3.818   6.825  17.835  0.00  0.00    +0.000 A 
ENDROOT
BRANCH  11  12
ATOM     12  C   UNL     1       4.848   5.953  17.211  0.00  0.00    +0.000 A 
ATOM     13  C   UNL     1       4.534   4.853  16.402  0.00  0.00    +0.000 A 
ATOM     14  C   UNL     1       5.540   4.090  15.825  0.00  0.00    +0.000 A 
ATOM     15  N   UNL     1       6.850   4.308  16.030  0.00  0.00    +0.000 NA
ATOM     16  C   UNL     1       7.160   5.344  16.829  0.00  0.00    +0.000 A 
ATOM     17  C   UNL     1       6.218   6.182  17.420  0.00  0.00    +0.000 A 
ENDBRANCH  11  12
BRANCH   1  18
ATOM     18  C   UNL     1       3.675   5.646  20.111  0.00  0.00    +0.000 C 
BRANCH  18  21
ATOM     19  C   UNL     1       3.939   3.279  19.646  0.00  0.00    +0.000 C 
ATOM     20  O   UNL     1       5.162   3.446  19.648  0.00  0.00    +0.000 OA
ATOM     21  N   UNL     1       3.060   4.314  19.963  0.00  0.00    +0.000 N 
ATOM     22  C   UNL     1       1.604   4.193  19.926  0.00  0.00    +0.000 C 
BRANCH  19  23
ATOM     23  C   UNL     1       3.358   1.898  19.304  0.00  0.00    +0.000 C 
BRANCH  23  25
ATOM     24  C   UNL     1       2.472   2.208  17.140  0.00  0.00    +0.000 C 
ATOM     25  O   UNL     1       3.418   1.510  17.939  0.00  0.00    +0.000 OA
ENDBRANCH  23  25
ENDBRANCH  19  23
ENDBRANCH  18  21
ENDBRANCH   1  18
TORSDOF 5
ENDMDL
MODEL 4
REMARK VINA RESULT:      -7.1      3.669      5.709
REMARK  Name = 
REMARK  7 active torsions:
REMARK  status: ('A' for Active; 'I' for Inactive)
REMARK    1  A    between atoms: C_1  and  O_2
REMARK    2  A    between atoms: O_2  and  C_3
REMARK    3  A    between atoms: C_3  and  C_4
REMARK    4  A    between atoms: N_6  and  C_7
REMARK    5  A    between atoms: N_6  and  C_8
REMARK    6  A    between atoms: C_8  and  C_9
REMARK    7  A    between atoms: C_19  and  C_20
REMARK                            x       y       z     vdW  Elec       q    Type
REMARK                         _______ _______ _______ _____ _____    ______ ____
ROOT
ATOM      1  C   UNL     1       2.573   6.576  18.891  0.00  0.00    +0.000 A 
ATOM      2  N   UNL     1       2.160   7.788  19.373  0.00  0.00    +0.000 NA
ATOM      3  C   UNL     1       1.484   7.847  20.526  0.00  0.00    +0.000 A 
ATOM      4  N   UNL     1       1.118   9.066  21.018  0.00  0.00    +0.000 N 
ATOM      5  C   UNL     1       0.325   9.240  22.212  0.00  0.00    +0.000 C 
ATOM      6  C   UNL     1      -0.433  10.530  21.918  0.00  0.00    +0.000 C 
ATOM      7  C   UNL     1       0.559  11.346  21.098  0.00  0.00    +0.000 C 
ATOM      8  C   UNL     1       1.349  10.304  20.301  0.00  0.00    +0.000 C 
ATOM      9  N   UNL     1       1.158   6.748  21.207  0.00  0.00    +0.000 NA
ATOM     10  C   UNL     1       1.551   5.560  20.695  0.00  0.00    +0.000 A 
ATOM     11  C   UNL     1       2.288   5.368  19.528  0.00  0.00    +0.000 A 
ENDROOT
BRANCH  11  12
ATOM     12  C   UNL     1       2.707   4.003  19.111  0.00  0.00    +0.000 A 
ATOM     13  C   UNL     1       2.240   3.380  17.946  0.00  0.00    +0.000 A 
ATOM     14  C   UNL     1       2.687   2.114  17.594  0.00  0.00    +0.000 A 
ATOM     15  N   UNL     1       3.536   1.390  18.342  0.00  0.00    +0.000 NA
ATOM     16  C   UNL     1       3.967   1.969  19.477  0.00  0.00    +0.000 A 
ATOM     17  C   UNL     1       3.599   3.246  19.888  0.00  0.00    +0.000 A 
ENDBRANCH  11  12
BRANCH   1  18
ATOM     18  C   UNL     1       3.404   6.687  17.631  0.00  0.00    +0.000 C 
BRANCH  18  21
ATOM     19  C   UNL     1       5.566   6.522  16.540  0.00  0.00    +0.000 C 
ATOM     20  O   UNL     1       5.035   6.913  15.497  0.00  0.00    +0.000 OA
ATOM     21  N   UNL     1       4.856   6.451  17.738  0.00  0.00    +0.000 N 
ATOM     22  C   UNL     1       5.412   5.947  18.993  0.00  0.00    +0.000 C 
BRANCH  19  23
ATOM     23  C   UNL     1       7.048   6.118  16.538  0.00  0.00    +0.000 C 
BRANCH  23  25
ATOM     24  C   UNL     1       6.886   4.326  15.013  0.00  0.00    +0.000 C 
ATOM     25  O   UNL     1       7.543   5.544  15.337  0.00  0.00    +0.000 OA
ENDBRANCH  23  25
ENDBRANCH  19  23
ENDBRANCH  18  21
ENDBRANCH   1  18
TORSDOF 5
ENDMDL
MODEL 5
REMARK VINA RESULT:      -7.1      3.875      5.679
REMARK  Name = 
REMARK  7 active torsions:
REMARK  status: ('A' for Active; 'I' for Inactive)
REMARK    1  A    between atoms: C_1  and  O_2
REMARK    2  A    between atoms: O_2  and  C_3
REMARK    3  A    between atoms: C_3  and  C_4
REMARK    4  A    between atoms: N_6  and  C_7
REMARK    5  A    between atoms: N_6  and  C_8
REMARK    6  A    between atoms: C_8  and  C_9
REMARK    7  A    between atoms: C_19  and  C_20
REMARK                            x       y       z     vdW  Elec       q    Type
REMARK                         _______ _______ _______ _____ _____    ______ ____
ROOT
ATOM      1  C   UNL     1       3.738   6.128  19.136  0.00  0.00    +0.000 A 
ATOM      2  N   UNL     1       2.760   6.832  19.784  0.00  0.00    +0.000 NA
ATOM      3  C   UNL     1       2.220   7.907  19.199  0.00  0.00    +0.000 A 
ATOM      4  N   UNL     1       1.214   8.573  19.836  0.00  0.00    +0.000 N 
ATOM      5  C   UNL     1       0.612   9.784  19.331  0.00  0.00    +0.000 C 
ATOM      6  C   UNL     1       0.207  10.509  20.610  0.00  0.00    +0.000 C 
ATOM      7  C   UNL     1      -0.171   9.376  21.556  0.00  0.00    +0.000 C 
ATOM      8  C   UNL     1       0.760   8.223  21.168  0.00  0.00    +0.000 C 
ATOM      9  N   UNL     1       2.638   8.345  18.011  0.00  0.00    +0.000 NA
ATOM     10  C   UNL     1       3.626   7.650  17.404  0.00  0.00    +0.000 A 
ATOM     11  C   UNL     1       4.243   6.499  17.890  0.00  0.00    +0.000 A 
ENDROOT
BRANCH  11  12
ATOM     12  C   UNL     1       5.279   5.797  17.087  0.00  0.00    +0.000 A 
ATOM     13  C   UNL     1       5.137   5.522  15.720  0.00  0.00    +0.000 A 
ATOM     14  C   UNL     1       6.151   4.886  15.018  0.00  0.00    +0.000 A 
ATOM     15  N   UNL     1       7.289   4.452  15.584  0.00  0.00    +0.000 NA
ATOM     16  C   UNL     1       7.421   4.684  16.902  0.00  0.00    +0.000 A 
ATOM     17  C   UNL     1       6.473   5.347  17.676  0.00  0.00    +0.000 A 
ENDBRANCH  11  12
BRANCH   1  18
ATOM     18  C   UNL     1       4.177   4.888  19.887  0.00  0.00    +0.000 C 
BRANCH  18  21
ATOM     19  C   UNL     1       3.056   2.879  19.117  0.00  0.00    +0.000 C 
ATOM     20  O   UNL     1       3.848   2.835  18.172  0.00  0.00    +0.000 OA
ATOM     21  N   UNL     1       3.174   3.834  20.125  0.00  0.00    +0.000 N 
ATOM     22  C   UNL     1       2.238   3.970  21.240  0.00  0.00    +0.000 C 
BRANCH  19  23
ATOM     23  C   UNL     1       1.918   1.850  19.206  0.00  0.00    +0.000 C 
BRANCH  23  25
ATOM     24  C   UNL     1       0.730   3.503  18.013  0.00  0.00    +0.000 C 
ATOM     25  O   UNL     1       0.654   2.264  18.707  0.00  0.00    +0.000 OA
ENDBRANCH  23  25
ENDBRANCH  19  23
ENDBRANCH  18  21
ENDBRANCH   1  18
TORSDOF 5
ENDMDL
MODEL 6
REMARK VINA RESULT:      -7.0      3.637      5.532
REMARK  Name = 
REMARK  7 active torsions:
REMARK  status: ('A' for Active; 'I' for Inactive)
REMARK    1  A    between atoms: C_1  and  O_2
REMARK    2  A    between atoms: O_2  and  C_3
REMARK    3  A    between atoms: C_3  and  C_4
REMARK    4  A    between atoms: N_6  and  C_7
REMARK    5  A    between atoms: N_6  and  C_8
REMARK    6  A    between atoms: C_8  and  C_9
REMARK    7  A    between atoms: C_19  and  C_20
REMARK                            x       y       z     vdW  Elec       q    Type
REMARK                         _______ _______ _______ _____ _____    ______ ____
ROOT
ATOM      1  C   UNL     1       2.524   6.538  18.938  0.00  0.00    +0.000 A 
ATOM      2  N   UNL     1       2.116   7.756  19.408  0.00  0.00    +0.000 NA
ATOM      3  C   UNL     1       1.419   7.827  20.548  0.00  0.00    +0.000 A 
ATOM      4  N   UNL     1       1.057   9.051  21.029  0.00  0.00    +0.000 N 
ATOM      5  C   UNL     1       0.244   9.239  22.206  0.00  0.00    +0.000 C 
ATOM      6  C   UNL     1      -0.494  10.536  21.893  0.00  0.00    +0.000 C 
ATOM      7  C   UNL     1       0.522  11.338  21.090  0.00  0.00    +0.000 C 
ATOM      8  C   UNL     1       1.316  10.284  20.312  0.00  0.00    +0.000 C 
ATOM      9  N   UNL     1       1.068   6.734  21.226  0.00  0.00    +0.000 NA
ATOM     10  C   UNL     1       1.457   5.539  20.725  0.00  0.00    +0.000 A 
ATOM     11  C   UNL     1       2.214   5.335  19.574  0.00  0.00    +0.000 A 
ENDROOT
BRANCH  11  12
ATOM     12  C   UNL     1       2.625   3.965  19.169  0.00  0.00    +0.000 A 
ATOM     13  C   UNL     1       2.092   3.300  18.056  0.00  0.00    +0.000 A 
ATOM     14  C   UNL     1       2.534   2.030  17.712  0.00  0.00    +0.000 A 
ATOM     15  N   UNL     1       3.442   1.341  18.423  0.00  0.00    +0.000 NA
ATOM     16  C   UNL     1       3.937   1.959  19.509  0.00  0.00    +0.000 A 
ATOM     17  C   UNL     1       3.578   3.243  19.907  0.00  0.00    +0.000 A 
ENDBRANCH  11  12
BRANCH   1  18
ATOM     18  C   UNL     1       3.381   6.635  17.694  0.00  0.00    +0.000 C 
BRANCH  18  21
ATOM     19  C   UNL     1       5.572   6.514  16.659  0.00  0.00    +0.000 C 
ATOM     20  O   UNL     1       5.058   6.881  15.598  0.00  0.00    +0.000 OA
ATOM     21  N   UNL     1       4.835   6.437  17.839  0.00  0.00    +0.000 N 
ATOM     22  C   UNL     1       5.373   5.960  19.112  0.00  0.00    +0.000 C 
BRANCH  19  23
ATOM     23  C   UNL     1       7.064   6.149  16.697  0.00  0.00    +0.000 C 
BRANCH  23  25
ATOM     24  C   UNL     1       7.929   8.111  17.679  0.00  0.00    +0.000 C 
ATOM     25  O   UNL     1       7.980   7.226  16.568  0.00  0.00    +0.000 OA
ENDBRANCH  23  25
ENDBRANCH  19  23
ENDBRANCH  18  21
ENDBRANCH   1  18
TORSDOF 5
ENDMDL
MODEL 7
REMARK VINA RESULT:      -7.0      4.218      5.798
REMARK  Name = 
REMARK  7 active torsions:
REMARK  status: ('A' for Active; 'I' for Inactive)
REMARK    1  A    between atoms: C_1  and  O_2
REMARK    2  A    between atoms: O_2  and  C_3
REMARK    3  A    between atoms: C_3  and  C_4
REMARK    4  A    between atoms: N_6  and  C_7
REMARK    5  A    between atoms: N_6  and  C_8
REMARK    6  A    between atoms: C_8  and  C_9
REMARK    7  A    between atoms: C_19  and  C_20
REMARK                            x       y       z     vdW  Elec       q    Type
REMARK                         _______ _______ _______ _____ _____    ______ ____
ROOT
ATOM      1  C   UNL     1       3.774   6.489  18.833  0.00  0.00    +0.000 A 
ATOM      2  N   UNL     1       2.776   7.227  19.409  0.00  0.00    +0.000 NA
ATOM      3  C   UNL     1       2.202   8.218  18.718  0.00  0.00    +0.000 A 
ATOM      4  N   UNL     1       1.178   8.917  19.288  0.00  0.00    +0.000 N 
ATOM      5  C   UNL     1       0.538  10.050  18.663  0.00  0.00    +0.000 C 
ATOM      6  C   UNL     1       0.115  10.891  19.861  0.00  0.00    +0.000 C 
ATOM      7  C   UNL     1      -0.227   9.852  20.922  0.00  0.00    +0.000 C 
ATOM      8  C   UNL     1       0.738   8.694  20.651  0.00  0.00    +0.000 C 
ATOM      9  N   UNL     1       2.604   8.543  17.489  0.00  0.00    +0.000 NA
ATOM     10  C   UNL     1       3.612   7.818  16.953  0.00  0.00    +0.000 A 
ATOM     11  C   UNL     1       4.264   6.743  17.552  0.00  0.00    +0.000 A 
ENDROOT
BRANCH  11  12
ATOM     12  C   UNL     1       5.320   5.993  16.822  0.00  0.00    +0.000 A 
ATOM     13  C   UNL     1       6.486   5.515  17.435  0.00  0.00    +0.000 A 
ATOM     14  C   UNL     1       7.425   4.798  16.707  0.00  0.00    +0.000 A 
ATOM     15  N   UNL     1       7.319   4.556  15.390  0.00  0.00    +0.000 NA
ATOM     16  C   UNL     1       6.218   5.037  14.787  0.00  0.00    +0.000 A 
ATOM     17  C   UNL     1       5.209   5.734  15.445  0.00  0.00    +0.000 A 
ENDBRANCH  11  12
BRANCH   1  18
ATOM     18  C   UNL     1       4.252   5.348  19.706  0.00  0.00    +0.000 C 
BRANCH  18  21
ATOM     19  C   UNL     1       2.599   3.798  20.574  0.00  0.00    +0.000 C 
ATOM     20  O   UNL     1       2.254   4.666  21.381  0.00  0.00    +0.000 OA
ATOM     21  N   UNL     1       3.556   4.053  19.592  0.00  0.00    +0.000 N 
ATOM     22  C   UNL     1       4.044   3.054  18.643  0.00  0.00    +0.000 C 
BRANCH  19  23
ATOM     23  C   UNL     1       1.954   2.405  20.630  0.00  0.00    +0.000 C 
BRANCH  23  25
ATOM     24  C   UNL     1       0.613   2.420  18.689  0.00  0.00    +0.000 C 
ATOM     25  O   UNL     1       0.639   2.298  20.105  0.00  0.00    +0.000 OA
ENDBRANCH  23  25
ENDBRANCH  19  23
ENDBRANCH  18  21
ENDBRANCH   1  18
TORSDOF 5
ENDMDL
MODEL 8
REMARK VINA RESULT:      -6.9      3.797      5.826
REMARK  Name = 
REMARK  7 active torsions:
REMARK  status: ('A' for Active; 'I' for Inactive)
REMARK    1  A    between atoms: C_1  and  O_2
REMARK    2  A    between atoms: O_2  and  C_3
REMARK    3  A    between atoms: C_3  and  C_4
REMARK    4  A    between atoms: N_6  and  C_7
REMARK    5  A    between atoms: N_6  and  C_8
REMARK    6  A    between atoms: C_8  and  C_9
REMARK    7  A    between atoms: C_19  and  C_20
REMARK                            x       y       z     vdW  Elec       q    Type
REMARK                         _______ _______ _______ _____ _____    ______ ____
ROOT
ATOM      1  C   UNL     1       2.664   6.553  18.432  0.00  0.00    +0.000 A 
ATOM      2  N   UNL     1       2.252   7.834  18.681  0.00  0.00    +0.000 NA
ATOM      3  C   UNL     1       1.677   8.129  19.853  0.00  0.00    +0.000 A 
ATOM      4  N   UNL     1       1.312   9.419  20.106  0.00  0.00    +0.000 N 
ATOM      5  C   UNL     1       0.621   9.834  21.303  0.00  0.00    +0.000 C 
ATOM      6  C   UNL     1      -0.205  11.017  20.813  0.00  0.00    +0.000 C 
ATOM      7  C   UNL     1       0.681  11.654  19.750  0.00  0.00    +0.000 C 
ATOM      8  C   UNL     1       1.436  10.477  19.123  0.00  0.00    +0.000 C 
ATOM      9  N   UNL     1       1.452   7.197  20.779  0.00  0.00    +0.000 NA
ATOM     10  C   UNL     1       1.841   5.933  20.498  0.00  0.00    +0.000 A 
ATOM     11  C   UNL     1       2.479   5.506  19.336  0.00  0.00    +0.000 A 
ENDROOT
BRANCH  11  12
ATOM     12  C   UNL     1       2.908   4.091  19.181  0.00  0.00    +0.000 A 
ATOM     13  C   UNL     1       4.077   3.575  19.758  0.00  0.00    +0.000 A 
ATOM     14  C   UNL     1       4.413   2.238  19.600  0.00  0.00    +0.000 A 
ATOM     15  N   UNL     1       3.695   1.373  18.865  0.00  0.00    +0.000 NA
ATOM     16  C   UNL     1       2.588   1.866  18.283  0.00  0.00    +0.000 A 
ATOM     17  C   UNL     1       2.157   3.182  18.417  0.00  0.00    +0.000 A 
ENDBRANCH  11  12
BRANCH   1  18
ATOM     18  C   UNL     1       3.378   6.403  17.105  0.00  0.00    +0.000 C 
BRANCH  18  21
ATOM     19  C   UNL     1       5.226   4.905  16.632  0.00  0.00    +0.000 C 
ATOM     20  O   UNL     1       4.430   4.148  16.069  0.00  0.00    +0.000 OA
ATOM     21  N   UNL     1       4.829   6.146  17.128  0.00  0.00    +0.000 N 
ATOM     22  C   UNL     1       5.712   7.062  17.849  0.00  0.00    +0.000 C 
BRANCH  19  23
ATOM     23  C   UNL     1       6.698   4.489  16.779  0.00  0.00    +0.000 C 
BRANCH  23  25
ATOM     24  C   UNL     1       7.149   4.843  14.491  0.00  0.00    +0.000 C 
ATOM     25  O   UNL     1       7.603   5.026  15.826  0.00  0.00    +0.000 OA
ENDBRANCH  23  25
ENDBRANCH  19  23
ENDBRANCH  18  21
ENDBRANCH   1  18
TORSDOF 5
ENDMDL
MODEL 9
REMARK VINA RESULT:      -6.9      4.317      6.037
REMARK  Name = 
REMARK  7 active torsions:
REMARK  status: ('A' for Active; 'I' for Inactive)
REMARK    1  A    between atoms: C_1  and  O_2
REMARK    2  A    between atoms: O_2  and  C_3
REMARK    3  A    between atoms: C_3  and  C_4
REMARK    4  A    between atoms: N_6  and  C_7
REMARK    5  A    between atoms: N_6  and  C_8
REMARK    6  A    between atoms: C_8  and  C_9
REMARK    7  A    between atoms: C_19  and  C_20
REMARK                            x       y       z     vdW  Elec       q    Type
REMARK                         _______ _______ _______ _____ _____    ______ ____
ROOT
ATOM      1  C   UNL     1       3.190   6.741  19.141  0.00  0.00    +0.000 A 
ATOM      2  N   UNL     1       2.244   7.597  19.634  0.00  0.00    +0.000 NA
ATOM      3  C   UNL     1       1.773   8.580  18.858  0.00  0.00    +0.000 A 
ATOM      4  N   UNL     1       0.797   9.400  19.346  0.00  0.00    +0.000 N 
ATOM      5  C   UNL     1       0.271  10.534  18.625  0.00  0.00    +0.000 C 
ATOM      6  C   UNL     1      -0.111  11.491  19.748  0.00  0.00    +0.000 C 
ATOM      7  C   UNL     1      -0.565  10.562  20.867  0.00  0.00    +0.000 C 
ATOM      8  C   UNL     1       0.305   9.311  20.707  0.00  0.00    +0.000 C 
ATOM      9  N   UNL     1       2.232   8.782  17.623  0.00  0.00    +0.000 NA
ATOM     10  C   UNL     1       3.188   7.941  17.170  0.00  0.00    +0.000 A 
ATOM     11  C   UNL     1       3.733   6.861  17.862  0.00  0.00    +0.000 A 
ENDROOT
BRANCH  11  12
ATOM     12  C   UNL     1       4.740   5.976  17.218  0.00  0.00    +0.000 A 
ATOM     13  C   UNL     1       6.088   6.328  17.071  0.00  0.00    +0.000 A 
ATOM     14  C   UNL     1       6.988   5.449  16.485  0.00  0.00    +0.000 A 
ATOM     15  N   UNL     1       6.640   4.253  15.983  0.00  0.00    +0.000 NA
ATOM     16  C   UNL     1       5.342   3.919  16.093  0.00  0.00    +0.000 A 
ATOM     17  C   UNL     1       4.380   4.722  16.698  0.00  0.00    +0.000 A 
ENDBRANCH  11  12
BRANCH   1  18
ATOM     18  C   UNL     1       3.548   5.629  20.106  0.00  0.00    +0.000 C 
BRANCH  18  21
ATOM     19  C   UNL     1       3.136   3.241  19.995  0.00  0.00    +0.000 C 
ATOM     20  O   UNL     1       4.347   3.070  19.828  0.00  0.00    +0.000 OA
ATOM     21  N   UNL     1       2.604   4.505  20.245  0.00  0.00    +0.000 N 
ATOM     22  C   UNL     1       1.176   4.778  20.398  0.00  0.00    +0.000 C 
BRANCH  19  23
ATOM     23  C   UNL     1       2.183   2.037  19.948  0.00  0.00    +0.000 C 
BRANCH  23  25
ATOM     24  C   UNL     1       2.265   2.084  17.591  0.00  0.00    +0.000 C 
ATOM     25  O   UNL     1       1.460   1.853  18.740  0.00  0.00    +0.000 OA
ENDBRANCH  23  25
ENDBRANCH  19  23
ENDBRANCH  18  21
ENDBRANCH   1  18
TORSDOF 5
ENDMDL
