MODEL 1
REMARK VINA RESULT:      -7.6      0.000      0.000
REMARK  Name = 
REMARK  5 active torsions:
REMARK  status: ('A' for Active; 'I' for Inactive)
REMARK    1  A    between atoms: C_1  and  O_2
REMARK    2  A    between atoms: O_2  and  C_3
REMARK    3  A    between atoms: C_11  and  C_12
REMARK    4  A    between atoms: C_12  and  N_13
REMARK    5  A    between atoms: N_16  and  C_17
REMARK                            x       y       z     vdW  Elec       q    Type
REMARK                         _______ _______ _______ _____ _____    ______ ____
ROOT
ATOM      1  C   UNL     1       2.287   5.148  19.350  0.00  0.00    +0.000 C 
ENDROOT
BRANCH   1  10
ATOM      2  C   UNL     1       0.972   9.744  21.301  0.00  0.00    +0.000 A 
ATOM      3  C   UNL     1       0.799  11.050  21.038  0.00  0.00    +0.000 A 
ATOM      4  C   UNL     1       1.000  11.639  19.706  0.00  0.00    +0.000 A 
ATOM      5  O   UNL     1       0.828  12.834  19.521  0.00  0.00    +0.000 OA
ATOM      6  O   UNL     1       1.351  10.767  18.696  0.00  0.00    +0.000 OA
ATOM      7  C   UNL     1       1.559   9.396  18.945  0.00  0.00    +0.000 A 
ATOM      8  C   UNL     1       1.913   8.634  17.838  0.00  0.00    +0.000 A 
ATOM      9  C   UNL     1       2.147   7.272  17.994  0.00  0.00    +0.000 A 
ATOM     10  C   UNL     1       2.050   6.659  19.255  0.00  0.00    +0.000 A 
ATOM     11  C   UNL     1       1.668   7.458  20.364  0.00  0.00    +0.000 A 
ATOM     12  C   UNL     1       1.413   8.842  20.220  0.00  0.00    +0.000 A 
BRANCH   2  14
ATOM     13  C   UNL     1      -0.385   9.645  23.262  0.00  0.00    +0.000 C 
ATOM     14  O   UNL     1       0.736   9.146  22.528  0.00  0.00    +0.000 OA
ENDBRANCH   2  14
ENDBRANCH   1  10
BRANCH   1  15
ATOM     15  N   UNL     1       3.664   4.816  19.769  0.00  0.00    +0.000 NA
ATOM     16  C   UNL     1       4.123   3.498  19.291  0.00  0.00    +0.000 C 
ATOM     17  C   UNL     1       4.489   3.441  17.792  0.00  0.00    +0.000 C 
ATOM     18  N   UNL     1       5.490   4.462  17.416  0.00  0.00    +0.000 N 
ATOM     19  C   UNL     1       5.196   5.823  17.929  0.00  0.00    +0.000 C 
ATOM     20  C   UNL     1       4.681   5.819  19.394  0.00  0.00    +0.000 C 
BRANCH  18  21
ATOM     21  C   UNL     1       5.936   4.450  16.075  0.00  0.00    +0.000 A 
ATOM     22  C   UNL     1       7.125   5.071  15.655  0.00  0.00    +0.000 A 
ATOM     23  C   UNL     1       7.552   5.033  14.321  0.00  0.00    +0.000 A 
ATOM     24  C   UNL     1       6.780   4.384  13.367  0.00  0.00    +0.000 A 
ATOM     25 CL   UNL     1       7.308   4.333  11.730  0.00  0.00    +0.000 Cl
ATOM     26  C   UNL     1       5.583   3.784  13.737  0.00  0.00    +0.000 A 
ATOM     27  C   UNL     1       5.170   3.815  15.078  0.00  0.00    +0.000 A 
ENDBRANCH  18  21
ENDBRANCH   1  15
TORSDOF 4
ENDMDL
MODEL 2
REMARK VINA RESULT:      -7.6      4.876      8.684
REMARK  Name = 
REMARK  5 active torsions:
REMARK  status: ('A' for Active; 'I' for Inactive)
REMARK    1  A    between atoms: C_1  and  O_2
REMARK    2  A    between atoms: O_2  and  C_3
REMARK    3  A    between atoms: C_11  and  C_12
REMARK    4  A    between atoms: C_12  and  N_13
REMARK    5  A    between atoms: N_16  and  C_17
REMARK                            x       y       z     vdW  Elec       q    Type
REMARK                         _______ _______ _______ _____ _____    ______ ____
ROOT
ATOM      1  C   UNL     1       1.730   6.776  19.760  0.00  0.00    +0.000 C 
ENDROOT
BRANCH   1  10
ATOM      2  C   UNL     1       5.821   6.221  16.660  0.00  0.00    +0.000 A 
ATOM      3  C   UNL     1       6.435   5.424  15.769  0.00  0.00    +0.000 A 
ATOM      4  C   UNL     1       5.894   4.127  15.337  0.00  0.00    +0.000 A 
ATOM      5  O   UNL     1       6.493   3.442  14.522  0.00  0.00    +0.000 OA
ATOM      6  O   UNL     1       4.675   3.762  15.872  0.00  0.00    +0.000 OA
ATOM      7  C   UNL     1       4.017   4.567  16.823  0.00  0.00    +0.000 A 
ATOM      8  C   UNL     1       2.799   4.077  17.280  0.00  0.00    +0.000 A 
ATOM      9  C   UNL     1       2.085   4.802  18.228  0.00  0.00    +0.000 A 
ATOM     10  C   UNL     1       2.584   6.011  18.743  0.00  0.00    +0.000 A 
ATOM     11  C   UNL     1       3.820   6.497  18.244  0.00  0.00    +0.000 A 
ATOM     12  C   UNL     1       4.552   5.778  17.269  0.00  0.00    +0.000 A 
BRANCH   2  14
ATOM     13  C   UNL     1       7.581   7.515  17.619  0.00  0.00    +0.000 C 
ATOM     14  O   UNL     1       6.272   7.472  17.046  0.00  0.00    +0.000 OA
ENDBRANCH   2  14
ENDBRANCH   1  10
BRANCH   1  15
ATOM     15  N   UNL     1       2.126   8.195  19.880  0.00  0.00    +0.000 NA
ATOM     16  C   UNL     1       2.164   8.907  18.589  0.00  0.00    +0.000 C 
ATOM     17  C   UNL     1       0.782   9.268  18.004  0.00  0.00    +0.000 C 
ATOM     18  N   UNL     1      -0.048  10.041  18.954  0.00  0.00    +0.000 N 
ATOM     19  C   UNL     1      -0.084   9.483  20.328  0.00  0.00    +0.000 C 
ATOM     20  C   UNL     1       1.303   8.987  20.817  0.00  0.00    +0.000 C 
BRANCH  18  21
ATOM     21  C   UNL     1      -1.310  10.473  18.488  0.00  0.00    +0.000 A 
ATOM     22  C   UNL     1      -1.912   9.969  17.322  0.00  0.00    +0.000 A 
ATOM     23  C   UNL     1      -3.171  10.404  16.887  0.00  0.00    +0.000 A 
ATOM     24  C   UNL     1      -3.850  11.379  17.606  0.00  0.00    +0.000 A 
ATOM     25 CL   UNL     1      -5.399  11.908  17.075  0.00  0.00    +0.000 Cl
ATOM     26  C   UNL     1      -3.275  11.924  18.747  0.00  0.00    +0.000 A 
ATOM     27  C   UNL     1      -2.020  11.472  19.182  0.00  0.00    +0.000 A 
ENDBRANCH  18  21
ENDBRANCH   1  15
TORSDOF 4
ENDMDL
MODEL 3
REMARK VINA RESULT:      -7.6      5.573     10.213
REMARK  Name = 
REMARK  5 active torsions:
REMARK  status: ('A' for Active; 'I' for Inactive)
REMARK    1  A    between atoms: C_1  and  O_2
REMARK    2  A    between atoms: O_2  and  C_3
REMARK    3  A    between atoms: C_11  and  C_12
REMARK    4  A    between atoms: C_12  and  N_13
REMARK    5  A    between atoms: N_16  and  C_17
REMARK                            x       y       z     vdW  Elec       q    Type
REMARK                         _______ _______ _______ _____ _____    ______ ____
ROOT
ATOM      1  C   UNL     1       0.417   9.675  19.785  0.00  0.00    +0.000 C 
ENDROOT
BRANCH   1  10
ATOM      2  C   UNL     1       2.977   5.200  20.055  0.00  0.00    +0.000 A 
ATOM      3  C   UNL     1       3.883   4.405  19.461  0.00  0.00    +0.000 A 
ATOM      4  C   UNL     1       4.572   4.758  18.211  0.00  0.00    +0.000 A 
ATOM      5  O   UNL     1       5.389   3.999  17.714  0.00  0.00    +0.000 OA
ATOM      6  O   UNL     1       4.268   5.991  17.670  0.00  0.00    +0.000 OA
ATOM      7  C   UNL     1       3.308   6.837  18.259  0.00  0.00    +0.000 A 
ATOM      8  C   UNL     1       3.097   8.047  17.607  0.00  0.00    +0.000 A 
ATOM      9  C   UNL     1       2.159   8.940  18.113  0.00  0.00    +0.000 A 
ATOM     10  C   UNL     1       1.409   8.631  19.261  0.00  0.00    +0.000 A 
ATOM     11  C   UNL     1       1.658   7.397  19.917  0.00  0.00    +0.000 A 
ATOM     12  C   UNL     1       2.619   6.483  19.422  0.00  0.00    +0.000 A 
BRANCH   2  14
ATOM     13  C   UNL     1       2.097   3.546  21.533  0.00  0.00    +0.000 C 
ATOM     14  O   UNL     1       2.353   4.926  21.260  0.00  0.00    +0.000 OA
ENDBRANCH   2  14
ENDBRANCH   1  10
BRANCH   1  15
ATOM     15  N   UNL     1       0.943  10.426  20.944  0.00  0.00    +0.000 NA
ATOM     16  C   UNL     1       0.746  11.883  20.840  0.00  0.00    +0.000 C 
ATOM     17  C   UNL     1      -0.699  12.364  21.094  0.00  0.00    +0.000 C 
ATOM     18  N   UNL     1      -1.228  11.901  22.395  0.00  0.00    +0.000 N 
ATOM     19  C   UNL     1      -0.998  10.461  22.670  0.00  0.00    +0.000 C 
ATOM     20  C   UNL     1       0.419   9.984  22.253  0.00  0.00    +0.000 C 
BRANCH  18  21
ATOM     21  C   UNL     1      -2.523  12.342  22.746  0.00  0.00    +0.000 A 
ATOM     22  C   UNL     1      -3.074  12.164  24.028  0.00  0.00    +0.000 A 
ATOM     23  C   UNL     1      -4.357  12.622  24.355  0.00  0.00    +0.000 A 
ATOM     24  C   UNL     1      -5.130  13.256  23.392  0.00  0.00    +0.000 A 
ATOM     25 CL   UNL     1      -6.703  13.825  23.797  0.00  0.00    +0.000 Cl
ATOM     26  C   UNL     1      -4.633  13.425  22.106  0.00  0.00    +0.000 A 
ATOM     27  C   UNL     1      -3.342  12.974  21.790  0.00  0.00    +0.000 A 
ENDBRANCH  18  21
ENDBRANCH   1  15
TORSDOF 4
ENDMDL
MODEL 4
REMARK VINA RESULT:      -7.5      5.363      9.571
REMARK  Name = 
REMARK  5 active torsions:
REMARK  status: ('A' for Active; 'I' for Inactive)
REMARK    1  A    between atoms: C_1  and  O_2
REMARK    2  A    between atoms: O_2  and  C_3
REMARK    3  A    between atoms: C_11  and  C_12
REMARK    4  A    between atoms: C_12  and  N_13
REMARK    5  A    between atoms: N_16  and  C_17
REMARK                            x       y       z     vdW  Elec       q    Type
REMARK                         _______ _______ _______ _____ _____    ______ ____
ROOT
ATOM      1  C   UNL     1       1.562   9.670  18.050  0.00  0.00    +0.000 C 
ENDROOT
BRANCH   1  10
ATOM      2  C   UNL     1       4.613   5.579  17.271  0.00  0.00    +0.000 A 
ATOM      3  C   UNL     1       5.072   4.425  17.786  0.00  0.00    +0.000 A 
ATOM      4  C   UNL     1       4.662   3.908  19.099  0.00  0.00    +0.000 A 
ATOM      5  O   UNL     1       5.110   2.852  19.520  0.00  0.00    +0.000 OA
ATOM      6  O   UNL     1       3.733   4.658  19.792  0.00  0.00    +0.000 OA
ATOM      7  C   UNL     1       3.250   5.880  19.287  0.00  0.00    +0.000 A 
ATOM      8  C   UNL     1       2.321   6.533  20.090  0.00  0.00    +0.000 A 
ATOM      9  C   UNL     1       1.797   7.752  19.674  0.00  0.00    +0.000 A 
ATOM     10  C   UNL     1       2.205   8.343  18.465  0.00  0.00    +0.000 A 
ATOM     11  C   UNL     1       3.139   7.644  17.656  0.00  0.00    +0.000 A 
ATOM     12  C   UNL     1       3.672   6.397  18.059  0.00  0.00    +0.000 A 
BRANCH   2  14
ATOM     13  C   UNL     1       5.883   5.303  15.270  0.00  0.00    +0.000 C 
ATOM     14  O   UNL     1       4.931   6.066  16.014  0.00  0.00    +0.000 OA
ENDBRANCH   2  14
ENDBRANCH   1  10
BRANCH   1  15
ATOM     15  N   UNL     1       1.312  10.563  19.200  0.00  0.00    +0.000 NA
ATOM     16  C   UNL     1       0.973  11.944  18.811  0.00  0.00    +0.000 C 
ATOM     17  C   UNL     1      -0.457  12.133  18.262  0.00  0.00    +0.000 C 
ATOM     18  N   UNL     1      -1.491  11.631  19.193  0.00  0.00    +0.000 N 
ATOM     19  C   UNL     1      -1.213  10.281  19.743  0.00  0.00    +0.000 C 
ATOM     20  C   UNL     1       0.275  10.083  20.138  0.00  0.00    +0.000 C 
BRANCH  18  21
ATOM     21  C   UNL     1      -2.837  11.815  18.806  0.00  0.00    +0.000 A 
ATOM     22  C   UNL     1      -3.813  12.366  19.656  0.00  0.00    +0.000 A 
ATOM     23  C   UNL     1      -5.138  12.550  19.244  0.00  0.00    +0.000 A 
ATOM     24  C   UNL     1      -5.525  12.165  17.967  0.00  0.00    +0.000 A 
ATOM     25 CL   UNL     1      -7.152  12.399  17.459  0.00  0.00    +0.000 Cl
ATOM     26  C   UNL     1      -4.597  11.591  17.107  0.00  0.00    +0.000 A 
ATOM     27  C   UNL     1      -3.268  11.422  17.524  0.00  0.00    +0.000 A 
ENDBRANCH  18  21
ENDBRANCH   1  15
TORSDOF 4
ENDMDL
MODEL 5
REMARK VINA RESULT:      -7.5      5.530     10.002
REMARK  Name = 
REMARK  5 active torsions:
REMARK  status: ('A' for Active; 'I' for Inactive)
REMARK    1  A    between atoms: C_1  and  O_2
REMARK    2  A    between atoms: O_2  and  C_3
REMARK    3  A    between atoms: C_11  and  C_12
REMARK    4  A    between atoms: C_12  and  N_13
REMARK    5  A    between atoms: N_16  and  C_17
REMARK                            x       y       z     vdW  Elec       q    Type
REMARK                         _______ _______ _______ _____ _____    ______ ____
ROOT
ATOM      1  C   UNL     1       1.120   9.069  20.248  0.00  0.00    +0.000 C 
ENDROOT
BRANCH   1  10
ATOM      2  C   UNL     1       3.257   4.461  19.320  0.00  0.00    +0.000 A 
ATOM      3  C   UNL     1       4.000   3.737  18.466  0.00  0.00    +0.000 A 
ATOM      4  C   UNL     1       4.553   4.279  17.216  0.00  0.00    +0.000 A 
ATOM      5  O   UNL     1       5.223   3.577  16.476  0.00  0.00    +0.000 OA
ATOM      6  O   UNL     1       4.300   5.612  16.961  0.00  0.00    +0.000 OA
ATOM      7  C   UNL     1       3.508   6.390  17.826  0.00  0.00    +0.000 A 
ATOM      8  C   UNL     1       3.332   7.716  17.445  0.00  0.00    +0.000 A 
ATOM      9  C   UNL     1       2.556   8.556  18.236  0.00  0.00    +0.000 A 
ATOM     10  C   UNL     1       1.933   8.081  19.404  0.00  0.00    +0.000 A 
ATOM     11  C   UNL     1       2.146   6.729  19.779  0.00  0.00    +0.000 A 
ATOM     12  C   UNL     1       2.944   5.865  18.992  0.00  0.00    +0.000 A 
BRANCH   2  14
ATOM     13  C   UNL     1       3.003   2.620  20.816  0.00  0.00    +0.000 C 
ATOM     14  O   UNL     1       2.770   4.001  20.532  0.00  0.00    +0.000 OA
ENDBRANCH   2  14
ENDBRANCH   1  10
BRANCH   1  15
ATOM     15  N   UNL     1       1.050  10.412  19.638  0.00  0.00    +0.000 NA
ATOM     16  C   UNL     1      -0.179  10.642  18.857  0.00  0.00    +0.000 C 
ATOM     17  C   UNL     1      -1.450  10.880  19.699  0.00  0.00    +0.000 C 
ATOM     18  N   UNL     1      -1.286  11.985  20.669  0.00  0.00    +0.000 N 
ATOM     19  C   UNL     1      -0.027  11.928  21.452  0.00  0.00    +0.000 C 
ATOM     20  C   UNL     1       1.203  11.531  20.591  0.00  0.00    +0.000 C 
BRANCH  18  21
ATOM     21  C   UNL     1      -2.417  12.321  21.445  0.00  0.00    +0.000 A 
ATOM     22  C   UNL     1      -2.468  12.159  22.841  0.00  0.00    +0.000 A 
ATOM     23  C   UNL     1      -3.597  12.512  23.590  0.00  0.00    +0.000 A 
ATOM     24  C   UNL     1      -4.719  13.020  22.949  0.00  0.00    +0.000 A 
ATOM     25 CL   UNL     1      -6.104  13.460  23.871  0.00  0.00    +0.000 Cl
ATOM     26  C   UNL     1      -4.720  13.168  21.568  0.00  0.00    +0.000 A 
ATOM     27  C   UNL     1      -3.579  12.823  20.827  0.00  0.00    +0.000 A 
ENDBRANCH  18  21
ENDBRANCH   1  15
TORSDOF 4
ENDMDL
MODEL 6
REMARK VINA RESULT:      -7.5      5.615     10.105
REMARK  Name = 
REMARK  5 active torsions:
REMARK  status: ('A' for Active; 'I' for Inactive)
REMARK    1  A    between atoms: C_1  and  O_2
REMARK    2  A    between atoms: O_2  and  C_3
REMARK    3  A    between atoms: C_11  and  C_12
REMARK    4  A    between atoms: C_12  and  N_13
REMARK    5  A    between atoms: N_16  and  C_17
REMARK                            x       y       z     vdW  Elec       q    Type
REMARK                         _______ _______ _______ _____ _____    ______ ____
ROOT
ATOM      1  C   UNL     1       0.924   9.251  20.535  0.00  0.00    +0.000 C 
ENDROOT
BRANCH   1  10
ATOM      2  C   UNL     1       3.005   4.587  19.777  0.00  0.00    +0.000 A 
ATOM      3  C   UNL     1       3.692   3.806  18.927  0.00  0.00    +0.000 A 
ATOM      4  C   UNL     1       4.161   4.262  17.610  0.00  0.00    +0.000 A 
ATOM      5  O   UNL     1       4.784   3.511  16.876  0.00  0.00    +0.000 OA
ATOM      6  O   UNL     1       3.890   5.576  17.284  0.00  0.00    +0.000 OA
ATOM      7  C   UNL     1       3.155   6.412  18.146  0.00  0.00    +0.000 A 
ATOM      8  C   UNL     1       2.951   7.710  17.689  0.00  0.00    +0.000 A 
ATOM      9  C   UNL     1       2.227   8.602  18.472  0.00  0.00    +0.000 A 
ATOM     10  C   UNL     1       1.682   8.208  19.707  0.00  0.00    +0.000 A 
ATOM     11  C   UNL     1       1.922   6.883  20.156  0.00  0.00    +0.000 A 
ATOM     12  C   UNL     1       2.669   5.967  19.378  0.00  0.00    +0.000 A 
BRANCH   2  14
ATOM     13  C   UNL     1       1.630   3.160  21.107  0.00  0.00    +0.000 C 
ATOM     14  O   UNL     1       2.599   4.209  21.046  0.00  0.00    +0.000 OA
ENDBRANCH   2  14
ENDBRANCH   1  10
BRANCH   1  15
ATOM     15  N   UNL     1       0.925  10.586  19.902  0.00  0.00    +0.000 NA
ATOM     16  C   UNL     1      -0.246  10.829  19.039  0.00  0.00    +0.000 C 
ATOM     17  C   UNL     1      -1.563  11.109  19.793  0.00  0.00    +0.000 C 
ATOM     18  N   UNL     1      -1.437  12.225  20.755  0.00  0.00    +0.000 N 
ATOM     19  C   UNL     1      -0.234  12.153  21.620  0.00  0.00    +0.000 C 
ATOM     20  C   UNL     1       1.040  11.715  20.848  0.00  0.00    +0.000 C 
BRANCH  18  21
ATOM     21  C   UNL     1      -2.609  12.598  21.451  0.00  0.00    +0.000 A 
ATOM     22  C   UNL     1      -3.727  13.174  20.821  0.00  0.00    +0.000 A 
ATOM     23  C   UNL     1      -4.882  13.524  21.532  0.00  0.00    +0.000 A 
ATOM     24  C   UNL     1      -4.936  13.320  22.904  0.00  0.00    +0.000 A 
ATOM     25 CL   UNL     1      -6.359  13.743  23.775  0.00  0.00    +0.000 Cl
ATOM     26  C   UNL     1      -3.842  12.780  23.568  0.00  0.00    +0.000 A 
ATOM     27  C   UNL     1      -2.693  12.421  22.846  0.00  0.00    +0.000 A 
ENDBRANCH  18  21
ENDBRANCH   1  15
TORSDOF 4
ENDMDL
MODEL 7
REMARK VINA RESULT:      -7.5      4.976      9.433
REMARK  Name = 
REMARK  5 active torsions:
REMARK  status: ('A' for Active; 'I' for Inactive)
REMARK    1  A    between atoms: C_1  and  O_2
REMARK    2  A    between atoms: O_2  and  C_3
REMARK    3  A    between atoms: C_11  and  C_12
REMARK    4  A    between atoms: C_12  and  N_13
REMARK    5  A    between atoms: N_16  and  C_17
REMARK                            x       y       z     vdW  Elec       q    Type
REMARK                         _______ _______ _______ _____ _____    ______ ____
ROOT
ATOM      1  C   UNL     1       1.479   9.381  18.606  0.00  0.00    +0.000 C 
ENDROOT
BRANCH   1  10
ATOM      2  C   UNL     1       4.396   5.238  17.614  0.00  0.00    +0.000 A 
ATOM      3  C   UNL     1       4.818   4.046  18.070  0.00  0.00    +0.000 A 
ATOM      4  C   UNL     1       4.395   3.477  19.357  0.00  0.00    +0.000 A 
ATOM      5  O   UNL     1       4.809   2.388  19.723  0.00  0.00    +0.000 OA
ATOM      6  O   UNL     1       3.492   4.221  20.089  0.00  0.00    +0.000 OA
ATOM      7  C   UNL     1       3.046   5.482  19.648  0.00  0.00    +0.000 A 
ATOM      8  C   UNL     1       2.141   6.123  20.485  0.00  0.00    +0.000 A 
ATOM      9  C   UNL     1       1.655   7.378  20.132  0.00  0.00    +0.000 A 
ATOM     10  C   UNL     1       2.080   8.014  18.953  0.00  0.00    +0.000 A 
ATOM     11  C   UNL     1       2.990   7.328  18.107  0.00  0.00    +0.000 A 
ATOM     12  C   UNL     1       3.482   6.045  18.445  0.00  0.00    +0.000 A 
BRANCH   2  14
ATOM     13  C   UNL     1       5.485   4.932  15.513  0.00  0.00    +0.000 C 
ATOM     14  O   UNL     1       4.727   5.777  16.382  0.00  0.00    +0.000 OA
ENDBRANCH   2  14
ENDBRANCH   1  10
BRANCH   1  15
ATOM     15  N   UNL     1       0.470   9.822  19.591  0.00  0.00    +0.000 NA
ATOM     16  C   UNL     1       1.022  10.679  20.657  0.00  0.00    +0.000 C 
ATOM     17  C   UNL     1       1.341  12.127  20.228  0.00  0.00    +0.000 C 
ATOM     18  N   UNL     1       0.175  12.806  19.623  0.00  0.00    +0.000 N 
ATOM     19  C   UNL     1      -0.539  12.002  18.601  0.00  0.00    +0.000 C 
ATOM     20  C   UNL     1      -0.699  10.512  19.008  0.00  0.00    +0.000 C 
BRANCH  18  21
ATOM     21  C   UNL     1       0.350  14.159  19.254  0.00  0.00    +0.000 A 
ATOM     22  C   UNL     1      -0.708  15.084  19.200  0.00  0.00    +0.000 A 
ATOM     23  C   UNL     1      -0.506  16.424  18.844  0.00  0.00    +0.000 A 
ATOM     24  C   UNL     1       0.768  16.865  18.509  0.00  0.00    +0.000 A 
ATOM     25 CL   UNL     1       1.016  18.512  18.078  0.00  0.00    +0.000 Cl
ATOM     26  C   UNL     1       1.834  15.975  18.522  0.00  0.00    +0.000 A 
ATOM     27  C   UNL     1       1.624  14.637  18.893  0.00  0.00    +0.000 A 
ENDBRANCH  18  21
ENDBRANCH   1  15
TORSDOF 4
ENDMDL
MODEL 8
REMARK VINA RESULT:      -7.5      5.261      9.181
REMARK  Name = 
REMARK  5 active torsions:
REMARK  status: ('A' for Active; 'I' for Inactive)
REMARK    1  A    between atoms: C_1  and  O_2
REMARK    2  A    between atoms: O_2  and  C_3
REMARK    3  A    between atoms: C_11  and  C_12
REMARK    4  A    between atoms: C_12  and  N_13
REMARK    5  A    between atoms: N_16  and  C_17
REMARK                            x       y       z     vdW  Elec       q    Type
REMARK                         _______ _______ _______ _____ _____    ______ ____
ROOT
ATOM      1  C   UNL     1       1.270   9.056  20.311  0.00  0.00    +0.000 C 
ENDROOT
BRANCH   1  10
ATOM      2  C   UNL     1       3.922   5.502  17.667  0.00  0.00    +0.000 A 
ATOM      3  C   UNL     1       4.232   4.198  17.568  0.00  0.00    +0.000 A 
ATOM      4  C   UNL     1       3.704   3.171  18.477  0.00  0.00    +0.000 A 
ATOM      5  O   UNL     1       4.018   1.999  18.342  0.00  0.00    +0.000 OA
ATOM      6  O   UNL     1       2.821   3.604  19.446  0.00  0.00    +0.000 OA
ATOM      7  C   UNL     1       2.493   4.967  19.586  0.00  0.00    +0.000 A 
ATOM      8  C   UNL     1       1.595   5.263  20.606  0.00  0.00    +0.000 A 
ATOM      9  C   UNL     1       1.221   6.585  20.823  0.00  0.00    +0.000 A 
ATOM     10  C   UNL     1       1.750   7.626  20.041  0.00  0.00    +0.000 A 
ATOM     11  C   UNL     1       2.650   7.293  18.995  0.00  0.00    +0.000 A 
ATOM     12  C   UNL     1       3.029   5.951  18.752  0.00  0.00    +0.000 A 
BRANCH   2  14
ATOM     13  C   UNL     1       5.759   6.753  16.797  0.00  0.00    +0.000 C 
ATOM     14  O   UNL     1       4.355   6.487  16.794  0.00  0.00    +0.000 OA
ENDBRANCH   2  14
ENDBRANCH   1  10
BRANCH   1  15
ATOM     15  N   UNL     1       1.492   9.956  19.160  0.00  0.00    +0.000 NA
ATOM     16  C   UNL     1       0.867   9.481  17.912  0.00  0.00    +0.000 C 
ATOM     17  C   UNL     1      -0.665   9.656  17.844  0.00  0.00    +0.000 C 
ATOM     18  N   UNL     1      -1.085  11.053  18.089  0.00  0.00    +0.000 N 
ATOM     19  C   UNL     1      -0.442  11.687  19.266  0.00  0.00    +0.000 C 
ATOM     20  C   UNL     1       1.070  11.354  19.381  0.00  0.00    +0.000 C 
BRANCH  18  21
ATOM     21  C   UNL     1      -2.467  11.327  17.986  0.00  0.00    +0.000 A 
ATOM     22  C   UNL     1      -3.213  11.093  16.817  0.00  0.00    +0.000 A 
ATOM     23  C   UNL     1      -4.586  11.361  16.745  0.00  0.00    +0.000 A 
ATOM     24  C   UNL     1      -5.244  11.894  17.845  0.00  0.00    +0.000 A 
ATOM     25 CL   UNL     1      -6.932  12.217  17.758  0.00  0.00    +0.000 Cl
ATOM     26  C   UNL     1      -4.537  12.167  19.009  0.00  0.00    +0.000 A 
ATOM     27  C   UNL     1      -3.164  11.883  19.077  0.00  0.00    +0.000 A 
ENDBRANCH  18  21
ENDBRANCH   1  15
TORSDOF 4
ENDMDL
MODEL 9
REMARK VINA RESULT:      -7.4      4.696      8.718
REMARK  Name = 
REMARK  5 active torsions:
REMARK  status: ('A' for Active; 'I' for Inactive)
REMARK    1  A    between atoms: C_1  and  O_2
REMARK    2  A    between atoms: O_2  and  C_3
REMARK    3  A    between atoms: C_11  and  C_12
REMARK    4  A    between atoms: C_12  and  N_13
REMARK    5  A    between atoms: N_16  and  C_17
REMARK                            x       y       z     vdW  Elec       q    Type
REMARK                         _______ _______ _______ _____ _____    ______ ____
ROOT
ATOM      1  C   UNL     1       1.678   8.452  20.480  0.00  0.00    +0.000 C 
ENDROOT
BRANCH   1  10
ATOM      2  C   UNL     1       3.889   4.856  17.507  0.00  0.00    +0.000 A 
ATOM      3  C   UNL     1       4.060   3.538  17.305  0.00  0.00    +0.000 A 
ATOM      4  C   UNL     1       3.448   2.505  18.152  0.00  0.00    +0.000 A 
ATOM      5  O   UNL     1       3.635   1.320  17.923  0.00  0.00    +0.000 OA
ATOM      6  O   UNL     1       2.636   2.951  19.176  0.00  0.00    +0.000 OA
ATOM      7  C   UNL     1       2.454   4.325  19.425  0.00  0.00    +0.000 A 
ATOM      8  C   UNL     1       1.614   4.634  20.489  0.00  0.00    +0.000 A 
ATOM      9  C   UNL     1       1.385   5.967  20.812  0.00  0.00    +0.000 A 
ATOM     10  C   UNL     1       2.002   7.005  20.093  0.00  0.00    +0.000 A 
ATOM     11  C   UNL     1       2.839   6.661  18.999  0.00  0.00    +0.000 A 
ATOM     12  C   UNL     1       3.072   5.310  18.649  0.00  0.00    +0.000 A 
BRANCH   2  14
ATOM     13  C   UNL     1       5.651   5.565  16.063  0.00  0.00    +0.000 C 
ATOM     14  O   UNL     1       4.402   5.854  16.696  0.00  0.00    +0.000 OA
ENDBRANCH   2  14
ENDBRANCH   1  10
BRANCH   1  15
ATOM     15  N   UNL     1       0.722   9.087  19.551  0.00  0.00    +0.000 NA
ATOM     16  C   UNL     1      -0.045  10.191  20.158  0.00  0.00    +0.000 C 
ATOM     17  C   UNL     1       0.746  11.502  20.353  0.00  0.00    +0.000 C 
ATOM     18  N   UNL     1       1.364  11.981  19.098  0.00  0.00    +0.000 N 
ATOM     19  C   UNL     1       2.083  10.934  18.332  0.00  0.00    +0.000 C 
ATOM     20  C   UNL     1       1.321   9.582  18.294  0.00  0.00    +0.000 C 
BRANCH  18  21
ATOM     21  C   UNL     1       2.059  13.210  19.161  0.00  0.00    +0.000 A 
ATOM     22  C   UNL     1       1.906  14.126  20.218  0.00  0.00    +0.000 A 
ATOM     23  C   UNL     1       2.616  15.332  20.264  0.00  0.00    +0.000 A 
ATOM     24  C   UNL     1       3.488  15.660  19.234  0.00  0.00    +0.000 A 
ATOM     25 CL   UNL     1       4.365  17.139  19.295  0.00  0.00    +0.000 Cl
ATOM     26  C   UNL     1       3.644  14.795  18.158  0.00  0.00    +0.000 A 
ATOM     27  C   UNL     1       2.938  13.583  18.126  0.00  0.00    +0.000 A 
ENDBRANCH  18  21
ENDBRANCH   1  15
TORSDOF 4
ENDMDL
