MODEL 1
REMARK VINA RESULT:     -10.0      0.000      0.000
REMARK  Name = 
REMARK  5 active torsions:
REMARK  status: ('A' for Active; 'I' for Inactive)
REMARK    1  A    between atoms: C_1  and  C_2
REMARK    2  A    between atoms: C_5  and  O_6
REMARK    3  A    between atoms: O_6  and  C_7
REMARK    4  A    between atoms: C_11  and  C_12
REMARK    5  A    between atoms: N_21  and  C_22
REMARK                            x       y       z     vdW  Elec       q    Type
REMARK                         _______ _______ _______ _____ _____    ______ ____
ROOT
ATOM      1  C   UNL     1       1.079   2.534  20.552  0.00  0.00    +0.000 C 
ATOM      2  C   UNL     1       2.091   3.592  20.259  0.00  0.00    +0.000 A 
ATOM      3  C   UNL     1       3.390   3.282  19.883  0.00  0.00    +0.000 A 
ATOM      4  F   UNL     1       3.797   2.003  19.848  0.00  0.00    +0.000 F 
ATOM      5  C   UNL     1       4.259   4.312  19.542  0.00  0.00    +0.000 A 
ATOM      6  N   UNL     1       3.891   5.615  19.475  0.00  0.00    +0.000 NA
ATOM      7  C   UNL     1       2.629   5.934  19.845  0.00  0.00    +0.000 A 
ATOM      8  N   UNL     1       2.198   7.227  19.655  0.00  0.00    +0.000 N 
ATOM      9  C   UNL     1       2.769   8.017  18.567  0.00  0.00    +0.000 C 
ATOM     10  C   UNL     1       1.613   8.819  17.930  0.00  0.00    +0.000 C 
ATOM     11  N   UNL     1       0.885   9.663  18.907  0.00  0.00    +0.000 N 
ATOM     12  C   UNL     1       0.539   8.984  20.199  0.00  0.00    +0.000 C 
ATOM     13  C   UNL     1       1.644   8.037  20.742  0.00  0.00    +0.000 C 
ATOM     14  C   UNL     1       1.729   4.941  20.270  0.00  0.00    +0.000 A 
ATOM     15  F   UNL     1       0.466   5.268  20.596  0.00  0.00    +0.000 F 
ENDROOT
BRANCH  11  16
ATOM     16  C   UNL     1       1.220  11.012  19.029  0.00  0.00    +0.000 A 
ATOM     17  C   UNL     1       2.251  11.544  18.207  0.00  0.00    +0.000 A 
ATOM     18  C   UNL     1       2.472  12.918  18.089  0.00  0.00    +0.000 A 
ATOM     19  C   UNL     1       1.618  13.735  18.784  0.00  0.00    +0.000 A 
ATOM     20  C   UNL     1       0.699  13.232  19.677  0.00  0.00    +0.000 A 
ATOM     21  C   UNL     1       0.518  11.884  19.868  0.00  0.00    +0.000 A 
ATOM     22  O   UNL     1      -0.111  14.205  20.184  0.00  0.00    +0.000 OA
ATOM     23  C   UNL     1       0.140  15.216  19.189  0.00  0.00    +0.000 C 
ATOM     24  O   UNL     1       1.454  15.077  18.603  0.00  0.00    +0.000 OA
ENDBRANCH  11  16
BRANCH   5  25
ATOM     25  O   UNL     1       5.549   3.938  19.183  0.00  0.00    +0.000 OA
BRANCH  25  26
ATOM     26  C   UNL     1       6.204   4.689  18.236  0.00  0.00    +0.000 A 
ATOM     27  C   UNL     1       6.885   5.822  18.697  0.00  0.00    +0.000 A 
ATOM     28  C   UNL     1       7.543   6.662  17.798  0.00  0.00    +0.000 A 
ATOM     29  C   UNL     1       7.535   6.371  16.434  0.00  0.00    +0.000 A 
ATOM     30  C   UNL     1       6.851   5.244  15.962  0.00  0.00    +0.000 A 
ATOM     31  C   UNL     1       6.164   4.421  16.864  0.00  0.00    +0.000 A 
BRANCH  30  32
ATOM     32  C   UNL     1       6.851   4.920  14.510  0.00  0.00    +0.000 C 
ATOM     33  N   UNL     1       5.992   4.113  13.972  0.00  0.00    +0.000 NA
ATOM     34  N   UNL     1       7.768   5.484  13.677  0.00  0.00    +0.000 N 
ATOM     35  H   UNL     1       5.378   3.701  14.683  0.00  0.00    +0.000 HD
ATOM     36  H   UNL     1       8.026   6.440  13.870  0.00  0.00    +0.000 HD
ATOM     37  H   UNL     1       7.508   5.334  12.704  0.00  0.00    +0.000 HD
ENDBRANCH  30  32
ENDBRANCH  25  26
ENDBRANCH   5  25
TORSDOF 4
ENDMDL
MODEL 2
REMARK VINA RESULT:      -9.9      0.819      1.362
REMARK  Name = 
REMARK  5 active torsions:
REMARK  status: ('A' for Active; 'I' for Inactive)
REMARK    1  A    between atoms: C_1  and  C_2
REMARK    2  A    between atoms: C_5  and  O_6
REMARK    3  A    between atoms: O_6  and  C_7
REMARK    4  A    between atoms: C_11  and  C_12
REMARK    5  A    between atoms: N_21  and  C_22
REMARK                            x       y       z     vdW  Elec       q    Type
REMARK                         _______ _______ _______ _____ _____    ______ ____
ROOT
ATOM      1  C   UNL     1       1.120   2.505  20.531  0.00  0.00    +0.000 C 
ATOM      2  C   UNL     1       2.111   3.591  20.266  0.00  0.00    +0.000 A 
ATOM      3  C   UNL     1       3.425   3.315  19.912  0.00  0.00    +0.000 A 
ATOM      4  F   UNL     1       3.864   2.047  19.875  0.00  0.00    +0.000 F 
ATOM      5  C   UNL     1       4.274   4.369  19.596  0.00  0.00    +0.000 A 
ATOM      6  N   UNL     1       3.876   5.663  19.533  0.00  0.00    +0.000 NA
ATOM      7  C   UNL     1       2.599   5.948  19.882  0.00  0.00    +0.000 A 
ATOM      8  N   UNL     1       2.141   7.232  19.694  0.00  0.00    +0.000 N 
ATOM      9  C   UNL     1       2.712   8.045  18.624  0.00  0.00    +0.000 C 
ATOM     10  C   UNL     1       1.549   8.824  17.972  0.00  0.00    +0.000 C 
ATOM     11  N   UNL     1       0.782   9.641  18.942  0.00  0.00    +0.000 N 
ATOM     12  C   UNL     1       0.428   8.943  20.221  0.00  0.00    +0.000 C 
ATOM     13  C   UNL     1       1.546   8.018  20.777  0.00  0.00    +0.000 C 
ATOM     14  C   UNL     1       1.716   4.929  20.281  0.00  0.00    +0.000 A 
ATOM     15  F   UNL     1       0.440   5.223  20.586  0.00  0.00    +0.000 F 
ENDROOT
BRANCH  11  16
ATOM     16  C   UNL     1       1.081  10.997  19.081  0.00  0.00    +0.000 A 
ATOM     17  C   UNL     1       0.576  11.703  20.206  0.00  0.00    +0.000 A 
ATOM     18  C   UNL     1       1.030  12.980  20.547  0.00  0.00    +0.000 A 
ATOM     19  C   UNL     1       2.019  13.507  19.757  0.00  0.00    +0.000 A 
ATOM     20  C   UNL     1       2.427  12.888  18.597  0.00  0.00    +0.000 A 
ATOM     21  C   UNL     1       1.936  11.669  18.200  0.00  0.00    +0.000 A 
ATOM     22  O   UNL     1       3.483  13.528  18.017  0.00  0.00    +0.000 OA
ATOM     23  C   UNL     1       3.906  14.295  19.160  0.00  0.00    +0.000 C 
ATOM     24  O   UNL     1       2.806  14.581  20.052  0.00  0.00    +0.000 OA
ENDBRANCH  11  16
BRANCH   5  25
ATOM     25  O   UNL     1       5.580   4.030  19.259  0.00  0.00    +0.000 OA
BRANCH  25  26
ATOM     26  C   UNL     1       6.205   4.755  18.273  0.00  0.00    +0.000 A 
ATOM     27  C   UNL     1       6.791   5.966  18.663  0.00  0.00    +0.000 A 
ATOM     28  C   UNL     1       7.413   6.783  17.718  0.00  0.00    +0.000 A 
ATOM     29  C   UNL     1       7.464   6.393  16.380  0.00  0.00    +0.000 A 
ATOM     30  C   UNL     1       6.875   5.187  15.979  0.00  0.00    +0.000 A 
ATOM     31  C   UNL     1       6.224   4.384  16.924  0.00  0.00    +0.000 A 
BRANCH  30  32
ATOM     32  C   UNL     1       6.939   4.758  14.556  0.00  0.00    +0.000 C 
ATOM     33  N   UNL     1       6.332   3.702  14.115  0.00  0.00    +0.000 NA
ATOM     34  N   UNL     1       7.644   5.485  13.646  0.00  0.00    +0.000 N 
ATOM     35  H   UNL     1       5.872   3.195  14.879  0.00  0.00    +0.000 HD
ATOM     36  H   UNL     1       7.626   6.488  13.758  0.00  0.00    +0.000 HD
ATOM     37  H   UNL     1       7.418   5.190  12.699  0.00  0.00    +0.000 HD
ENDBRANCH  30  32
ENDBRANCH  25  26
ENDBRANCH   5  25
TORSDOF 4
ENDMDL
MODEL 3
REMARK VINA RESULT:      -9.2      0.849      1.136
REMARK  Name = 
REMARK  5 active torsions:
REMARK  status: ('A' for Active; 'I' for Inactive)
REMARK    1  A    between atoms: C_1  and  C_2
REMARK    2  A    between atoms: C_5  and  O_6
REMARK    3  A    between atoms: O_6  and  C_7
REMARK    4  A    between atoms: C_11  and  C_12
REMARK    5  A    between atoms: N_21  and  C_22
REMARK                            x       y       z     vdW  Elec       q    Type
REMARK                         _______ _______ _______ _____ _____    ______ ____
ROOT
ATOM      1  C   UNL     1       1.175   2.518  20.510  0.00  0.00    +0.000 C 
ATOM      2  C   UNL     1       2.147   3.626  20.267  0.00  0.00    +0.000 A 
ATOM      3  C   UNL     1       3.471   3.380  19.930  0.00  0.00    +0.000 A 
ATOM      4  F   UNL     1       3.937   2.122  19.890  0.00  0.00    +0.000 F 
ATOM      5  C   UNL     1       4.302   4.454  19.635  0.00  0.00    +0.000 A 
ATOM      6  N   UNL     1       3.879   5.740  19.576  0.00  0.00    +0.000 NA
ATOM      7  C   UNL     1       2.591   5.996  19.908  0.00  0.00    +0.000 A 
ATOM      8  N   UNL     1       2.109   7.271  19.724  0.00  0.00    +0.000 N 
ATOM      9  C   UNL     1       2.679   8.104  18.668  0.00  0.00    +0.000 C 
ATOM     10  C   UNL     1       1.509   8.864  18.005  0.00  0.00    +0.000 C 
ATOM     11  N   UNL     1       0.711   9.658  18.970  0.00  0.00    +0.000 N 
ATOM     12  C   UNL     1       0.354   8.943  20.239  0.00  0.00    +0.000 C 
ATOM     13  C   UNL     1       1.483   8.037  20.804  0.00  0.00    +0.000 C 
ATOM     14  C   UNL     1       1.724   4.956  20.287  0.00  0.00    +0.000 A 
ATOM     15  F   UNL     1       0.438   5.221  20.575  0.00  0.00    +0.000 F 
ENDROOT
BRANCH  11  16
ATOM     16  C   UNL     1       0.981  11.018  19.124  0.00  0.00    +0.000 A 
ATOM     17  C   UNL     1       0.300  11.954  18.299  0.00  0.00    +0.000 A 
ATOM     18  C   UNL     1       0.325  13.327  18.557  0.00  0.00    +0.000 A 
ATOM     19  C   UNL     1       1.014  13.726  19.673  0.00  0.00    +0.000 A 
ATOM     20  C   UNL     1       1.777  12.846  20.407  0.00  0.00    +0.000 A 
ATOM     21  C   UNL     1       1.831  11.504  20.123  0.00  0.00    +0.000 A 
ATOM     22  O   UNL     1       2.298  13.428  21.525  0.00  0.00    +0.000 OA
ATOM     23  C   UNL     1       1.423  14.569  21.587  0.00  0.00    +0.000 C 
ATOM     24  O   UNL     1       0.940  14.946  20.278  0.00  0.00    +0.000 OA
ENDBRANCH  11  16
BRANCH   5  25
ATOM     25  O   UNL     1       5.620   4.144  19.314  0.00  0.00    +0.000 OA
BRANCH  25  26
ATOM     26  C   UNL     1       6.230   4.861  18.311  0.00  0.00    +0.000 A 
ATOM     27  C   UNL     1       6.801   6.086  18.676  0.00  0.00    +0.000 A 
ATOM     28  C   UNL     1       7.406   6.895  17.714  0.00  0.00    +0.000 A 
ATOM     29  C   UNL     1       7.455   6.481  16.382  0.00  0.00    +0.000 A 
ATOM     30  C   UNL     1       6.880   5.261  16.007  0.00  0.00    +0.000 A 
ATOM     31  C   UNL     1       6.245   4.466  16.970  0.00  0.00    +0.000 A 
BRANCH  30  32
ATOM     32  C   UNL     1       6.941   4.809  14.591  0.00  0.00    +0.000 C 
ATOM     33  N   UNL     1       7.625   5.433  13.684  0.00  0.00    +0.000 NA
ATOM     34  N   UNL     1       6.274   3.691  14.193  0.00  0.00    +0.000 N 
ATOM     35  H   UNL     1       8.049   6.286  14.065  0.00  0.00    +0.000 HD
ATOM     36  H   UNL     1       6.239   2.927  14.852  0.00  0.00    +0.000 HD
ATOM     37  H   UNL     1       6.583   3.399  13.268  0.00  0.00    +0.000 HD
ENDBRANCH  30  32
ENDBRANCH  25  26
ENDBRANCH   5  25
TORSDOF 4
ENDMDL
MODEL 4
REMARK VINA RESULT:      -9.2      1.654      2.364
REMARK  Name = 
REMARK  5 active torsions:
REMARK  status: ('A' for Active; 'I' for Inactive)
REMARK    1  A    between atoms: C_1  and  C_2
REMARK    2  A    between atoms: C_5  and  O_6
REMARK    3  A    between atoms: O_6  and  C_7
REMARK    4  A    between atoms: C_11  and  C_12
REMARK    5  A    between atoms: N_21  and  C_22
REMARK                            x       y       z     vdW  Elec       q    Type
REMARK                         _______ _______ _______ _____ _____    ______ ____
ROOT
ATOM      1  C   UNL     1       1.133   2.517  20.717  0.00  0.00    +0.000 C 
ATOM      2  C   UNL     1       2.111   3.591  20.369  0.00  0.00    +0.000 A 
ATOM      3  C   UNL     1       3.386   3.300  19.905  0.00  0.00    +0.000 A 
ATOM      4  F   UNL     1       3.805   2.027  19.830  0.00  0.00    +0.000 F 
ATOM      5  C   UNL     1       4.217   4.344  19.519  0.00  0.00    +0.000 A 
ATOM      6  N   UNL     1       3.831   5.643  19.490  0.00  0.00    +0.000 NA
ATOM      7  C   UNL     1       2.592   5.943  19.946  0.00  0.00    +0.000 A 
ATOM      8  N   UNL     1       2.135   7.232  19.799  0.00  0.00    +0.000 N 
ATOM      9  C   UNL     1       2.623   8.040  18.684  0.00  0.00    +0.000 C 
ATOM     10  C   UNL     1       1.418   8.834  18.134  0.00  0.00    +0.000 C 
ATOM     11  N   UNL     1       0.746   9.659  19.166  0.00  0.00    +0.000 N 
ATOM     12  C   UNL     1       0.494   8.963  20.471  0.00  0.00    +0.000 C 
ATOM     13  C   UNL     1       1.644   8.024  20.929  0.00  0.00    +0.000 C 
ATOM     14  C   UNL     1       1.734   4.934  20.419  0.00  0.00    +0.000 A 
ATOM     15  F   UNL     1       0.492   5.242  20.831  0.00  0.00    +0.000 F 
ENDROOT
BRANCH  11  16
ATOM     16  C   UNL     1       1.072  11.011  19.280  0.00  0.00    +0.000 A 
ATOM     17  C   UNL     1       0.682  11.718  20.450  0.00  0.00    +0.000 A 
ATOM     18  C   UNL     1       1.180  12.989  20.750  0.00  0.00    +0.000 A 
ATOM     19  C   UNL     1       2.097  13.507  19.872  0.00  0.00    +0.000 A 
ATOM     20  C   UNL     1       2.388  12.888  18.678  0.00  0.00    +0.000 A 
ATOM     21  C   UNL     1       1.848  11.676  18.326  0.00  0.00    +0.000 A 
ATOM     22  O   UNL     1       3.392  13.519  18.004  0.00  0.00    +0.000 OA
ATOM     23  C   UNL     1       3.929  14.277  19.104  0.00  0.00    +0.000 C 
ATOM     24  O   UNL     1       2.920  14.572  20.095  0.00  0.00    +0.000 OA
ENDBRANCH  11  16
BRANCH   5  25
ATOM     25  O   UNL     1       5.486   3.990  19.072  0.00  0.00    +0.000 OA
BRANCH  25  26
ATOM     26  C   UNL     1       6.128   4.838  18.200  0.00  0.00    +0.000 A 
ATOM     27  C   UNL     1       6.189   4.431  16.862  0.00  0.00    +0.000 A 
ATOM     28  C   UNL     1       6.855   5.212  15.918  0.00  0.00    +0.000 A 
ATOM     29  C   UNL     1       7.455   6.412  16.300  0.00  0.00    +0.000 A 
ATOM     30  C   UNL     1       7.405   6.825  17.637  0.00  0.00    +0.000 A 
ATOM     31  C   UNL     1       6.764   6.022  18.589  0.00  0.00    +0.000 A 
BRANCH  30  32
ATOM     32  C   UNL     1       8.031   8.110  18.049  0.00  0.00    +0.000 C 
ATOM     33  N   UNL     1       8.854   8.202  19.046  0.00  0.00    +0.000 NA
ATOM     34  N   UNL     1       7.763   9.258  17.369  0.00  0.00    +0.000 N 
ATOM     35  H   UNL     1       8.954   7.300  19.525  0.00  0.00    +0.000 HD
ATOM     36  H   UNL     1       7.649   9.175  16.369  0.00  0.00    +0.000 HD
ATOM     37  H   UNL     1       8.419   9.991  17.630  0.00  0.00    +0.000 HD
ENDBRANCH  30  32
ENDBRANCH  25  26
ENDBRANCH   5  25
TORSDOF 4
ENDMDL
MODEL 5
REMARK VINA RESULT:      -9.1      1.460      1.958
REMARK  Name = 
REMARK  5 active torsions:
REMARK  status: ('A' for Active; 'I' for Inactive)
REMARK    1  A    between atoms: C_1  and  C_2
REMARK    2  A    between atoms: C_5  and  O_6
REMARK    3  A    between atoms: O_6  and  C_7
REMARK    4  A    between atoms: C_11  and  C_12
REMARK    5  A    between atoms: N_21  and  C_22
REMARK                            x       y       z     vdW  Elec       q    Type
REMARK                         _______ _______ _______ _____ _____    ______ ____
ROOT
ATOM      1  C   UNL     1       1.009   2.422  20.381  0.00  0.00    +0.000 C 
ATOM      2  C   UNL     1       2.019   3.489  20.114  0.00  0.00    +0.000 A 
ATOM      3  C   UNL     1       3.298   3.194  19.660  0.00  0.00    +0.000 A 
ATOM      4  F   UNL     1       3.688   1.917  19.523  0.00  0.00    +0.000 F 
ATOM      5  C   UNL     1       4.161   4.237  19.350  0.00  0.00    +0.000 A 
ATOM      6  N   UNL     1       3.806   5.544  19.386  0.00  0.00    +0.000 NA
ATOM      7  C   UNL     1       2.565   5.849  19.833  0.00  0.00    +0.000 A 
ATOM      8  N   UNL     1       2.141   7.155  19.748  0.00  0.00    +0.000 N 
ATOM      9  C   UNL     1       2.672   8.011  18.690  0.00  0.00    +0.000 C 
ATOM     10  C   UNL     1       1.499   8.863  18.161  0.00  0.00    +0.000 C 
ATOM     11  N   UNL     1       0.823   9.646  19.223  0.00  0.00    +0.000 N 
ATOM     12  C   UNL     1       0.527   8.886  20.481  0.00  0.00    +0.000 C 
ATOM     13  C   UNL     1       1.644   7.895  20.910  0.00  0.00    +0.000 C 
ATOM     14  C   UNL     1       1.673   4.836  20.231  0.00  0.00    +0.000 A 
ATOM     15  F   UNL     1       0.430   5.152  20.633  0.00  0.00    +0.000 F 
ENDROOT
BRANCH  11  16
ATOM     16  C   UNL     1       1.179  10.981  19.419  0.00  0.00    +0.000 A 
ATOM     17  C   UNL     1       1.855  11.675  18.379  0.00  0.00    +0.000 A 
ATOM     18  C   UNL     1       2.020  13.062  18.397  0.00  0.00    +0.000 A 
ATOM     19  C   UNL     1       1.463  13.729  19.457  0.00  0.00    +0.000 A 
ATOM     20  C   UNL     1       0.915  13.060  20.528  0.00  0.00    +0.000 A 
ATOM     21  C   UNL     1       0.815  11.691  20.568  0.00  0.00    +0.000 A 
ATOM     22  O   UNL     1       0.334  13.910  21.422  0.00  0.00    +0.000 OA
ATOM     23  C   UNL     1       0.220  15.060  20.563  0.00  0.00    +0.000 C 
ATOM     24  O   UNL     1       1.244  15.072  19.545  0.00  0.00    +0.000 OA
ENDBRANCH  11  16
BRANCH   5  25
ATOM     25  O   UNL     1       5.431   3.877  18.911  0.00  0.00    +0.000 OA
BRANCH  25  26
ATOM     26  C   UNL     1       6.086   4.728  18.052  0.00  0.00    +0.000 A 
ATOM     27  C   UNL     1       6.151   4.334  16.710  0.00  0.00    +0.000 A 
ATOM     28  C   UNL     1       6.831   5.119  15.778  0.00  0.00    +0.000 A 
ATOM     29  C   UNL     1       7.441   6.309  16.177  0.00  0.00    +0.000 A 
ATOM     30  C   UNL     1       7.388   6.707  17.519  0.00  0.00    +0.000 A 
ATOM     31  C   UNL     1       6.732   5.900  18.457  0.00  0.00    +0.000 A 
BRANCH  30  32
ATOM     32  C   UNL     1       8.024   7.981  17.948  0.00  0.00    +0.000 C 
ATOM     33  N   UNL     1       7.863   9.096  17.306  0.00  0.00    +0.000 NA
ATOM     34  N   UNL     1       8.806   8.023  19.061  0.00  0.00    +0.000 N 
ATOM     35  H   UNL     1       7.304   8.955  16.458  0.00  0.00    +0.000 HD
ATOM     36  H   UNL     1       8.520   7.442  19.836  0.00  0.00    +0.000 HD
ATOM     37  H   UNL     1       8.986   8.986  19.337  0.00  0.00    +0.000 HD
ENDBRANCH  30  32
ENDBRANCH  25  26
ENDBRANCH   5  25
TORSDOF 4
ENDMDL
MODEL 6
REMARK VINA RESULT:      -9.0      2.360      3.178
REMARK  Name = 
REMARK  5 active torsions:
REMARK  status: ('A' for Active; 'I' for Inactive)
REMARK    1  A    between atoms: C_1  and  C_2
REMARK    2  A    between atoms: C_5  and  O_6
REMARK    3  A    between atoms: O_6  and  C_7
REMARK    4  A    between atoms: C_11  and  C_12
REMARK    5  A    between atoms: N_21  and  C_22
REMARK                            x       y       z     vdW  Elec       q    Type
REMARK                         _______ _______ _______ _____ _____    ______ ____
ROOT
ATOM      1  C   UNL     1       1.140   3.665  20.405  0.00  0.00    +0.000 C 
ATOM      2  C   UNL     1       1.702   4.912  19.804  0.00  0.00    +0.000 A 
ATOM      3  C   UNL     1       2.458   4.890  18.640  0.00  0.00    +0.000 A 
ATOM      4  F   UNL     1       2.772   3.722  18.060  0.00  0.00    +0.000 F 
ATOM      5  C   UNL     1       2.879   6.093  18.087  0.00  0.00    +0.000 A 
ATOM      6  N   UNL     1       2.529   7.309  18.573  0.00  0.00    +0.000 NA
ATOM      7  C   UNL     1       1.798   7.346  19.712  0.00  0.00    +0.000 A 
ATOM      8  N   UNL     1       1.320   8.562  20.144  0.00  0.00    +0.000 N 
ATOM      9  C   UNL     1       1.037   9.607  19.163  0.00  0.00    +0.000 C 
ATOM     10  C   UNL     1      -0.272  10.299  19.598  0.00  0.00    +0.000 C 
ATOM     11  N   UNL     1      -0.215  10.834  20.979  0.00  0.00    +0.000 N 
ATOM     12  C   UNL     1       0.369   9.901  21.998  0.00  0.00    +0.000 C 
ATOM     13  C   UNL     1       1.583   9.075  21.490  0.00  0.00    +0.000 C 
ATOM     14  C   UNL     1       1.405   6.159  20.357  0.00  0.00    +0.000 A 
ATOM     15  F   UNL     1       0.645   6.212  21.464  0.00  0.00    +0.000 F 
ENDROOT
BRANCH  11  16
ATOM     16  C   UNL     1       0.092  12.181  21.179  0.00  0.00    +0.000 A 
ATOM     17  C   UNL     1      -0.698  12.942  22.083  0.00  0.00    +0.000 A 
ATOM     18  C   UNL     1      -0.308  14.210  22.523  0.00  0.00    +0.000 A 
ATOM     19  C   UNL     1       0.898  14.672  22.062  0.00  0.00    +0.000 A 
ATOM     20  C   UNL     1       1.610  14.000  21.094  0.00  0.00    +0.000 A 
ATOM     21  C   UNL     1       1.205  12.790  20.589  0.00  0.00    +0.000 A 
ATOM     22  O   UNL     1       2.821  14.579  20.853  0.00  0.00    +0.000 OA
ATOM     23  C   UNL     1       2.913  15.365  22.056  0.00  0.00    +0.000 C 
ATOM     24  O   UNL     1       1.608  15.722  22.564  0.00  0.00    +0.000 OA
ENDBRANCH  11  16
BRANCH   5  25
ATOM     25  O   UNL     1       3.641   6.005  16.927  0.00  0.00    +0.000 OA
BRANCH  25  26
ATOM     26  C   UNL     1       4.949   5.598  17.038  0.00  0.00    +0.000 A 
ATOM     27  C   UNL     1       5.381   4.627  16.126  0.00  0.00    +0.000 A 
ATOM     28  C   UNL     1       6.683   4.128  16.193  0.00  0.00    +0.000 A 
ATOM     29  C   UNL     1       7.566   4.604  17.163  0.00  0.00    +0.000 A 
ATOM     30  C   UNL     1       7.141   5.570  18.083  0.00  0.00    +0.000 A 
ATOM     31  C   UNL     1       5.824   6.045  18.034  0.00  0.00    +0.000 A 
BRANCH  30  32
ATOM     32  C   UNL     1       8.082   6.091  19.110  0.00  0.00    +0.000 C 
ATOM     33  N   UNL     1       8.555   7.297  19.079  0.00  0.00    +0.000 NA
ATOM     34  N   UNL     1       8.478   5.305  20.148  0.00  0.00    +0.000 N 
ATOM     35  H   UNL     1       8.243   7.794  18.238  0.00  0.00    +0.000 HD
ATOM     36  H   UNL     1       7.786   4.676  20.527  0.00  0.00    +0.000 HD
ATOM     37  H   UNL     1       8.939   5.861  20.864  0.00  0.00    +0.000 HD
ENDBRANCH  30  32
ENDBRANCH  25  26
ENDBRANCH   5  25
TORSDOF 4
ENDMDL
MODEL 7
REMARK VINA RESULT:      -8.9      3.565      9.490
REMARK  Name = 
REMARK  5 active torsions:
REMARK  status: ('A' for Active; 'I' for Inactive)
REMARK    1  A    between atoms: C_1  and  C_2
REMARK    2  A    between atoms: C_5  and  O_6
REMARK    3  A    between atoms: O_6  and  C_7
REMARK    4  A    between atoms: C_11  and  C_12
REMARK    5  A    between atoms: N_21  and  C_22
REMARK                            x       y       z     vdW  Elec       q    Type
REMARK                         _______ _______ _______ _____ _____    ______ ____
ROOT
ATOM      1  C   UNL     1       0.042   9.261  22.644  0.00  0.00    +0.000 C 
ATOM      2  C   UNL     1       0.305   9.216  21.174  0.00  0.00    +0.000 A 
ATOM      3  C   UNL     1      -0.215  10.166  20.306  0.00  0.00    +0.000 A 
ATOM      4  F   UNL     1      -1.043  11.118  20.763  0.00  0.00    +0.000 F 
ATOM      5  C   UNL     1       0.137  10.117  18.963  0.00  0.00    +0.000 A 
ATOM      6  N   UNL     1       1.031   9.236  18.451  0.00  0.00    +0.000 NA
ATOM      7  C   UNL     1       1.541   8.299  19.284  0.00  0.00    +0.000 A 
ATOM      8  N   UNL     1       2.547   7.485  18.816  0.00  0.00    +0.000 N 
ATOM      9  C   UNL     1       3.450   7.988  17.784  0.00  0.00    +0.000 C 
ATOM     10  C   UNL     1       4.871   7.504  18.144  0.00  0.00    +0.000 C 
ATOM     11  N   UNL     1       4.962   6.031  18.294  0.00  0.00    +0.000 N 
ATOM     12  C   UNL     1       3.864   5.406  19.101  0.00  0.00    +0.000 C 
ATOM     13  C   UNL     1       2.459   6.024  18.860  0.00  0.00    +0.000 C 
ATOM     14  C   UNL     1       1.164   8.255  20.638  0.00  0.00    +0.000 A 
ATOM     15  F   UNL     1       1.710   7.344  21.462  0.00  0.00    +0.000 F 
ENDROOT
BRANCH  11  16
ATOM     16  C   UNL     1       5.407   5.261  17.218  0.00  0.00    +0.000 A 
ATOM     17  C   UNL     1       4.543   4.271  16.675  0.00  0.00    +0.000 A 
ATOM     18  C   UNL     1       4.810   3.640  15.458  0.00  0.00    +0.000 A 
ATOM     19  C   UNL     1       5.937   4.050  14.792  0.00  0.00    +0.000 A 
ATOM     20  C   UNL     1       6.842   4.915  15.364  0.00  0.00    +0.000 A 
ATOM     21  C   UNL     1       6.639   5.487  16.595  0.00  0.00    +0.000 A 
ATOM     22  O   UNL     1       7.835   5.265  14.497  0.00  0.00    +0.000 OA
ATOM     23  C   UNL     1       7.183   4.875  13.274  0.00  0.00    +0.000 C 
ATOM     24  O   UNL     1       6.243   3.799  13.487  0.00  0.00    +0.000 OA
ENDBRANCH  11  16
BRANCH   5  25
ATOM     25  O   UNL     1      -0.423  11.089  18.142  0.00  0.00    +0.000 OA
BRANCH  25  26
ATOM     26  C   UNL     1      -1.675  10.858  17.622  0.00  0.00    +0.000 A 
ATOM     27  C   UNL     1      -1.756   9.931  16.576  0.00  0.00    +0.000 A 
ATOM     28  C   UNL     1      -2.981   9.665  15.964  0.00  0.00    +0.000 A 
ATOM     29  C   UNL     1      -4.136  10.314  16.399  0.00  0.00    +0.000 A 
ATOM     30  C   UNL     1      -4.064  11.248  17.440  0.00  0.00    +0.000 A 
ATOM     31  C   UNL     1      -2.827  11.537  18.030  0.00  0.00    +0.000 A 
BRANCH  30  32
ATOM     32  C   UNL     1      -5.296  11.933  17.918  0.00  0.00    +0.000 C 
ATOM     33  N   UNL     1      -6.485  11.463  17.710  0.00  0.00    +0.000 NA
ATOM     34  N   UNL     1      -5.211  13.098  18.617  0.00  0.00    +0.000 N 
ATOM     35  H   UNL     1      -6.450  10.614  17.135  0.00  0.00    +0.000 HD
ATOM     36  H   UNL     1      -4.434  13.186  19.256  0.00  0.00    +0.000 HD
ATOM     37  H   UNL     1      -6.104  13.322  19.050  0.00  0.00    +0.000 HD
ENDBRANCH  30  32
ENDBRANCH  25  26
ENDBRANCH   5  25
TORSDOF 4
ENDMDL
MODEL 8
REMARK VINA RESULT:      -8.9      3.789      5.819
REMARK  Name = 
REMARK  5 active torsions:
REMARK  status: ('A' for Active; 'I' for Inactive)
REMARK    1  A    between atoms: C_1  and  C_2
REMARK    2  A    between atoms: C_5  and  O_6
REMARK    3  A    between atoms: O_6  and  C_7
REMARK    4  A    between atoms: C_11  and  C_12
REMARK    5  A    between atoms: N_21  and  C_22
REMARK                            x       y       z     vdW  Elec       q    Type
REMARK                         _______ _______ _______ _____ _____    ______ ____
ROOT
ATOM      1  C   UNL     1       3.537   8.317  17.134  0.00  0.00    +0.000 C 
ATOM      2  C   UNL     1       2.624   8.092  18.295  0.00  0.00    +0.000 A 
ATOM      3  C   UNL     1       2.769   7.004  19.143  0.00  0.00    +0.000 A 
ATOM      4  F   UNL     1       3.700   6.070  18.891  0.00  0.00    +0.000 F 
ATOM      5  C   UNL     1       1.941   6.898  20.253  0.00  0.00    +0.000 A 
ATOM      6  N   UNL     1       1.039   7.844  20.612  0.00  0.00    +0.000 NA
ATOM      7  C   UNL     1       0.881   8.909  19.791  0.00  0.00    +0.000 A 
ATOM      8  N   UNL     1       0.071   9.941  20.207  0.00  0.00    +0.000 N 
ATOM      9  C   UNL     1      -0.073  10.203  21.636  0.00  0.00    +0.000 C 
ATOM     10  C   UNL     1      -0.069  11.736  21.821  0.00  0.00    +0.000 C 
ATOM     11  N   UNL     1      -1.112  12.421  21.021  0.00  0.00    +0.000 N 
ATOM     12  C   UNL     1      -1.224  11.963  19.598  0.00  0.00    +0.000 C 
ATOM     13  C   UNL     1      -1.049  10.431  19.401  0.00  0.00    +0.000 C 
ATOM     14  C   UNL     1       1.641   9.031  18.614  0.00  0.00    +0.000 A 
ATOM     15  F   UNL     1       1.502  10.114  17.830  0.00  0.00    +0.000 F 
ENDROOT
BRANCH  11  16
ATOM     16  C   UNL     1      -2.326  12.755  21.623  0.00  0.00    +0.000 A 
ATOM     17  C   UNL     1      -3.492  12.855  20.816  0.00  0.00    +0.000 A 
ATOM     18  C   UNL     1      -4.773  12.936  21.368  0.00  0.00    +0.000 A 
ATOM     19  C   UNL     1      -4.852  12.879  22.736  0.00  0.00    +0.000 A 
ATOM     20  C   UNL     1      -3.727  12.906  23.529  0.00  0.00    +0.000 A 
ATOM     21  C   UNL     1      -2.458  12.908  23.007  0.00  0.00    +0.000 A 
ATOM     22  O   UNL     1      -4.027  12.743  24.850  0.00  0.00    +0.000 OA
ATOM     23  C   UNL     1      -5.348  12.194  24.692  0.00  0.00    +0.000 C 
ATOM     24  O   UNL     1      -5.976  12.651  23.473  0.00  0.00    +0.000 OA
ENDBRANCH  11  16
BRANCH   5  25
ATOM     25  O   UNL     1       2.129   5.780  21.060  0.00  0.00    +0.000 OA
BRANCH  25  26
ATOM     26  C   UNL     1       2.053   4.538  20.475  0.00  0.00    +0.000 A 
ATOM     27  C   UNL     1       0.776   4.094  20.112  0.00  0.00    +0.000 A 
ATOM     28  C   UNL     1       0.604   2.829  19.548  0.00  0.00    +0.000 A 
ATOM     29  C   UNL     1       1.708   2.003  19.333  0.00  0.00    +0.000 A 
ATOM     30  C   UNL     1       2.988   2.436  19.699  0.00  0.00    +0.000 A 
ATOM     31  C   UNL     1       3.153   3.693  20.294  0.00  0.00    +0.000 A 
BRANCH  30  32
ATOM     32  C   UNL     1       4.171   1.565  19.458  0.00  0.00    +0.000 C 
ATOM     33  N   UNL     1       5.219   1.581  20.219  0.00  0.00    +0.000 NA
ATOM     34  N   UNL     1       4.186   0.694  18.412  0.00  0.00    +0.000 N 
ATOM     35  H   UNL     1       5.136   2.301  20.946  0.00  0.00    +0.000 HD
ATOM     36  H   UNL     1       3.311   0.246  18.185  0.00  0.00    +0.000 HD
ATOM     37  H   UNL     1       4.954   0.033  18.508  0.00  0.00    +0.000 HD
ENDBRANCH  30  32
ENDBRANCH  25  26
ENDBRANCH   5  25
TORSDOF 4
ENDMDL
MODEL 9
REMARK VINA RESULT:      -8.8      2.096      2.665
REMARK  Name = 
REMARK  5 active torsions:
REMARK  status: ('A' for Active; 'I' for Inactive)
REMARK    1  A    between atoms: C_1  and  C_2
REMARK    2  A    between atoms: C_5  and  O_6
REMARK    3  A    between atoms: O_6  and  C_7
REMARK    4  A    between atoms: C_11  and  C_12
REMARK    5  A    between atoms: N_21  and  C_22
REMARK                            x       y       z     vdW  Elec       q    Type
REMARK                         _______ _______ _______ _____ _____    ______ ____
ROOT
ATOM      1  C   UNL     1       1.277   3.993  20.882  0.00  0.00    +0.000 C 
ATOM      2  C   UNL     1       1.824   5.074  20.008  0.00  0.00    +0.000 A 
ATOM      3  C   UNL     1       2.526   4.793  18.844  0.00  0.00    +0.000 A 
ATOM      4  F   UNL     1       2.801   3.523  18.511  0.00  0.00    +0.000 F 
ATOM      5  C   UNL     1       2.935   5.844  18.033  0.00  0.00    +0.000 A 
ATOM      6  N   UNL     1       2.620   7.142  18.265  0.00  0.00    +0.000 NA
ATOM      7  C   UNL     1       1.941   7.432  19.400  0.00  0.00    +0.000 A 
ATOM      8  N   UNL     1       1.497   8.721  19.585  0.00  0.00    +0.000 N 
ATOM      9  C   UNL     1       1.180   9.541  18.418  0.00  0.00    +0.000 C 
ATOM     10  C   UNL     1      -0.101  10.335  18.753  0.00  0.00    +0.000 C 
ATOM     11  N   UNL     1       0.025  11.148  19.986  0.00  0.00    +0.000 N 
ATOM     12  C   UNL     1       0.644  10.439  21.154  0.00  0.00    +0.000 C 
ATOM     13  C   UNL     1       1.825   9.500  20.781  0.00  0.00    +0.000 C 
ATOM     14  C   UNL     1       1.566   6.416  20.297  0.00  0.00    +0.000 A 
ATOM     15  F   UNL     1       0.857   6.715  21.399  0.00  0.00    +0.000 F 
ENDROOT
BRANCH  11  16
ATOM     16  C   UNL     1       0.355  12.500  19.884  0.00  0.00    +0.000 A 
ATOM     17  C   UNL     1       1.658  12.861  19.445  0.00  0.00    +0.000 A 
ATOM     18  C   UNL     1       1.982  14.170  19.080  0.00  0.00    +0.000 A 
ATOM     19  C   UNL     1       0.965  15.088  19.134  0.00  0.00    +0.000 A 
ATOM     20  C   UNL     1      -0.263  14.779  19.673  0.00  0.00    +0.000 A 
ATOM     21  C   UNL     1      -0.578  13.517  20.112  0.00  0.00    +0.000 A 
ATOM     22  O   UNL     1      -1.154  15.803  19.540  0.00  0.00    +0.000 OA
ATOM     23  C   UNL     1      -0.467  16.538  18.510  0.00  0.00    +0.000 C 
ATOM     24  O   UNL     1       0.962  16.328  18.565  0.00  0.00    +0.000 OA
ENDBRANCH  11  16
BRANCH   5  25
ATOM     25  O   UNL     1       3.642   5.499  16.886  0.00  0.00    +0.000 OA
BRANCH  25  26
ATOM     26  C   UNL     1       4.991   5.261  17.002  0.00  0.00    +0.000 A 
ATOM     27  C   UNL     1       5.555   4.387  16.064  0.00  0.00    +0.000 A 
ATOM     28  C   UNL     1       6.910   4.060  16.132  0.00  0.00    +0.000 A 
ATOM     29  C   UNL     1       7.713   4.610  17.131  0.00  0.00    +0.000 A 
ATOM     30  C   UNL     1       7.157   5.478  18.078  0.00  0.00    +0.000 A 
ATOM     31  C   UNL     1       5.790   5.780  18.026  0.00  0.00    +0.000 A 
BRANCH  30  32
ATOM     32  C   UNL     1       8.012   6.079  19.137  0.00  0.00    +0.000 C 
ATOM     33  N   UNL     1       8.518   7.268  19.038  0.00  0.00    +0.000 NA
ATOM     34  N   UNL     1       8.289   5.388  20.276  0.00  0.00    +0.000 N 
ATOM     35  H   UNL     1       8.299   7.688  18.128  0.00  0.00    +0.000 HD
ATOM     36  H   UNL     1       7.548   4.811  20.646  0.00  0.00    +0.000 HD
ATOM     37  H   UNL     1       8.696   6.003  20.978  0.00  0.00    +0.000 HD
ENDBRANCH  30  32
ENDBRANCH  25  26
ENDBRANCH   5  25
TORSDOF 4
ENDMDL
