MODEL 1
REMARK VINA RESULT:      -7.2      0.000      0.000
REMARK  Name = 
REMARK  9 active torsions:
REMARK  status: ('A' for Active; 'I' for Inactive)
REMARK    1  A    between atoms: C_1  and  C_2
REMARK    2  A    between atoms: C_2  and  C_3
REMARK    3  A    between atoms: C_2  and  C_4
REMARK    4  A    between atoms: C_7  and  O_8
REMARK    5  A    between atoms: O_8  and  C_9
REMARK    6  A    between atoms: C_9  and  C_10
REMARK    7  A    between atoms: C_10  and  C_11
REMARK    8  A    between atoms: C_11  and  C_12
REMARK    9  A    between atoms: C_12  and  N_13
REMARK                            x       y       z     vdW  Elec       q    Type
REMARK                         _______ _______ _______ _____ _____    ______ ____
ROOT
ATOM      1  O   UNL     1       7.538   5.727  15.814  0.00  0.00    +0.000 OA
ENDROOT
BRANCH   1   5
ATOM      2  C   UNL     1       5.895   3.750  12.520  0.00  0.00    +0.000 A 
ATOM      3  C   UNL     1       7.147   4.381  12.464  0.00  0.00    +0.000 A 
ATOM      4  C   UNL     1       7.661   5.039  13.583  0.00  0.00    +0.000 A 
ATOM      5  C   UNL     1       6.930   5.093  14.769  0.00  0.00    +0.000 A 
ATOM      6  C   UNL     1       5.688   4.466  14.836  0.00  0.00    +0.000 A 
ATOM      7  C   UNL     1       5.177   3.798  13.721  0.00  0.00    +0.000 A 
BRANCH   2   9
ATOM      8  C   UNL     1       5.881   1.511  11.437  0.00  0.00    +0.000 C 
ATOM      9  C   UNL     1       5.398   2.959  11.324  0.00  0.00    +0.000 C 
ATOM     10  C   UNL     1       3.876   3.005  11.140  0.00  0.00    +0.000 C 
ENDBRANCH   2   9
ENDBRANCH   1   5
BRANCH   1  11
ATOM     11  C   UNL     1       6.686   6.072  16.910  0.00  0.00    +0.000 C 
BRANCH  11  12
ATOM     12  C   UNL     1       7.089   5.249  18.125  0.00  0.00    +0.000 C 
BRANCH  12  13
ATOM     13  C   UNL     1       5.965   5.137  19.161  0.00  0.00    +0.000 C 
BRANCH  13  14
ATOM     14  C   UNL     1       5.061   3.924  18.900  0.00  0.00    +0.000 C 
BRANCH  14  15
ATOM     15  N   UNL     1       3.842   3.907  19.724  0.00  0.00    +0.000 NA
ATOM     16  C   UNL     1       3.141   5.201  19.709  0.00  0.00    +0.000 C 
ATOM     17  C   UNL     1       1.924   5.180  20.635  0.00  0.00    +0.000 C 
ATOM     18  C   UNL     1       0.974   4.049  20.271  0.00  0.00    +0.000 C 
ATOM     19  C   UNL     1       1.725   2.724  20.220  0.00  0.00    +0.000 C 
ATOM     20  C   UNL     1       2.952   2.814  19.311  0.00  0.00    +0.000 C 
ENDBRANCH  14  15
ENDBRANCH  13  14
ENDBRANCH  12  13
ENDBRANCH  11  12
ENDBRANCH   1  11
TORSDOF 7
ENDMDL
MODEL 2
REMARK VINA RESULT:      -7.1      1.167      1.757
REMARK  Name = 
REMARK  9 active torsions:
REMARK  status: ('A' for Active; 'I' for Inactive)
REMARK    1  A    between atoms: C_1  and  C_2
REMARK    2  A    between atoms: C_2  and  C_3
REMARK    3  A    between atoms: C_2  and  C_4
REMARK    4  A    between atoms: C_7  and  O_8
REMARK    5  A    between atoms: O_8  and  C_9
REMARK    6  A    between atoms: C_9  and  C_10
REMARK    7  A    between atoms: C_10  and  C_11
REMARK    8  A    between atoms: C_11  and  C_12
REMARK    9  A    between atoms: C_12  and  N_13
REMARK                            x       y       z     vdW  Elec       q    Type
REMARK                         _______ _______ _______ _____ _____    ______ ____
ROOT
ATOM      1  O   UNL     1       7.469   5.849  15.596  0.00  0.00    +0.000 OA
ENDROOT
BRANCH   1   5
ATOM      2  C   UNL     1       6.045   3.607  12.370  0.00  0.00    +0.000 A 
ATOM      3  C   UNL     1       5.354   3.684  13.589  0.00  0.00    +0.000 A 
ATOM      4  C   UNL     1       5.864   4.438  14.648  0.00  0.00    +0.000 A 
ATOM      5  C   UNL     1       7.078   5.111  14.516  0.00  0.00    +0.000 A 
ATOM      6  C   UNL     1       7.770   5.044  13.309  0.00  0.00    +0.000 A 
ATOM      7  C   UNL     1       7.255   4.300  12.245  0.00  0.00    +0.000 A 
BRANCH   2   9
ATOM      8  C   UNL     1       5.867   1.398  11.241  0.00  0.00    +0.000 C 
ATOM      9  C   UNL     1       5.426   2.863  11.201  0.00  0.00    +0.000 C 
ATOM     10  C   UNL     1       3.896   2.962  11.145  0.00  0.00    +0.000 C 
ENDBRANCH   2   9
ENDBRANCH   1   5
BRANCH   1  11
ATOM     11  C   UNL     1       7.403   5.181  16.859  0.00  0.00    +0.000 C 
BRANCH  11  12
ATOM     12  C   UNL     1       6.462   5.952  17.774  0.00  0.00    +0.000 C 
BRANCH  12  13
ATOM     13  C   UNL     1       6.088   5.164  19.033  0.00  0.00    +0.000 C 
BRANCH  13  14
ATOM     14  C   UNL     1       4.674   5.505  19.526  0.00  0.00    +0.000 C 
BRANCH  14  15
ATOM     15  N   UNL     1       3.671   4.479  19.200  0.00  0.00    +0.000 NA
ATOM     16  C   UNL     1       2.849   4.853  18.037  0.00  0.00    +0.000 C 
ATOM     17  C   UNL     1       1.764   3.810  17.769  0.00  0.00    +0.000 C 
ATOM     18  C   UNL     1       2.366   2.425  17.580  0.00  0.00    +0.000 C 
ATOM     19  C   UNL     1       3.271   2.078  18.755  0.00  0.00    +0.000 C 
ATOM     20  C   UNL     1       4.310   3.172  19.001  0.00  0.00    +0.000 C 
ENDBRANCH  14  15
ENDBRANCH  13  14
ENDBRANCH  12  13
ENDBRANCH  11  12
ENDBRANCH   1  11
TORSDOF 7
ENDMDL
MODEL 3
REMARK VINA RESULT:      -7.1      0.922      1.428
REMARK  Name = 
REMARK  9 active torsions:
REMARK  status: ('A' for Active; 'I' for Inactive)
REMARK    1  A    between atoms: C_1  and  C_2
REMARK    2  A    between atoms: C_2  and  C_3
REMARK    3  A    between atoms: C_2  and  C_4
REMARK    4  A    between atoms: C_7  and  O_8
REMARK    5  A    between atoms: O_8  and  C_9
REMARK    6  A    between atoms: C_9  and  C_10
REMARK    7  A    between atoms: C_10  and  C_11
REMARK    8  A    between atoms: C_11  and  C_12
REMARK    9  A    between atoms: C_12  and  N_13
REMARK                            x       y       z     vdW  Elec       q    Type
REMARK                         _______ _______ _______ _____ _____    ______ ____
ROOT
ATOM      1  O   UNL     1       7.313   5.516  16.053  0.00  0.00    +0.000 OA
ENDROOT
BRANCH   1   5
ATOM      2  C   UNL     1       6.006   3.623  12.565  0.00  0.00    +0.000 A 
ATOM      3  C   UNL     1       5.313   3.511  13.780  0.00  0.00    +0.000 A 
ATOM      4  C   UNL     1       5.783   4.152  14.928  0.00  0.00    +0.000 A 
ATOM      5  C   UNL     1       6.960   4.900  14.887  0.00  0.00    +0.000 A 
ATOM      6  C   UNL     1       7.652   5.021  13.685  0.00  0.00    +0.000 A 
ATOM      7  C   UNL     1       7.176   4.390  12.534  0.00  0.00    +0.000 A 
BRANCH   2   9
ATOM      8  C   UNL     1       5.809   1.519  11.253  0.00  0.00    +0.000 C 
ATOM      9  C   UNL     1       5.425   3.000  11.309  0.00  0.00    +0.000 C 
ATOM     10  C   UNL     1       3.905   3.165  11.182  0.00  0.00    +0.000 C 
ENDBRANCH   2   9
ENDBRANCH   1   5
BRANCH   1  11
ATOM     11  C   UNL     1       7.478   4.656  17.183  0.00  0.00    +0.000 C 
BRANCH  11  12
ATOM     12  C   UNL     1       7.336   5.481  18.455  0.00  0.00    +0.000 C 
BRANCH  12  13
ATOM     13  C   UNL     1       5.913   5.450  19.023  0.00  0.00    +0.000 C 
BRANCH  13  14
ATOM     14  C   UNL     1       5.114   4.245  18.506  0.00  0.00    +0.000 C 
BRANCH  14  15
ATOM     15  N   UNL     1       3.810   4.074  19.165  0.00  0.00    +0.000 NA
ATOM     16  C   UNL     1       2.708   3.950  18.196  0.00  0.00    +0.000 C 
ATOM     17  C   UNL     1       1.357   3.854  18.905  0.00  0.00    +0.000 C 
ATOM     18  C   UNL     1       1.335   2.700  19.895  0.00  0.00    +0.000 C 
ATOM     19  C   UNL     1       2.520   2.798  20.848  0.00  0.00    +0.000 C 
ATOM     20  C   UNL     1       3.839   2.931  20.086  0.00  0.00    +0.000 C 
ENDBRANCH  14  15
ENDBRANCH  13  14
ENDBRANCH  12  13
ENDBRANCH  11  12
ENDBRANCH   1  11
TORSDOF 7
ENDMDL
MODEL 4
REMARK VINA RESULT:      -6.8      0.858      1.306
REMARK  Name = 
REMARK  9 active torsions:
REMARK  status: ('A' for Active; 'I' for Inactive)
REMARK    1  A    between atoms: C_1  and  C_2
REMARK    2  A    between atoms: C_2  and  C_3
REMARK    3  A    between atoms: C_2  and  C_4
REMARK    4  A    between atoms: C_7  and  O_8
REMARK    5  A    between atoms: O_8  and  C_9
REMARK    6  A    between atoms: C_9  and  C_10
REMARK    7  A    between atoms: C_10  and  C_11
REMARK    8  A    between atoms: C_11  and  C_12
REMARK    9  A    between atoms: C_12  and  N_13
REMARK                            x       y       z     vdW  Elec       q    Type
REMARK                         _______ _______ _______ _____ _____    ______ ____
ROOT
ATOM      1  O   UNL     1       7.475   5.613  15.957  0.00  0.00    +0.000 OA
ENDROOT
BRANCH   1   5
ATOM      2  C   UNL     1       5.889   3.740  12.574  0.00  0.00    +0.000 A 
ATOM      3  C   UNL     1       7.111   4.429  12.543  0.00  0.00    +0.000 A 
ATOM      4  C   UNL     1       7.607   5.049  13.691  0.00  0.00    +0.000 A 
ATOM      5  C   UNL     1       6.885   5.008  14.884  0.00  0.00    +0.000 A 
ATOM      6  C   UNL     1       5.674   4.323  14.927  0.00  0.00    +0.000 A 
ATOM      7  C   UNL     1       5.183   3.692  13.781  0.00  0.00    +0.000 A 
BRANCH   2   9
ATOM      8  C   UNL     1       5.905   1.543  11.410  0.00  0.00    +0.000 C 
ATOM      9  C   UNL     1       5.417   2.991  11.341  0.00  0.00    +0.000 C 
ATOM     10  C   UNL     1       3.897   3.037  11.134  0.00  0.00    +0.000 C 
ENDBRANCH   2   9
ENDBRANCH   1   5
BRANCH   1  11
ATOM     11  C   UNL     1       6.663   6.558  16.658  0.00  0.00    +0.000 C 
BRANCH  11  12
ATOM     12  C   UNL     1       6.170   5.921  17.949  0.00  0.00    +0.000 C 
BRANCH  12  13
ATOM     13  C   UNL     1       4.641   5.895  18.047  0.00  0.00    +0.000 C 
BRANCH  13  14
ATOM     14  C   UNL     1       4.083   4.467  17.962  0.00  0.00    +0.000 C 
BRANCH  14  15
ATOM     15  N   UNL     1       2.823   4.279  18.698  0.00  0.00    +0.000 NA
ATOM     16  C   UNL     1       2.249   2.940  18.486  0.00  0.00    +0.000 C 
ATOM     17  C   UNL     1       0.903   2.798  19.197  0.00  0.00    +0.000 C 
ATOM     18  C   UNL     1       1.029   3.100  20.683  0.00  0.00    +0.000 C 
ATOM     19  C   UNL     1       1.690   4.457  20.891  0.00  0.00    +0.000 C 
ATOM     20  C   UNL     1       3.012   4.556  20.128  0.00  0.00    +0.000 C 
ENDBRANCH  14  15
ENDBRANCH  13  14
ENDBRANCH  12  13
ENDBRANCH  11  12
ENDBRANCH   1  11
TORSDOF 7
ENDMDL
MODEL 5
REMARK VINA RESULT:      -6.7      1.424      1.977
REMARK  Name = 
REMARK  9 active torsions:
REMARK  status: ('A' for Active; 'I' for Inactive)
REMARK    1  A    between atoms: C_1  and  C_2
REMARK    2  A    between atoms: C_2  and  C_3
REMARK    3  A    between atoms: C_2  and  C_4
REMARK    4  A    between atoms: C_7  and  O_8
REMARK    5  A    between atoms: O_8  and  C_9
REMARK    6  A    between atoms: C_9  and  C_10
REMARK    7  A    between atoms: C_10  and  C_11
REMARK    8  A    between atoms: C_11  and  C_12
REMARK    9  A    between atoms: C_12  and  N_13
REMARK                            x       y       z     vdW  Elec       q    Type
REMARK                         _______ _______ _______ _____ _____    ______ ____
ROOT
ATOM      1  O   UNL     1       7.589   5.851  15.774  0.00  0.00    +0.000 OA
ENDROOT
BRANCH   1   5
ATOM      2  C   UNL     1       5.844   3.385  12.887  0.00  0.00    +0.000 A 
ATOM      3  C   UNL     1       6.914   4.242  12.589  0.00  0.00    +0.000 A 
ATOM      4  C   UNL     1       7.467   5.058  13.577  0.00  0.00    +0.000 A 
ATOM      5  C   UNL     1       6.952   5.045  14.874  0.00  0.00    +0.000 A 
ATOM      6  C   UNL     1       5.894   4.195  15.181  0.00  0.00    +0.000 A 
ATOM      7  C   UNL     1       5.347   3.370  14.195  0.00  0.00    +0.000 A 
BRANCH   2   9
ATOM      8  C   UNL     1       4.279   3.159  10.967  0.00  0.00    +0.000 C 
ATOM      9  C   UNL     1       5.322   2.437  11.823  0.00  0.00    +0.000 C 
ATOM     10  C   UNL     1       6.421   1.836  10.936  0.00  0.00    +0.000 C 
ENDBRANCH   2   9
ENDBRANCH   1   5
BRANCH   1  11
ATOM     11  C   UNL     1       7.225   5.657  17.143  0.00  0.00    +0.000 C 
BRANCH  11  12
ATOM     12  C   UNL     1       6.286   6.778  17.566  0.00  0.00    +0.000 C 
BRANCH  12  13
ATOM     13  C   UNL     1       4.809   6.392  17.433  0.00  0.00    +0.000 C 
BRANCH  13  14
ATOM     14  C   UNL     1       4.194   5.994  18.782  0.00  0.00    +0.000 C 
BRANCH  14  15
ATOM     15  N   UNL     1       3.642   4.630  18.801  0.00  0.00    +0.000 NA
ATOM     16  C   UNL     1       3.088   4.235  17.496  0.00  0.00    +0.000 C 
ATOM     17  C   UNL     1       2.450   2.847  17.563  0.00  0.00    +0.000 C 
ATOM     18  C   UNL     1       3.442   1.808  18.063  0.00  0.00    +0.000 C 
ATOM     19  C   UNL     1       4.063   2.261  19.379  0.00  0.00    +0.000 C 
ATOM     20  C   UNL     1       4.650   3.668  19.264  0.00  0.00    +0.000 C 
ENDBRANCH  14  15
ENDBRANCH  13  14
ENDBRANCH  12  13
ENDBRANCH  11  12
ENDBRANCH   1  11
TORSDOF 7
ENDMDL
MODEL 6
REMARK VINA RESULT:      -6.7      3.639      6.926
REMARK  Name = 
REMARK  9 active torsions:
REMARK  status: ('A' for Active; 'I' for Inactive)
REMARK    1  A    between atoms: C_1  and  C_2
REMARK    2  A    between atoms: C_2  and  C_3
REMARK    3  A    between atoms: C_2  and  C_4
REMARK    4  A    between atoms: C_7  and  O_8
REMARK    5  A    between atoms: O_8  and  C_9
REMARK    6  A    between atoms: C_9  and  C_10
REMARK    7  A    between atoms: C_10  and  C_11
REMARK    8  A    between atoms: C_11  and  C_12
REMARK    9  A    between atoms: C_12  and  N_13
REMARK                            x       y       z     vdW  Elec       q    Type
REMARK                         _______ _______ _______ _____ _____    ______ ____
ROOT
ATOM      1  O   UNL     1       3.856   6.387  17.374  0.00  0.00    +0.000 OA
ENDROOT
BRANCH   1   5
ATOM      2  C   UNL     1       1.333   8.604  19.860  0.00  0.00    +0.000 A 
ATOM      3  C   UNL     1       1.851   7.357  20.242  0.00  0.00    +0.000 A 
ATOM      4  C   UNL     1       2.685   6.641  19.382  0.00  0.00    +0.000 A 
ATOM      5  C   UNL     1       3.003   7.147  18.121  0.00  0.00    +0.000 A 
ATOM      6  C   UNL     1       2.498   8.385  17.735  0.00  0.00    +0.000 A 
ATOM      7  C   UNL     1       1.672   9.108  18.599  0.00  0.00    +0.000 A 
BRANCH   2   9
ATOM      8  C   UNL     1       1.103   9.257  22.248  0.00  0.00    +0.000 C 
ATOM      9  C   UNL     1       0.508   9.409  20.847  0.00  0.00    +0.000 C 
ATOM     10  C   UNL     1       0.376  10.893  20.477  0.00  0.00    +0.000 C 
ENDBRANCH   2   9
ENDBRANCH   1   5
BRANCH   1  11
ATOM     11  C   UNL     1       5.128   6.117  17.969  0.00  0.00    +0.000 C 
BRANCH  11  12
ATOM     12  C   UNL     1       5.422   4.629  17.847  0.00  0.00    +0.000 C 
BRANCH  12  13
ATOM     13  C   UNL     1       4.283   3.855  17.174  0.00  0.00    +0.000 C 
BRANCH  13  14
ATOM     14  C   UNL     1       4.081   2.469  17.801  0.00  0.00    +0.000 C 
BRANCH  14  15
ATOM     15  N   UNL     1       3.038   2.435  18.839  0.00  0.00    +0.000 NA
ATOM     16  C   UNL     1       3.534   2.902  20.144  0.00  0.00    +0.000 C 
ATOM     17  C   UNL     1       2.456   2.782  21.220  0.00  0.00    +0.000 C 
ATOM     18  C   UNL     1       1.195   3.536  20.824  0.00  0.00    +0.000 C 
ATOM     19  C   UNL     1       0.730   3.096  19.441  0.00  0.00    +0.000 C 
ATOM     20  C   UNL     1       1.858   3.200  18.414  0.00  0.00    +0.000 C 
ENDBRANCH  14  15
ENDBRANCH  13  14
ENDBRANCH  12  13
ENDBRANCH  11  12
ENDBRANCH   1  11
TORSDOF 7
ENDMDL
MODEL 7
REMARK VINA RESULT:      -6.7      0.919      1.723
REMARK  Name = 
REMARK  9 active torsions:
REMARK  status: ('A' for Active; 'I' for Inactive)
REMARK    1  A    between atoms: C_1  and  C_2
REMARK    2  A    between atoms: C_2  and  C_3
REMARK    3  A    between atoms: C_2  and  C_4
REMARK    4  A    between atoms: C_7  and  O_8
REMARK    5  A    between atoms: O_8  and  C_9
REMARK    6  A    between atoms: C_9  and  C_10
REMARK    7  A    between atoms: C_10  and  C_11
REMARK    8  A    between atoms: C_11  and  C_12
REMARK    9  A    between atoms: C_12  and  N_13
REMARK                            x       y       z     vdW  Elec       q    Type
REMARK                         _______ _______ _______ _____ _____    ______ ____
ROOT
ATOM      1  O   UNL     1       7.383   6.032  15.889  0.00  0.00    +0.000 OA
ENDROOT
BRANCH   1   5
ATOM      2  C   UNL     1       5.902   3.440  12.966  0.00  0.00    +0.000 A 
ATOM      3  C   UNL     1       5.305   3.559  14.230  0.00  0.00    +0.000 A 
ATOM      4  C   UNL     1       5.832   4.430  15.185  0.00  0.00    +0.000 A 
ATOM      5  C   UNL     1       6.971   5.183  14.902  0.00  0.00    +0.000 A 
ATOM      6  C   UNL     1       7.568   5.076  13.649  0.00  0.00    +0.000 A 
ATOM      7  C   UNL     1       7.035   4.213  12.688  0.00  0.00    +0.000 A 
BRANCH   2   9
ATOM      8  C   UNL     1       4.307   3.406  11.058  0.00  0.00    +0.000 C 
ATOM      9  C   UNL     1       5.257   2.561  11.910  0.00  0.00    +0.000 C 
ATOM     10  C   UNL     1       6.264   1.822  11.020  0.00  0.00    +0.000 C 
ENDBRANCH   2   9
ENDBRANCH   1   5
BRANCH   1  11
ATOM     11  C   UNL     1       7.171   5.574  17.227  0.00  0.00    +0.000 C 
BRANCH  11  12
ATOM     12  C   UNL     1       6.003   6.342  17.830  0.00  0.00    +0.000 C 
BRANCH  12  13
ATOM     13  C   UNL     1       5.402   5.638  19.051  0.00  0.00    +0.000 C 
BRANCH  13  14
ATOM     14  C   UNL     1       5.432   4.110  18.906  0.00  0.00    +0.000 C 
BRANCH  14  15
ATOM     15  N   UNL     1       4.106   3.480  19.016  0.00  0.00    +0.000 NA
ATOM     16  C   UNL     1       3.127   4.352  19.685  0.00  0.00    +0.000 C 
ATOM     17  C   UNL     1       1.783   3.645  19.857  0.00  0.00    +0.000 C 
ATOM     18  C   UNL     1       1.243   3.155  18.522  0.00  0.00    +0.000 C 
ATOM     19  C   UNL     1       2.291   2.312  17.805  0.00  0.00    +0.000 C 
ATOM     20  C   UNL     1       3.624   3.053  17.696  0.00  0.00    +0.000 C 
ENDBRANCH  14  15
ENDBRANCH  13  14
ENDBRANCH  12  13
ENDBRANCH  11  12
ENDBRANCH   1  11
TORSDOF 7
ENDMDL
MODEL 8
REMARK VINA RESULT:      -6.7      3.867      6.885
REMARK  Name = 
REMARK  9 active torsions:
REMARK  status: ('A' for Active; 'I' for Inactive)
REMARK    1  A    between atoms: C_1  and  C_2
REMARK    2  A    between atoms: C_2  and  C_3
REMARK    3  A    between atoms: C_2  and  C_4
REMARK    4  A    between atoms: C_7  and  O_8
REMARK    5  A    between atoms: O_8  and  C_9
REMARK    6  A    between atoms: C_9  and  C_10
REMARK    7  A    between atoms: C_10  and  C_11
REMARK    8  A    between atoms: C_11  and  C_12
REMARK    9  A    between atoms: C_12  and  N_13
REMARK                            x       y       z     vdW  Elec       q    Type
REMARK                         _______ _______ _______ _____ _____    ______ ____
ROOT
ATOM      1  O   UNL     1       3.601   6.354  17.375  0.00  0.00    +0.000 OA
ENDROOT
BRANCH   1   5
ATOM      2  C   UNL     1       1.298   8.728  19.929  0.00  0.00    +0.000 A 
ATOM      3  C   UNL     1       1.644   9.142  18.634  0.00  0.00    +0.000 A 
ATOM      4  C   UNL     1       2.421   8.325  17.810  0.00  0.00    +0.000 A 
ATOM      5  C   UNL     1       2.881   7.092  18.270  0.00  0.00    +0.000 A 
ATOM      6  C   UNL     1       2.540   6.669  19.553  0.00  0.00    +0.000 A 
ATOM      7  C   UNL     1       1.752   7.481  20.373  0.00  0.00    +0.000 A 
BRANCH   2   9
ATOM      8  C   UNL     1      -0.651  10.271  19.861  0.00  0.00    +0.000 C 
ATOM      9  C   UNL     1       0.373   9.588  20.770  0.00  0.00    +0.000 C 
ATOM     10  C   UNL     1      -0.335   8.818  21.893  0.00  0.00    +0.000 C 
ENDBRANCH   2   9
ENDBRANCH   1   5
BRANCH   1  11
ATOM     11  C   UNL     1       5.003   6.260  17.636  0.00  0.00    +0.000 C 
BRANCH  11  12
ATOM     12  C   UNL     1       5.393   4.790  17.711  0.00  0.00    +0.000 C 
BRANCH  12  13
ATOM     13  C   UNL     1       5.147   4.186  19.098  0.00  0.00    +0.000 C 
BRANCH  13  14
ATOM     14  C   UNL     1       4.632   2.742  19.013  0.00  0.00    +0.000 C 
BRANCH  14  15
ATOM     15  N   UNL     1       3.246   2.580  19.482  0.00  0.00    +0.000 NA
ATOM     16  C   UNL     1       3.017   3.237  20.780  0.00  0.00    +0.000 C 
ATOM     17  C   UNL     1       1.595   2.987  21.282  0.00  0.00    +0.000 C 
ATOM     18  C   UNL     1       0.562   3.439  20.261  0.00  0.00    +0.000 C 
ATOM     19  C   UNL     1       0.851   2.809  18.904  0.00  0.00    +0.000 C 
ATOM     20  C   UNL     1       2.296   3.058  18.469  0.00  0.00    +0.000 C 
ENDBRANCH  14  15
ENDBRANCH  13  14
ENDBRANCH  12  13
ENDBRANCH  11  12
ENDBRANCH   1  11
TORSDOF 7
ENDMDL
MODEL 9
REMARK VINA RESULT:      -6.7      3.202      6.448
REMARK  Name = 
REMARK  9 active torsions:
REMARK  status: ('A' for Active; 'I' for Inactive)
REMARK    1  A    between atoms: C_1  and  C_2
REMARK    2  A    between atoms: C_2  and  C_3
REMARK    3  A    between atoms: C_2  and  C_4
REMARK    4  A    between atoms: C_7  and  O_8
REMARK    5  A    between atoms: O_8  and  C_9
REMARK    6  A    between atoms: C_9  and  C_10
REMARK    7  A    between atoms: C_10  and  C_11
REMARK    8  A    between atoms: C_11  and  C_12
REMARK    9  A    between atoms: C_12  and  N_13
REMARK                            x       y       z     vdW  Elec       q    Type
REMARK                         _______ _______ _______ _____ _____    ______ ____
ROOT
ATOM      1  O   UNL     1       4.726   5.526  17.987  0.00  0.00    +0.000 OA
ENDROOT
BRANCH   1   5
ATOM      2  C   UNL     1       1.832   8.339  19.071  0.00  0.00    +0.000 A 
ATOM      3  C   UNL     1       2.117   7.217  19.864  0.00  0.00    +0.000 A 
ATOM      4  C   UNL     1       3.085   6.294  19.467  0.00  0.00    +0.000 A 
ATOM      5  C   UNL     1       3.773   6.464  18.265  0.00  0.00    +0.000 A 
ATOM      6  C   UNL     1       3.501   7.576  17.473  0.00  0.00    +0.000 A 
ATOM      7  C   UNL     1       2.540   8.507  17.875  0.00  0.00    +0.000 A 
BRANCH   2   9
ATOM      8  C   UNL     1       0.847   9.390  21.099  0.00  0.00    +0.000 C 
ATOM      9  C   UNL     1       0.846   9.380  19.569  0.00  0.00    +0.000 C 
ATOM     10  C   UNL     1       1.106  10.790  19.022  0.00  0.00    +0.000 C 
ENDBRANCH   2   9
ENDBRANCH   1   5
BRANCH   1  11
ATOM     11  C   UNL     1       4.959   5.274  16.599  0.00  0.00    +0.000 C 
BRANCH  11  12
ATOM     12  C   UNL     1       4.734   3.794  16.324  0.00  0.00    +0.000 C 
BRANCH  12  13
ATOM     13  C   UNL     1       3.402   3.285  16.885  0.00  0.00    +0.000 C 
BRANCH  13  14
ATOM     14  C   UNL     1       3.596   2.115  17.859  0.00  0.00    +0.000 C 
BRANCH  14  15
ATOM     15  N   UNL     1       2.761   2.206  19.067  0.00  0.00    +0.000 NA
ATOM     16  C   UNL     1       3.527   2.655  20.242  0.00  0.00    +0.000 C 
ATOM     17  C   UNL     1       2.656   2.665  21.498  0.00  0.00    +0.000 C 
ATOM     18  C   UNL     1       1.417   3.525  21.304  0.00  0.00    +0.000 C 
ATOM     19  C   UNL     1       0.670   3.099  20.045  0.00  0.00    +0.000 C 
ATOM     20  C   UNL     1       1.598   3.070  18.829  0.00  0.00    +0.000 C 
ENDBRANCH  14  15
ENDBRANCH  13  14
ENDBRANCH  12  13
ENDBRANCH  11  12
ENDBRANCH   1  11
TORSDOF 7
ENDMDL
