MODEL 1
REMARK VINA RESULT:      -8.5      0.000      0.000
REMARK  Name = 
REMARK  9 active torsions:
REMARK  status: ('A' for Active; 'I' for Inactive)
REMARK    1  A    between atoms: C_2  and  O_3
REMARK    2  A    between atoms: C_2  and  C_4
REMARK    3  A    between atoms: C_6  and  N_7
REMARK    4  A    between atoms: C_12  and  N_13
REMARK    5  A    between atoms: N_13  and  C_14
REMARK    6  A    between atoms: C_17  and  C_18
REMARK    7  A    between atoms: C_18  and  C_19
REMARK    8  A    between atoms: C_19  and  C_20
REMARK    9  A    between atoms: C_20  and  C_21
REMARK                            x       y       z     vdW  Elec       q    Type
REMARK                         _______ _______ _______ _____ _____    ______ ____
ROOT
ATOM      1  C   UNL     1       1.870   6.517  19.841  0.00  0.00    +0.000 A 
ATOM      2  C   UNL     1       1.917   6.209  18.476  0.00  0.00    +0.000 A 
ATOM      3  C   UNL     1       1.691   4.901  18.030  0.00  0.00    +0.000 A 
ATOM      4  C   UNL     1       1.439   3.868  18.942  0.00  0.00    +0.000 A 
ATOM      5  C   UNL     1       1.382   4.172  20.303  0.00  0.00    +0.000 A 
ATOM      6  C   UNL     1       1.642   5.469  20.744  0.00  0.00    +0.000 A 
ENDROOT
BRANCH   1   7
ATOM      7  N   UNL     1       2.194   7.841  20.262  0.00  0.00    +0.000 N 
ATOM      8  H   UNL     1       2.961   7.744  20.942  0.00  0.00    +0.000 HD
BRANCH   7  14
ATOM      9  C   UNL     1       0.681   9.773  19.824  0.00  0.00    +0.000 A 
ATOM     10  C   UNL     1      -0.188  10.769  20.315  0.00  0.00    +0.000 A 
ATOM     11  C   UNL     1      -0.483  10.830  21.682  0.00  0.00    +0.000 A 
ATOM     12  C   UNL     1       0.022   9.866  22.549  0.00  0.00    +0.000 A 
ATOM     13  C   UNL     1       0.838   8.854  22.047  0.00  0.00    +0.000 A 
ATOM     14  C   UNL     1       1.278   8.843  20.710  0.00  0.00    +0.000 A 
BRANCH  11  15
ATOM     15  N   UNL     1      -1.346  11.890  22.215  0.00  0.00    +0.000 N 
ATOM     16  O   UNL     1      -1.095  12.315  23.352  0.00  0.00    +0.000 OA
ATOM     17  O   UNL     1      -2.273  12.294  21.501  0.00  0.00    +0.000 OA
ENDBRANCH  11  15
BRANCH   9  19
ATOM     18  O   UNL     1       2.026   9.651  17.863  0.00  0.00    +0.000 OA
ATOM     19  C   UNL     1       0.917   9.785  18.358  0.00  0.00    +0.000 C 
BRANCH  19  20
ATOM     20  O   UNL     1      -0.190  10.002  17.613  0.00  0.00    +0.000 OA
ATOM     21  H   UNL     1      -0.592   9.182  17.252  0.00  0.00    +0.000 HD
ENDBRANCH  19  20
ENDBRANCH   9  19
ENDBRANCH   7  14
ENDBRANCH   1   7
BRANCH   4  22
ATOM     22  C   UNL     1       1.332   2.432  18.490  0.00  0.00    +0.000 C 
BRANCH  22  23
ATOM     23  C   UNL     1       2.563   1.971  17.700  0.00  0.00    +0.000 C 
BRANCH  23  24
ATOM     24  C   UNL     1       3.866   2.068  18.503  0.00  0.00    +0.000 C 
BRANCH  24  25
ATOM     25  C   UNL     1       4.604   3.353  18.211  0.00  0.00    +0.000 A 
ATOM     26  C   UNL     1       5.120   4.135  19.250  0.00  0.00    +0.000 A 
ATOM     27  C   UNL     1       5.812   5.313  18.974  0.00  0.00    +0.000 A 
ATOM     28  C   UNL     1       6.004   5.724  17.651  0.00  0.00    +0.000 A 
ATOM     29 CL   UNL     1       6.871   7.195  17.382  0.00  0.00    +0.000 Cl
ATOM     30  C   UNL     1       5.502   4.945  16.604  0.00  0.00    +0.000 A 
ATOM     31 CL   UNL     1       5.711   5.379  14.943  0.00  0.00    +0.000 Cl
ATOM     32  C   UNL     1       4.807   3.764  16.884  0.00  0.00    +0.000 A 
ENDBRANCH  24  25
ENDBRANCH  23  24
ENDBRANCH  22  23
ENDBRANCH   4  22
TORSDOF 9
ENDMDL
MODEL 2
REMARK VINA RESULT:      -8.0      1.406      2.391
REMARK  Name = 
REMARK  9 active torsions:
REMARK  status: ('A' for Active; 'I' for Inactive)
REMARK    1  A    between atoms: C_2  and  O_3
REMARK    2  A    between atoms: C_2  and  C_4
REMARK    3  A    between atoms: C_6  and  N_7
REMARK    4  A    between atoms: C_12  and  N_13
REMARK    5  A    between atoms: N_13  and  C_14
REMARK    6  A    between atoms: C_17  and  C_18
REMARK    7  A    between atoms: C_18  and  C_19
REMARK    8  A    between atoms: C_19  and  C_20
REMARK    9  A    between atoms: C_20  and  C_21
REMARK                            x       y       z     vdW  Elec       q    Type
REMARK                         _______ _______ _______ _____ _____    ______ ____
ROOT
ATOM      1  C   UNL     1       1.969   6.806  19.884  0.00  0.00    +0.000 A 
ATOM      2  C   UNL     1       1.666   5.775  20.782  0.00  0.00    +0.000 A 
ATOM      3  C   UNL     1       1.502   4.459  20.331  0.00  0.00    +0.000 A 
ATOM      4  C   UNL     1       1.610   4.152  18.968  0.00  0.00    +0.000 A 
ATOM      5  C   UNL     1       1.921   5.175  18.070  0.00  0.00    +0.000 A 
ATOM      6  C   UNL     1       2.050   6.489  18.521  0.00  0.00    +0.000 A 
ENDROOT
BRANCH   1   7
ATOM      7  N   UNL     1       2.041   8.145  20.370  0.00  0.00    +0.000 N 
ATOM      8  H   UNL     1       2.354   8.076  21.349  0.00  0.00    +0.000 HD
BRANCH   7  14
ATOM      9  C   UNL     1       0.497   9.815  21.390  0.00  0.00    +0.000 A 
ATOM     10  C   UNL     1      -0.527  10.773  21.237  0.00  0.00    +0.000 A 
ATOM     11  C   UNL     1      -1.008  11.087  19.961  0.00  0.00    +0.000 A 
ATOM     12  C   UNL     1      -0.429  10.510  18.835  0.00  0.00    +0.000 A 
ATOM     13  C   UNL     1       0.618   9.604  18.991  0.00  0.00    +0.000 A 
ATOM     14  C   UNL     1       1.030   9.150  20.259  0.00  0.00    +0.000 A 
BRANCH  11  15
ATOM     15  N   UNL     1      -2.105  12.045  19.789  0.00  0.00    +0.000 N 
ATOM     16  O   UNL     1      -2.445  12.709  20.779  0.00  0.00    +0.000 OA
ATOM     17  O   UNL     1      -2.625  12.132  18.669  0.00  0.00    +0.000 OA
ENDBRANCH  11  15
BRANCH   9  19
ATOM     18  O   UNL     1       0.196   9.634  23.745  0.00  0.00    +0.000 OA
ATOM     19  C   UNL     1       0.947   9.565  22.784  0.00  0.00    +0.000 C 
BRANCH  19  20
ATOM     20  O   UNL     1       2.265   9.298  22.909  0.00  0.00    +0.000 OA
ATOM     21  H   UNL     1       2.808   9.616  22.154  0.00  0.00    +0.000 HD
ENDBRANCH  19  20
ENDBRANCH   9  19
ENDBRANCH   7  14
ENDBRANCH   1   7
BRANCH   4  22
ATOM     22  C   UNL     1       1.299   2.770  18.448  0.00  0.00    +0.000 C 
BRANCH  22  23
ATOM     23  C   UNL     1       2.460   2.168  17.646  0.00  0.00    +0.000 C 
BRANCH  23  24
ATOM     24  C   UNL     1       3.776   2.123  18.433  0.00  0.00    +0.000 C 
BRANCH  24  25
ATOM     25  C   UNL     1       4.638   3.327  18.142  0.00  0.00    +0.000 A 
ATOM     26  C   UNL     1       5.225   4.057  19.182  0.00  0.00    +0.000 A 
ATOM     27  C   UNL     1       6.031   5.161  18.907  0.00  0.00    +0.000 A 
ATOM     28  C   UNL     1       6.268   5.548  17.584  0.00  0.00    +0.000 A 
ATOM     29 CL   UNL     1       7.278   6.925  17.317  0.00  0.00    +0.000 Cl
ATOM     30  C   UNL     1       5.697   4.819  16.536  0.00  0.00    +0.000 A 
ATOM     31 CL   UNL     1       5.954   5.227  14.876  0.00  0.00    +0.000 Cl
ATOM     32  C   UNL     1       4.887   3.714  16.816  0.00  0.00    +0.000 A 
ENDBRANCH  24  25
ENDBRANCH  23  24
ENDBRANCH  22  23
ENDBRANCH   4  22
TORSDOF 9
ENDMDL
MODEL 3
REMARK VINA RESULT:      -7.9      5.006      9.170
REMARK  Name = 
REMARK  9 active torsions:
REMARK  status: ('A' for Active; 'I' for Inactive)
REMARK    1  A    between atoms: C_2  and  O_3
REMARK    2  A    between atoms: C_2  and  C_4
REMARK    3  A    between atoms: C_6  and  N_7
REMARK    4  A    between atoms: C_12  and  N_13
REMARK    5  A    between atoms: N_13  and  C_14
REMARK    6  A    between atoms: C_17  and  C_18
REMARK    7  A    between atoms: C_18  and  C_19
REMARK    8  A    between atoms: C_19  and  C_20
REMARK    9  A    between atoms: C_20  and  C_21
REMARK                            x       y       z     vdW  Elec       q    Type
REMARK                         _______ _______ _______ _____ _____    ______ ____
ROOT
ATOM      1  C   UNL     1       2.383   6.651  19.260  0.00  0.00    +0.000 A 
ATOM      2  C   UNL     1       1.916   6.783  20.573  0.00  0.00    +0.000 A 
ATOM      3  C   UNL     1       1.348   7.985  21.013  0.00  0.00    +0.000 A 
ATOM      4  C   UNL     1       1.260   9.090  20.155  0.00  0.00    +0.000 A 
ATOM      5  C   UNL     1       1.715   8.960  18.842  0.00  0.00    +0.000 A 
ATOM      6  C   UNL     1       2.311   7.771  18.421  0.00  0.00    +0.000 A 
ENDROOT
BRANCH   1   7
ATOM      7  N   UNL     1       3.035   5.441  18.878  0.00  0.00    +0.000 N 
ATOM      8  H   UNL     1       3.465   5.067  19.735  0.00  0.00    +0.000 HD
BRANCH   7  14
ATOM      9  C   UNL     1       4.062   4.023  17.104  0.00  0.00    +0.000 A 
ATOM     10  C   UNL     1       4.983   3.882  16.045  0.00  0.00    +0.000 A 
ATOM     11  C   UNL     1       5.754   4.976  15.637  0.00  0.00    +0.000 A 
ATOM     12  C   UNL     1       5.565   6.222  16.225  0.00  0.00    +0.000 A 
ATOM     13  C   UNL     1       4.616   6.366  17.235  0.00  0.00    +0.000 A 
ATOM     14  C   UNL     1       3.927   5.263  17.775  0.00  0.00    +0.000 A 
BRANCH  11  15
ATOM     15  N   UNL     1       6.751   4.833  14.570  0.00  0.00    +0.000 N 
ATOM     16  O   UNL     1       7.753   5.560  14.621  0.00  0.00    +0.000 OA
ATOM     17  O   UNL     1       6.531   3.997  13.683  0.00  0.00    +0.000 OA
ENDBRANCH  11  15
BRANCH   9  19
ATOM     18  O   UNL     1       2.060   2.778  17.439  0.00  0.00    +0.000 OA
ATOM     19  C   UNL     1       3.281   2.807  17.450  0.00  0.00    +0.000 C 
BRANCH  19  20
ATOM     20  O   UNL     1       4.031   1.747  17.822  0.00  0.00    +0.000 OA
ATOM     21  H   UNL     1       3.763   0.903  17.396  0.00  0.00    +0.000 HD
ENDBRANCH  19  20
ENDBRANCH   9  19
ENDBRANCH   7  14
ENDBRANCH   1   7
BRANCH   4  22
ATOM     22  C   UNL     1       0.781  10.432  20.652  0.00  0.00    +0.000 C 
BRANCH  22  23
ATOM     23  C   UNL     1      -0.747  10.502  20.775  0.00  0.00    +0.000 C 
BRANCH  23  24
ATOM     24  C   UNL     1      -1.355  11.711  20.054  0.00  0.00    +0.000 C 
BRANCH  24  25
ATOM     25  C   UNL     1      -2.015  11.309  18.757  0.00  0.00    +0.000 A 
ATOM     26  C   UNL     1      -1.396  10.403  17.888  0.00  0.00    +0.000 A 
ATOM     27  C   UNL     1      -2.017  10.026  16.697  0.00  0.00    +0.000 A 
ATOM     28  C   UNL     1      -3.271  10.545  16.361  0.00  0.00    +0.000 A 
ATOM     29 CL   UNL     1      -3.981  10.033  14.871  0.00  0.00    +0.000 Cl
ATOM     30  C   UNL     1      -3.904  11.442  17.227  0.00  0.00    +0.000 A 
ATOM     31 CL   UNL     1      -5.460  12.115  16.888  0.00  0.00    +0.000 Cl
ATOM     32  C   UNL     1      -3.279  11.819  18.419  0.00  0.00    +0.000 A 
ENDBRANCH  24  25
ENDBRANCH  23  24
ENDBRANCH  22  23
ENDBRANCH   4  22
TORSDOF 9
ENDMDL
MODEL 4
REMARK VINA RESULT:      -7.9      5.215      9.386
REMARK  Name = 
REMARK  9 active torsions:
REMARK  status: ('A' for Active; 'I' for Inactive)
REMARK    1  A    between atoms: C_2  and  O_3
REMARK    2  A    between atoms: C_2  and  C_4
REMARK    3  A    between atoms: C_6  and  N_7
REMARK    4  A    between atoms: C_12  and  N_13
REMARK    5  A    between atoms: N_13  and  C_14
REMARK    6  A    between atoms: C_17  and  C_18
REMARK    7  A    between atoms: C_18  and  C_19
REMARK    8  A    between atoms: C_19  and  C_20
REMARK    9  A    between atoms: C_20  and  C_21
REMARK                            x       y       z     vdW  Elec       q    Type
REMARK                         _______ _______ _______ _____ _____    ______ ____
ROOT
ATOM      1  C   UNL     1       3.867   5.444  18.466  0.00  0.00    +0.000 A 
ATOM      2  C   UNL     1       3.729   6.679  17.823  0.00  0.00    +0.000 A 
ATOM      3  C   UNL     1       2.914   7.680  18.366  0.00  0.00    +0.000 A 
ATOM      4  C   UNL     1       2.200   7.456  19.550  0.00  0.00    +0.000 A 
ATOM      5  C   UNL     1       2.342   6.230  20.200  0.00  0.00    +0.000 A 
ATOM      6  C   UNL     1       3.128   5.224  19.637  0.00  0.00    +0.000 A 
ENDROOT
BRANCH   1   7
ATOM      7  N   UNL     1       4.636   4.419  17.836  0.00  0.00    +0.000 N 
ATOM      8  H   UNL     1       5.183   3.974  18.585  0.00  0.00    +0.000 HD
BRANCH   7  14
ATOM      9  C   UNL     1       6.771   5.047  16.714  0.00  0.00    +0.000 A 
ATOM     10  C   UNL     1       7.519   5.202  15.528  0.00  0.00    +0.000 A 
ATOM     11  C   UNL     1       6.959   4.850  14.296  0.00  0.00    +0.000 A 
ATOM     12  C   UNL     1       5.691   4.278  14.242  0.00  0.00    +0.000 A 
ATOM     13  C   UNL     1       4.979   4.080  15.423  0.00  0.00    +0.000 A 
ATOM     14  C   UNL     1       5.443   4.556  16.665  0.00  0.00    +0.000 A 
BRANCH  11  15
ATOM     15  N   UNL     1       7.706   5.050  13.049  0.00  0.00    +0.000 N 
ATOM     16  O   UNL     1       8.647   5.856  13.069  0.00  0.00    +0.000 OA
ATOM     17  O   UNL     1       7.352   4.404  12.054  0.00  0.00    +0.000 OA
ENDBRANCH  11  15
BRANCH   9  19
ATOM     18  O   UNL     1       7.749   4.634  18.845  0.00  0.00    +0.000 OA
ATOM     19  C   UNL     1       7.461   5.437  17.971  0.00  0.00    +0.000 C 
BRANCH  19  20
ATOM     20  O   UNL     1       7.705   6.760  18.090  0.00  0.00    +0.000 OA
ATOM     21  H   UNL     1       6.898   7.302  18.230  0.00  0.00    +0.000 HD
ENDBRANCH  19  20
ENDBRANCH   9  19
ENDBRANCH   7  14
ENDBRANCH   1   7
BRANCH   4  22
ATOM     22  C   UNL     1       1.211   8.470  20.073  0.00  0.00    +0.000 C 
BRANCH  22  23
ATOM     23  C   UNL     1       0.973   9.622  19.088  0.00  0.00    +0.000 C 
BRANCH  23  24
ATOM     24  C   UNL     1       0.190  10.788  19.704  0.00  0.00    +0.000 C 
BRANCH  24  25
ATOM     25  C   UNL     1      -1.140  10.988  19.018  0.00  0.00    +0.000 A 
ATOM     26  C   UNL     1      -2.111  11.832  19.569  0.00  0.00    +0.000 A 
ATOM     27  C   UNL     1      -3.332  12.022  18.924  0.00  0.00    +0.000 A 
ATOM     28  C   UNL     1      -3.599  11.375  17.714  0.00  0.00    +0.000 A 
ATOM     29 CL   UNL     1      -5.133  11.658  16.970  0.00  0.00    +0.000 Cl
ATOM     30  C   UNL     1      -2.632  10.538  17.148  0.00  0.00    +0.000 A 
ATOM     31 CL   UNL     1      -2.882   9.715  15.649  0.00  0.00    +0.000 Cl
ATOM     32  C   UNL     1      -1.408  10.348  17.798  0.00  0.00    +0.000 A 
ENDBRANCH  24  25
ENDBRANCH  23  24
ENDBRANCH  22  23
ENDBRANCH   4  22
TORSDOF 9
ENDMDL
MODEL 5
REMARK VINA RESULT:      -7.8      5.199      9.228
REMARK  Name = 
REMARK  9 active torsions:
REMARK  status: ('A' for Active; 'I' for Inactive)
REMARK    1  A    between atoms: C_2  and  O_3
REMARK    2  A    between atoms: C_2  and  C_4
REMARK    3  A    between atoms: C_6  and  N_7
REMARK    4  A    between atoms: C_12  and  N_13
REMARK    5  A    between atoms: N_13  and  C_14
REMARK    6  A    between atoms: C_17  and  C_18
REMARK    7  A    between atoms: C_18  and  C_19
REMARK    8  A    between atoms: C_19  and  C_20
REMARK    9  A    between atoms: C_20  and  C_21
REMARK                            x       y       z     vdW  Elec       q    Type
REMARK                         _______ _______ _______ _____ _____    ______ ____
ROOT
ATOM      1  C   UNL     1       3.117   6.028  18.847  0.00  0.00    +0.000 A 
ATOM      2  C   UNL     1       2.548   5.984  20.125  0.00  0.00    +0.000 A 
ATOM      3  C   UNL     1       1.837   7.079  20.630  0.00  0.00    +0.000 A 
ATOM      4  C   UNL     1       1.703   8.253  19.876  0.00  0.00    +0.000 A 
ATOM      5  C   UNL     1       2.260   8.298  18.597  0.00  0.00    +0.000 A 
ATOM      6  C   UNL     1       2.996   7.216  18.114  0.00  0.00    +0.000 A 
ENDROOT
BRANCH   1   7
ATOM      7  N   UNL     1       3.908   4.925  18.405  0.00  0.00    +0.000 N 
ATOM      8  H   UNL     1       4.397   4.575  19.240  0.00  0.00    +0.000 HD
BRANCH   7  14
ATOM      9  C   UNL     1       6.154   5.287  17.387  0.00  0.00    +0.000 A 
ATOM     10  C   UNL     1       6.983   5.288  16.246  0.00  0.00    +0.000 A 
ATOM     11  C   UNL     1       6.469   4.890  15.007  0.00  0.00    +0.000 A 
ATOM     12  C   UNL     1       5.162   4.424  14.909  0.00  0.00    +0.000 A 
ATOM     13  C   UNL     1       4.366   4.376  16.051  0.00  0.00    +0.000 A 
ATOM     14  C   UNL     1       4.794   4.905  17.284  0.00  0.00    +0.000 A 
BRANCH  11  15
ATOM     15  N   UNL     1       7.305   4.932  13.802  0.00  0.00    +0.000 N 
ATOM     16  O   UNL     1       6.978   4.206  12.853  0.00  0.00    +0.000 OA
ATOM     17  O   UNL     1       8.286   5.687  13.805  0.00  0.00    +0.000 OA
ENDBRANCH  11  15
BRANCH   9  19
ATOM     18  O   UNL     1       6.494   5.245  19.743  0.00  0.00    +0.000 OA
ATOM     19  C   UNL     1       6.798   5.712  18.656  0.00  0.00    +0.000 C 
BRANCH  19  20
ATOM     20  O   UNL     1       7.718   6.691  18.517  0.00  0.00    +0.000 OA
ATOM     21  H   UNL     1       8.087   6.764  17.610  0.00  0.00    +0.000 HD
ENDBRANCH  19  20
ENDBRANCH   9  19
ENDBRANCH   7  14
ENDBRANCH   1   7
BRANCH   4  22
ATOM     22  C   UNL     1       1.062   9.489  20.457  0.00  0.00    +0.000 C 
BRANCH  22  23
ATOM     23  C   UNL     1      -0.464   9.492  20.295  0.00  0.00    +0.000 C 
BRANCH  23  24
ATOM     24  C   UNL     1      -1.016  10.842  19.820  0.00  0.00    +0.000 C 
BRANCH  24  25
ATOM     25  C   UNL     1      -1.768  10.707  18.517  0.00  0.00    +0.000 A 
ATOM     26  C   UNL     1      -1.286   9.882  17.494  0.00  0.00    +0.000 A 
ATOM     27  C   UNL     1      -1.991   9.751  16.299  0.00  0.00    +0.000 A 
ATOM     28  C   UNL     1      -3.194  10.439  16.111  0.00  0.00    +0.000 A 
ATOM     29 CL   UNL     1      -4.015  10.228  14.605  0.00  0.00    +0.000 Cl
ATOM     30  C   UNL     1      -3.691  11.256  17.131  0.00  0.00    +0.000 A 
ATOM     31 CL   UNL     1      -5.177  12.127  16.979  0.00  0.00    +0.000 Cl
ATOM     32  C   UNL     1      -2.981  11.387  18.328  0.00  0.00    +0.000 A 
ENDBRANCH  24  25
ENDBRANCH  23  24
ENDBRANCH  22  23
ENDBRANCH   4  22
TORSDOF 9
ENDMDL
MODEL 6
REMARK VINA RESULT:      -7.6      5.134      9.248
REMARK  Name = 
REMARK  9 active torsions:
REMARK  status: ('A' for Active; 'I' for Inactive)
REMARK    1  A    between atoms: C_2  and  O_3
REMARK    2  A    between atoms: C_2  and  C_4
REMARK    3  A    between atoms: C_6  and  N_7
REMARK    4  A    between atoms: C_12  and  N_13
REMARK    5  A    between atoms: N_13  and  C_14
REMARK    6  A    between atoms: C_17  and  C_18
REMARK    7  A    between atoms: C_18  and  C_19
REMARK    8  A    between atoms: C_19  and  C_20
REMARK    9  A    between atoms: C_20  and  C_21
REMARK                            x       y       z     vdW  Elec       q    Type
REMARK                         _______ _______ _______ _____ _____    ______ ____
ROOT
ATOM      1  C   UNL     1       3.511   5.420  19.448  0.00  0.00    +0.000 A 
ATOM      2  C   UNL     1       2.677   4.979  20.482  0.00  0.00    +0.000 A 
ATOM      3  C   UNL     1       1.656   5.799  20.978  0.00  0.00    +0.000 A 
ATOM      4  C   UNL     1       1.465   7.090  20.466  0.00  0.00    +0.000 A 
ATOM      5  C   UNL     1       2.287   7.531  19.428  0.00  0.00    +0.000 A 
ATOM      6  C   UNL     1       3.324   6.722  18.963  0.00  0.00    +0.000 A 
ENDROOT
BRANCH   1   7
ATOM      7  N   UNL     1       4.594   4.590  19.033  0.00  0.00    +0.000 N 
ATOM      8  H   UNL     1       5.278   4.609  19.802  0.00  0.00    +0.000 HD
BRANCH   7  14
ATOM      9  C   UNL     1       6.552   5.246  17.637  0.00  0.00    +0.000 A 
ATOM     10  C   UNL     1       7.174   5.309  16.373  0.00  0.00    +0.000 A 
ATOM     11  C   UNL     1       6.544   4.754  15.254  0.00  0.00    +0.000 A 
ATOM     12  C   UNL     1       5.338   4.075  15.396  0.00  0.00    +0.000 A 
ATOM     13  C   UNL     1       4.755   3.972  16.657  0.00  0.00    +0.000 A 
ATOM     14  C   UNL     1       5.279   4.642  17.779  0.00  0.00    +0.000 A 
BRANCH  11  15
ATOM     15  N   UNL     1       7.156   4.854  13.924  0.00  0.00    +0.000 N 
ATOM     16  O   UNL     1       8.077   5.671  13.778  0.00  0.00    +0.000 OA
ATOM     17  O   UNL     1       6.716   4.120  13.029  0.00  0.00    +0.000 OA
ENDBRANCH  11  15
BRANCH   9  19
ATOM     18  O   UNL     1       8.034   6.825  18.626  0.00  0.00    +0.000 OA
ATOM     19  C   UNL     1       7.309   5.851  18.763  0.00  0.00    +0.000 C 
BRANCH  19  20
ATOM     20  O   UNL     1       7.167   5.211  19.943  0.00  0.00    +0.000 OA
ATOM     21  H   UNL     1       8.016   5.036  20.405  0.00  0.00    +0.000 HD
ENDBRANCH  19  20
ENDBRANCH   9  19
ENDBRANCH   7  14
ENDBRANCH   1   7
BRANCH   4  22
ATOM     22  C   UNL     1       0.463   8.037  21.081  0.00  0.00    +0.000 C 
BRANCH  22  23
ATOM     23  C   UNL     1       1.100   8.979  22.111  0.00  0.00    +0.000 C 
BRANCH  23  24
ATOM     24  C   UNL     1       0.086   9.560  23.104  0.00  0.00    +0.000 C 
BRANCH  24  25
ATOM     25  C   UNL     1      -0.553  10.820  22.571  0.00  0.00    +0.000 A 
ATOM     26  C   UNL     1      -1.696  11.355  23.175  0.00  0.00    +0.000 A 
ATOM     27  C   UNL     1      -2.274  12.526  22.686  0.00  0.00    +0.000 A 
ATOM     28  C   UNL     1      -1.711  13.185  21.588  0.00  0.00    +0.000 A 
ATOM     29 CL   UNL     1      -2.479  14.632  21.037  0.00  0.00    +0.000 Cl
ATOM     30  C   UNL     1      -0.561  12.666  20.984  0.00  0.00    +0.000 A 
ATOM     31 CL   UNL     1       0.200  13.430  19.633  0.00  0.00    +0.000 Cl
ATOM     32  C   UNL     1       0.014  11.490  21.476  0.00  0.00    +0.000 A 
ENDBRANCH  24  25
ENDBRANCH  23  24
ENDBRANCH  22  23
ENDBRANCH   4  22
TORSDOF 9
ENDMDL
MODEL 7
REMARK VINA RESULT:      -7.6      1.513      2.255
REMARK  Name = 
REMARK  9 active torsions:
REMARK  status: ('A' for Active; 'I' for Inactive)
REMARK    1  A    between atoms: C_2  and  O_3
REMARK    2  A    between atoms: C_2  and  C_4
REMARK    3  A    between atoms: C_6  and  N_7
REMARK    4  A    between atoms: C_12  and  N_13
REMARK    5  A    between atoms: N_13  and  C_14
REMARK    6  A    between atoms: C_17  and  C_18
REMARK    7  A    between atoms: C_18  and  C_19
REMARK    8  A    between atoms: C_19  and  C_20
REMARK    9  A    between atoms: C_20  and  C_21
REMARK                            x       y       z     vdW  Elec       q    Type
REMARK                         _______ _______ _______ _____ _____    ______ ____
ROOT
ATOM      1  C   UNL     1       1.754   6.779  19.880  0.00  0.00    +0.000 A 
ATOM      2  C   UNL     1       1.923   6.382  18.549  0.00  0.00    +0.000 A 
ATOM      3  C   UNL     1       1.762   5.041  18.176  0.00  0.00    +0.000 A 
ATOM      4  C   UNL     1       1.454   4.066  19.134  0.00  0.00    +0.000 A 
ATOM      5  C   UNL     1       1.274   4.459  20.461  0.00  0.00    +0.000 A 
ATOM      6  C   UNL     1       1.470   5.790  20.831  0.00  0.00    +0.000 A 
ENDROOT
BRANCH   1   7
ATOM      7  N   UNL     1       2.014   8.137  20.233  0.00  0.00    +0.000 N 
ATOM      8  H   UNL     1       2.440   8.110  21.171  0.00  0.00    +0.000 HD
BRANCH   7  14
ATOM      9  C   UNL     1       0.608   9.895  21.303  0.00  0.00    +0.000 A 
ATOM     10  C   UNL     1      -0.325  10.946  21.178  0.00  0.00    +0.000 A 
ATOM     11  C   UNL     1      -0.754  11.354  19.910  0.00  0.00    +0.000 A 
ATOM     12  C   UNL     1      -0.209  10.775  18.768  0.00  0.00    +0.000 A 
ATOM     13  C   UNL     1       0.751   9.773  18.899  0.00  0.00    +0.000 A 
ATOM     14  C   UNL     1       1.099   9.232  20.152  0.00  0.00    +0.000 A 
BRANCH  11  15
ATOM     15  N   UNL     1      -1.759  12.413  19.764  0.00  0.00    +0.000 N 
ATOM     16  O   UNL     1      -1.504  13.516  20.268  0.00  0.00    +0.000 OA
ATOM     17  O   UNL     1      -2.798  12.141  19.150  0.00  0.00    +0.000 OA
ENDBRANCH  11  15
BRANCH   9  19
ATOM     18  O   UNL     1       0.249   9.634  23.642  0.00  0.00    +0.000 OA
ATOM     19  C   UNL     1       1.010   9.548  22.690  0.00  0.00    +0.000 C 
BRANCH  19  20
ATOM     20  O   UNL     1       2.300   9.171  22.823  0.00  0.00    +0.000 OA
ATOM     21  H   UNL     1       2.686   8.781  22.009  0.00  0.00    +0.000 HD
ENDBRANCH  19  20
ENDBRANCH   9  19
ENDBRANCH   7  14
ENDBRANCH   1   7
BRANCH   4  22
ATOM     22  C   UNL     1       1.414   2.601  18.776  0.00  0.00    +0.000 C 
BRANCH  22  23
ATOM     23  C   UNL     1       2.768   1.909  18.978  0.00  0.00    +0.000 C 
BRANCH  23  24
ATOM     24  C   UNL     1       3.667   1.969  17.736  0.00  0.00    +0.000 C 
BRANCH  24  25
ATOM     25  C   UNL     1       4.605   3.151  17.787  0.00  0.00    +0.000 A 
ATOM     26  C   UNL     1       4.926   3.759  19.005  0.00  0.00    +0.000 A 
ATOM     27  C   UNL     1       5.804   4.842  19.047  0.00  0.00    +0.000 A 
ATOM     28  C   UNL     1       6.379   5.329  17.869  0.00  0.00    +0.000 A 
ATOM     29 CL   UNL     1       7.458   6.673  17.995  0.00  0.00    +0.000 Cl
ATOM     30  C   UNL     1       6.074   4.722  16.647  0.00  0.00    +0.000 A 
ATOM     31 CL   UNL     1       6.756   5.257  15.151  0.00  0.00    +0.000 Cl
ATOM     32  C   UNL     1       5.193   3.637  16.608  0.00  0.00    +0.000 A 
ENDBRANCH  24  25
ENDBRANCH  23  24
ENDBRANCH  22  23
ENDBRANCH   4  22
TORSDOF 9
ENDMDL
MODEL 8
REMARK VINA RESULT:      -7.6      4.143      6.198
REMARK  Name = 
REMARK  9 active torsions:
REMARK  status: ('A' for Active; 'I' for Inactive)
REMARK    1  A    between atoms: C_2  and  O_3
REMARK    2  A    between atoms: C_2  and  C_4
REMARK    3  A    between atoms: C_6  and  N_7
REMARK    4  A    between atoms: C_12  and  N_13
REMARK    5  A    between atoms: N_13  and  C_14
REMARK    6  A    between atoms: C_17  and  C_18
REMARK    7  A    between atoms: C_18  and  C_19
REMARK    8  A    between atoms: C_19  and  C_20
REMARK    9  A    between atoms: C_20  and  C_21
REMARK                            x       y       z     vdW  Elec       q    Type
REMARK                         _______ _______ _______ _____ _____    ______ ____
ROOT
ATOM      1  C   UNL     1      -2.116  11.742  18.841  0.00  0.00    +0.000 A 
ATOM      2  C   UNL     1      -2.016  10.443  18.329  0.00  0.00    +0.000 A 
ATOM      3  C   UNL     1      -0.775   9.799  18.252  0.00  0.00    +0.000 A 
ATOM      4  C   UNL     1       0.396  10.452  18.660  0.00  0.00    +0.000 A 
ATOM      5  C   UNL     1       0.300  11.743  19.181  0.00  0.00    +0.000 A 
ATOM      6  C   UNL     1      -0.935  12.391  19.223  0.00  0.00    +0.000 A 
ENDROOT
BRANCH   1   7
ATOM      7  N   UNL     1      -3.385  12.395  18.821  0.00  0.00    +0.000 N 
ATOM      8  H   UNL     1      -3.200  13.364  18.524  0.00  0.00    +0.000 HD
BRANCH   7  14
ATOM      9  C   UNL     1      -5.643  11.802  19.692  0.00  0.00    +0.000 A 
ATOM     10  C   UNL     1      -6.594  11.852  20.733  0.00  0.00    +0.000 A 
ATOM     11  C   UNL     1      -6.271  12.466  21.948  0.00  0.00    +0.000 A 
ATOM     12  C   UNL     1      -4.989  12.964  22.160  0.00  0.00    +0.000 A 
ATOM     13  C   UNL     1      -4.039  12.863  21.146  0.00  0.00    +0.000 A 
ATOM     14  C   UNL     1      -4.365  12.389  19.861  0.00  0.00    +0.000 A 
BRANCH  11  15
ATOM     15  N   UNL     1      -7.265  12.570  23.022  0.00  0.00    +0.000 N 
ATOM     16  O   UNL     1      -7.393  11.597  23.779  0.00  0.00    +0.000 OA
ATOM     17  O   UNL     1      -7.916  13.619  23.107  0.00  0.00    +0.000 OA
ENDBRANCH  11  15
BRANCH   9  19
ATOM     18  O   UNL     1      -5.538  11.295  17.368  0.00  0.00    +0.000 OA
ATOM     19  C   UNL     1      -6.079  11.115  18.449  0.00  0.00    +0.000 C 
BRANCH  19  20
ATOM     20  O   UNL     1      -7.152  10.309  18.600  0.00  0.00    +0.000 OA
ATOM     21  H   UNL     1      -7.606  10.411  19.465  0.00  0.00    +0.000 HD
ENDBRANCH  19  20
ENDBRANCH   9  19
ENDBRANCH   7  14
ENDBRANCH   1   7
BRANCH   4  22
ATOM     22  C   UNL     1       1.755   9.827  18.454  0.00  0.00    +0.000 C 
BRANCH  22  23
ATOM     23  C   UNL     1       1.683   8.507  17.675  0.00  0.00    +0.000 C 
BRANCH  23  24
ATOM     24  C   UNL     1       2.923   7.625  17.870  0.00  0.00    +0.000 C 
BRANCH  24  25
ATOM     25  C   UNL     1       2.587   6.349  18.604  0.00  0.00    +0.000 A 
ATOM     26  C   UNL     1       2.210   6.375  19.952  0.00  0.00    +0.000 A 
ATOM     27  C   UNL     1       1.889   5.195  20.620  0.00  0.00    +0.000 A 
ATOM     28  C   UNL     1       1.932   3.969  19.948  0.00  0.00    +0.000 A 
ATOM     29 CL   UNL     1       1.520   2.547  20.839  0.00  0.00    +0.000 Cl
ATOM     30  C   UNL     1       2.295   3.932  18.598  0.00  0.00    +0.000 A 
ATOM     31 CL   UNL     1       2.359   2.459  17.695  0.00  0.00    +0.000 Cl
ATOM     32  C   UNL     1       2.619   5.118  17.931  0.00  0.00    +0.000 A 
ENDBRANCH  24  25
ENDBRANCH  23  24
ENDBRANCH  22  23
ENDBRANCH   4  22
TORSDOF 9
ENDMDL
MODEL 9
REMARK VINA RESULT:      -7.6      0.794      1.215
REMARK  Name = 
REMARK  9 active torsions:
REMARK  status: ('A' for Active; 'I' for Inactive)
REMARK    1  A    between atoms: C_2  and  O_3
REMARK    2  A    between atoms: C_2  and  C_4
REMARK    3  A    between atoms: C_6  and  N_7
REMARK    4  A    between atoms: C_12  and  N_13
REMARK    5  A    between atoms: N_13  and  C_14
REMARK    6  A    between atoms: C_17  and  C_18
REMARK    7  A    between atoms: C_18  and  C_19
REMARK    8  A    between atoms: C_19  and  C_20
REMARK    9  A    between atoms: C_20  and  C_21
REMARK                            x       y       z     vdW  Elec       q    Type
REMARK                         _______ _______ _______ _____ _____    ______ ____
ROOT
ATOM      1  C   UNL     1       2.001   7.066  19.599  0.00  0.00    +0.000 A 
ATOM      2  C   UNL     1       1.783   6.169  20.651  0.00  0.00    +0.000 A 
ATOM      3  C   UNL     1       1.584   4.806  20.398  0.00  0.00    +0.000 A 
ATOM      4  C   UNL     1       1.573   4.316  19.086  0.00  0.00    +0.000 A 
ATOM      5  C   UNL     1       1.801   5.205  18.034  0.00  0.00    +0.000 A 
ATOM      6  C   UNL     1       1.964   6.567  18.290  0.00  0.00    +0.000 A 
ENDROOT
BRANCH   1   7
ATOM      7  N   UNL     1       2.110   8.459  19.891  0.00  0.00    +0.000 N 
ATOM      8  H   UNL     1       3.065   8.599  20.249  0.00  0.00    +0.000 HD
BRANCH   7  14
ATOM      9  C   UNL     1       0.598  10.424  20.132  0.00  0.00    +0.000 A 
ATOM     10  C   UNL     1      -0.275  11.194  20.930  0.00  0.00    +0.000 A 
ATOM     11  C   UNL     1      -0.578  10.783  22.233  0.00  0.00    +0.000 A 
ATOM     12  C   UNL     1      -0.077   9.580  22.720  0.00  0.00    +0.000 A 
ATOM     13  C   UNL     1       0.743   8.800  21.907  0.00  0.00    +0.000 A 
ATOM     14  C   UNL     1       1.191   9.247  20.649  0.00  0.00    +0.000 A 
BRANCH  11  15
ATOM     15  N   UNL     1      -1.446  11.596  23.091  0.00  0.00    +0.000 N 
ATOM     16  O   UNL     1      -1.057  12.737  23.382  0.00  0.00    +0.000 OA
ATOM     17  O   UNL     1      -2.511  11.096  23.475  0.00  0.00    +0.000 OA
ENDBRANCH  11  15
BRANCH   9  19
ATOM     18  O   UNL     1       1.055  12.118  18.521  0.00  0.00    +0.000 OA
ATOM     19  C   UNL     1       0.842  10.938  18.760  0.00  0.00    +0.000 C 
BRANCH  19  20
ATOM     20  O   UNL     1       0.766  10.003  17.788  0.00  0.00    +0.000 OA
ATOM     21  H   UNL     1       0.723   9.082  18.127  0.00  0.00    +0.000 HD
ENDBRANCH  19  20
ENDBRANCH   9  19
ENDBRANCH   7  14
ENDBRANCH   1   7
BRANCH   4  22
ATOM     22  C   UNL     1       1.223   2.879  18.788  0.00  0.00    +0.000 C 
BRANCH  22  23
ATOM     23  C   UNL     1       2.220   2.218  17.827  0.00  0.00    +0.000 C 
BRANCH  23  24
ATOM     24  C   UNL     1       3.621   2.057  18.429  0.00  0.00    +0.000 C 
BRANCH  24  25
ATOM     25  C   UNL     1       4.482   3.268  18.163  0.00  0.00    +0.000 A 
ATOM     26  C   UNL     1       5.101   3.953  19.215  0.00  0.00    +0.000 A 
ATOM     27  C   UNL     1       5.905   5.063  18.962  0.00  0.00    +0.000 A 
ATOM     28  C   UNL     1       6.109   5.502  17.649  0.00  0.00    +0.000 A 
ATOM     29 CL   UNL     1       7.119   6.883  17.410  0.00  0.00    +0.000 Cl
ATOM     30  C   UNL     1       5.506   4.818  16.589  0.00  0.00    +0.000 A 
ATOM     31 CL   UNL     1       5.721   5.290  14.940  0.00  0.00    +0.000 Cl
ATOM     32  C   UNL     1       4.698   3.706  16.847  0.00  0.00    +0.000 A 
ENDBRANCH  24  25
ENDBRANCH  23  24
ENDBRANCH  22  23
ENDBRANCH   4  22
TORSDOF 9
ENDMDL
