MODEL 1
REMARK VINA RESULT:      -6.7      0.000      0.000
REMARK  Name = 
REMARK  5 active torsions:
REMARK  status: ('A' for Active; 'I' for Inactive)
REMARK    1  A    between atoms: C_1  and  O_2
REMARK    2  A    between atoms: O_2  and  C_3
REMARK    3  A    between atoms: C_6  and  N_7
REMARK    4  A    between atoms: N_7  and  O_8
REMARK    5  A    between atoms: C_11  and  C_12
REMARK                            x       y       z     vdW  Elec       q    Type
REMARK                         _______ _______ _______ _____ _____    ______ ____
ROOT
ATOM      1  N   UNL     1       5.025   4.018  17.902  0.00  0.00    +0.000 N 
ATOM      2  C   UNL     1       5.937   4.221  16.900  0.00  0.00    +0.000 A 
ATOM      3  C   UNL     1       5.615   4.340  15.526  0.00  0.00    +0.000 A 
ATOM      4  C   UNL     1       6.813   4.581  14.904  0.00  0.00    +0.000 A 
ATOM      5  C   UNL     1       7.213   4.828  13.507  0.00  0.00    +0.000 C 
ATOM      6  O   UNL     1       7.800   4.599  15.834  0.00  0.00    +0.000 OA
ATOM      7  N   UNL     1       7.252   4.404  17.087  0.00  0.00    +0.000 NA
ENDROOT
BRANCH   1  11
ATOM      8  C   UNL     1       2.039   2.191  18.994  0.00  0.00    +0.000 C 
ATOM      9  C   UNL     1       1.609   3.455  18.323  0.00  0.00    +0.000 C 
ATOM     10  C   UNL     1       2.600   4.002  17.611  0.00  0.00    +0.000 C 
ATOM     11  C   UNL     1       3.847   3.178  17.686  0.00  0.00    +0.000 C 
ATOM     12  C   UNL     1       3.566   2.235  18.863  0.00  0.00    +0.000 C 
BRANCH   8  14
ATOM     13  C   UNL     1       2.353   3.069  21.177  0.00  0.00    +0.000 C 
ATOM     14  O   UNL     1       1.583   2.219  20.339  0.00  0.00    +0.000 OA
ENDBRANCH   8  14
ENDBRANCH   1  11
BRANCH   1  15
ATOM     15  O   UNL     1       5.520   3.944  19.223  0.00  0.00    +0.000 OA
ATOM     16  H   UNL     1       5.680   4.880  19.457  0.00  0.00    +0.000 HD
ENDBRANCH   1  15
TORSDOF 3
ENDMDL
MODEL 2
REMARK VINA RESULT:      -6.4      2.276      2.391
REMARK  Name = 
REMARK  5 active torsions:
REMARK  status: ('A' for Active; 'I' for Inactive)
REMARK    1  A    between atoms: C_1  and  O_2
REMARK    2  A    between atoms: O_2  and  C_3
REMARK    3  A    between atoms: C_6  and  N_7
REMARK    4  A    between atoms: N_7  and  O_8
REMARK    5  A    between atoms: C_11  and  C_12
REMARK                            x       y       z     vdW  Elec       q    Type
REMARK                         _______ _______ _______ _____ _____    ______ ____
ROOT
ATOM      1  N   UNL     1       5.066   4.166  18.888  0.00  0.00    +0.000 N 
ATOM      2  C   UNL     1       6.098   5.038  18.664  0.00  0.00    +0.000 A 
ATOM      3  C   UNL     1       5.990   6.247  17.934  0.00  0.00    +0.000 A 
ATOM      4  C   UNL     1       7.237   6.814  18.005  0.00  0.00    +0.000 A 
ATOM      5  C   UNL     1       7.825   8.067  17.502  0.00  0.00    +0.000 C 
ATOM      6  O   UNL     1       8.052   6.002  18.723  0.00  0.00    +0.000 OA
ATOM      7  N   UNL     1       7.336   4.904  19.162  0.00  0.00    +0.000 NA
ENDROOT
BRANCH   1  11
ATOM      8  C   UNL     1       1.828   2.927  17.694  0.00  0.00    +0.000 C 
ATOM      9  C   UNL     1       1.749   4.412  17.840  0.00  0.00    +0.000 C 
ATOM     10  C   UNL     1       2.961   4.967  17.943  0.00  0.00    +0.000 C 
ATOM     11  C   UNL     1       4.043   3.935  17.868  0.00  0.00    +0.000 C 
ATOM     12  C   UNL     1       3.280   2.622  18.078  0.00  0.00    +0.000 C 
BRANCH   8  14
ATOM     13  C   UNL     1       0.866   2.916  19.864  0.00  0.00    +0.000 C 
ATOM     14  O   UNL     1       0.872   2.339  18.566  0.00  0.00    +0.000 OA
ENDBRANCH   8  14
ENDBRANCH   1  11
BRANCH   1  15
ATOM     15  O   UNL     1       5.347   3.015  19.657  0.00  0.00    +0.000 OA
ATOM     16  H   UNL     1       4.595   2.971  20.281  0.00  0.00    +0.000 HD
ENDBRANCH   1  15
TORSDOF 3
ENDMDL
MODEL 3
REMARK VINA RESULT:      -6.4      1.233      1.290
REMARK  Name = 
REMARK  5 active torsions:
REMARK  status: ('A' for Active; 'I' for Inactive)
REMARK    1  A    between atoms: C_1  and  O_2
REMARK    2  A    between atoms: O_2  and  C_3
REMARK    3  A    between atoms: C_6  and  N_7
REMARK    4  A    between atoms: N_7  and  O_8
REMARK    5  A    between atoms: C_11  and  C_12
REMARK                            x       y       z     vdW  Elec       q    Type
REMARK                         _______ _______ _______ _____ _____    ______ ____
ROOT
ATOM      1  N   UNL     1       5.168   4.989  17.086  0.00  0.00    +0.000 N 
ATOM      2  C   UNL     1       5.975   4.954  15.980  0.00  0.00    +0.000 A 
ATOM      3  C   UNL     1       5.658   4.290  14.769  0.00  0.00    +0.000 A 
ATOM      4  C   UNL     1       6.713   4.557  13.935  0.00  0.00    +0.000 A 
ATOM      5  C   UNL     1       7.031   4.211  12.539  0.00  0.00    +0.000 C 
ATOM      6  O   UNL     1       7.617   5.323  14.595  0.00  0.00    +0.000 OA
ATOM      7  N   UNL     1       7.145   5.598  15.865  0.00  0.00    +0.000 NA
ENDROOT
BRANCH   1  11
ATOM      8  C   UNL     1       3.150   2.992  19.407  0.00  0.00    +0.000 C 
ATOM      9  C   UNL     1       2.235   3.687  18.453  0.00  0.00    +0.000 C 
ATOM     10  C   UNL     1       2.891   4.156  17.386  0.00  0.00    +0.000 C 
ATOM     11  C   UNL     1       4.352   3.833  17.457  0.00  0.00    +0.000 C 
ATOM     12  C   UNL     1       4.541   3.417  18.921  0.00  0.00    +0.000 C 
BRANCH   8  14
ATOM     13  C   UNL     1       1.465   3.349  21.040  0.00  0.00    +0.000 C 
ATOM     14  O   UNL     1       2.847   3.434  20.723  0.00  0.00    +0.000 OA
ENDBRANCH   8  14
ENDBRANCH   1  11
BRANCH   1  15
ATOM     15  O   UNL     1       5.634   5.715  18.204  0.00  0.00    +0.000 OA
ATOM     16  H   UNL     1       5.748   6.621  17.853  0.00  0.00    +0.000 HD
ENDBRANCH   1  15
TORSDOF 3
ENDMDL
MODEL 4
REMARK VINA RESULT:      -6.3      1.643      1.716
REMARK  Name = 
REMARK  5 active torsions:
REMARK  status: ('A' for Active; 'I' for Inactive)
REMARK    1  A    between atoms: C_1  and  O_2
REMARK    2  A    between atoms: O_2  and  C_3
REMARK    3  A    between atoms: C_6  and  N_7
REMARK    4  A    between atoms: N_7  and  O_8
REMARK    5  A    between atoms: C_11  and  C_12
REMARK                            x       y       z     vdW  Elec       q    Type
REMARK                         _______ _______ _______ _____ _____    ______ ____
ROOT
ATOM      1  N   UNL     1       5.427   5.452  18.408  0.00  0.00    +0.000 N 
ATOM      2  C   UNL     1       6.183   5.134  17.311  0.00  0.00    +0.000 A 
ATOM      3  C   UNL     1       5.736   5.218  15.970  0.00  0.00    +0.000 A 
ATOM      4  C   UNL     1       6.822   4.858  15.214  0.00  0.00    +0.000 A 
ATOM      5  C   UNL     1       7.075   4.751  13.767  0.00  0.00    +0.000 C 
ATOM      6  O   UNL     1       7.858   4.566  16.039  0.00  0.00    +0.000 OA
ATOM      7  N   UNL     1       7.471   4.765  17.350  0.00  0.00    +0.000 NA
ENDROOT
BRANCH   1  11
ATOM      8  C   UNL     1       2.305   4.441  20.045  0.00  0.00    +0.000 C 
ATOM      9  C   UNL     1       2.293   5.925  19.865  0.00  0.00    +0.000 C 
ATOM     10  C   UNL     1       3.221   6.327  18.991  0.00  0.00    +0.000 C 
ATOM     11  C   UNL     1       3.992   5.168  18.439  0.00  0.00    +0.000 C 
ATOM     12  C   UNL     1       3.632   4.027  19.399  0.00  0.00    +0.000 C 
BRANCH   8  14
ATOM     13  C   UNL     1       2.209   2.766  21.725  0.00  0.00    +0.000 C 
ATOM     14  O   UNL     1       2.234   4.157  21.435  0.00  0.00    +0.000 OA
ENDBRANCH   8  14
ENDBRANCH   1  11
BRANCH   1  15
ATOM     15  O   UNL     1       6.039   5.329  19.675  0.00  0.00    +0.000 OA
ATOM     16  H   UNL     1       6.083   6.252  19.995  0.00  0.00    +0.000 HD
ENDBRANCH   1  15
TORSDOF 3
ENDMDL
MODEL 5
REMARK VINA RESULT:      -6.1      1.209      1.216
REMARK  Name = 
REMARK  5 active torsions:
REMARK  status: ('A' for Active; 'I' for Inactive)
REMARK    1  A    between atoms: C_1  and  O_2
REMARK    2  A    between atoms: O_2  and  C_3
REMARK    3  A    between atoms: C_6  and  N_7
REMARK    4  A    between atoms: N_7  and  O_8
REMARK    5  A    between atoms: C_11  and  C_12
REMARK                            x       y       z     vdW  Elec       q    Type
REMARK                         _______ _______ _______ _____ _____    ______ ____
ROOT
ATOM      1  N   UNL     1       3.878   4.991  17.673  0.00  0.00    +0.000 N 
ATOM      2  C   UNL     1       4.958   5.171  16.851  0.00  0.00    +0.000 A 
ATOM      3  C   UNL     1       5.142   4.522  15.605  0.00  0.00    +0.000 A 
ATOM      4  C   UNL     1       6.316   5.032  15.113  0.00  0.00    +0.000 A 
ATOM      5  C   UNL     1       7.084   4.827  13.873  0.00  0.00    +0.000 C 
ATOM      6  O   UNL     1       6.819   5.924  16.003  0.00  0.00    +0.000 OA
ATOM      7  N   UNL     1       5.957   6.035  17.077  0.00  0.00    +0.000 NA
ENDROOT
BRANCH   1  11
ATOM      8  C   UNL     1       2.113   2.350  19.506  0.00  0.00    +0.000 C 
ATOM      9  C   UNL     1       1.136   3.054  18.621  0.00  0.00    +0.000 C 
ATOM     10  C   UNL     1       1.750   3.791  17.689  0.00  0.00    +0.000 C 
ATOM     11  C   UNL     1       3.239   3.680  17.798  0.00  0.00    +0.000 C 
ATOM     12  C   UNL     1       3.437   3.053  19.184  0.00  0.00    +0.000 C 
BRANCH   8  14
ATOM     13  C   UNL     1       2.145   3.724  21.441  0.00  0.00    +0.000 C 
ATOM     14  O   UNL     1       1.695   2.511  20.854  0.00  0.00    +0.000 OA
ENDBRANCH   8  14
ENDBRANCH   1  11
BRANCH   1  15
ATOM     15  O   UNL     1       3.846   5.735  18.873  0.00  0.00    +0.000 OA
ATOM     16  H   UNL     1       3.808   6.662  18.563  0.00  0.00    +0.000 HD
ENDBRANCH   1  15
TORSDOF 3
ENDMDL
MODEL 6
REMARK VINA RESULT:      -6.1      1.916      2.326
REMARK  Name = 
REMARK  5 active torsions:
REMARK  status: ('A' for Active; 'I' for Inactive)
REMARK    1  A    between atoms: C_1  and  O_2
REMARK    2  A    between atoms: O_2  and  C_3
REMARK    3  A    between atoms: C_6  and  N_7
REMARK    4  A    between atoms: N_7  and  O_8
REMARK    5  A    between atoms: C_11  and  C_12
REMARK                            x       y       z     vdW  Elec       q    Type
REMARK                         _______ _______ _______ _____ _____    ______ ____
ROOT
ATOM      1  N   UNL     1       4.674   4.104  18.086  0.00  0.00    +0.000 N 
ATOM      2  C   UNL     1       5.685   4.925  17.662  0.00  0.00    +0.000 A 
ATOM      3  C   UNL     1       5.893   6.251  18.115  0.00  0.00    +0.000 A 
ATOM      4  C   UNL     1       7.030   6.668  17.471  0.00  0.00    +0.000 A 
ATOM      5  C   UNL     1       7.823   7.909  17.490  0.00  0.00    +0.000 C 
ATOM      6  O   UNL     1       7.480   5.667  16.674  0.00  0.00    +0.000 OA
ATOM      7  N   UNL     1       6.658   4.566  16.812  0.00  0.00    +0.000 NA
ENDROOT
BRANCH   1  11
ATOM      8  C   UNL     1       1.299   3.932  19.509  0.00  0.00    +0.000 C 
ATOM      9  C   UNL     1       2.155   4.768  20.404  0.00  0.00    +0.000 C 
ATOM     10  C   UNL     1       3.282   5.153  19.797  0.00  0.00    +0.000 C 
ATOM     11  C   UNL     1       3.348   4.642  18.392  0.00  0.00    +0.000 C 
ATOM     12  C   UNL     1       2.251   3.571  18.363  0.00  0.00    +0.000 C 
BRANCH   8  14
ATOM     13  C   UNL     1       1.457   2.684  21.522  0.00  0.00    +0.000 C 
ATOM     14  O   UNL     1       0.843   2.806  20.247  0.00  0.00    +0.000 OA
ENDBRANCH   8  14
ENDBRANCH   1  11
BRANCH   1  15
ATOM     15  O   UNL     1       4.627   2.801  17.543  0.00  0.00    +0.000 OA
ATOM     16  H   UNL     1       5.204   2.864  16.755  0.00  0.00    +0.000 HD
ENDBRANCH   1  15
TORSDOF 3
ENDMDL
MODEL 7
REMARK VINA RESULT:      -6.1      1.301      1.391
REMARK  Name = 
REMARK  5 active torsions:
REMARK  status: ('A' for Active; 'I' for Inactive)
REMARK    1  A    between atoms: C_1  and  O_2
REMARK    2  A    between atoms: O_2  and  C_3
REMARK    3  A    between atoms: C_6  and  N_7
REMARK    4  A    between atoms: N_7  and  O_8
REMARK    5  A    between atoms: C_11  and  C_12
REMARK                            x       y       z     vdW  Elec       q    Type
REMARK                         _______ _______ _______ _____ _____    ______ ____
ROOT
ATOM      1  N   UNL     1       4.886   5.379  17.030  0.00  0.00    +0.000 N 
ATOM      2  C   UNL     1       5.850   5.228  16.069  0.00  0.00    +0.000 A 
ATOM      3  C   UNL     1       5.597   4.905  14.713  0.00  0.00    +0.000 A 
ATOM      4  C   UNL     1       6.832   4.906  14.116  0.00  0.00    +0.000 A 
ATOM      5  C   UNL     1       7.305   4.682  12.739  0.00  0.00    +0.000 C 
ATOM      6  O   UNL     1       7.774   5.200  15.045  0.00  0.00    +0.000 OA
ATOM      7  N   UNL     1       7.161   5.431  16.262  0.00  0.00    +0.000 NA
ENDROOT
BRANCH   1  11
ATOM      8  C   UNL     1       2.674   2.793  18.396  0.00  0.00    +0.000 C 
ATOM      9  C   UNL     1       2.079   4.133  18.683  0.00  0.00    +0.000 C 
ATOM     10  C   UNL     1       2.636   5.095  17.940  0.00  0.00    +0.000 C 
ATOM     11  C   UNL     1       3.686   4.541  17.027  0.00  0.00    +0.000 C 
ATOM     12  C   UNL     1       3.938   3.142  17.602  0.00  0.00    +0.000 C 
BRANCH   8  14
ATOM     13  C   UNL     1       4.249   2.385  20.125  0.00  0.00    +0.000 C 
ATOM     14  O   UNL     1       2.938   2.144  19.632  0.00  0.00    +0.000 OA
ENDBRANCH   8  14
ENDBRANCH   1  11
BRANCH   1  15
ATOM     15  O   UNL     1       5.315   5.722  18.330  0.00  0.00    +0.000 OA
ATOM     16  H   UNL     1       6.127   5.190  18.447  0.00  0.00    +0.000 HD
ENDBRANCH   1  15
TORSDOF 3
ENDMDL
MODEL 8
REMARK VINA RESULT:      -6.1      2.361      2.861
REMARK  Name = 
REMARK  5 active torsions:
REMARK  status: ('A' for Active; 'I' for Inactive)
REMARK    1  A    between atoms: C_1  and  O_2
REMARK    2  A    between atoms: O_2  and  C_3
REMARK    3  A    between atoms: C_6  and  N_7
REMARK    4  A    between atoms: N_7  and  O_8
REMARK    5  A    between atoms: C_11  and  C_12
REMARK                            x       y       z     vdW  Elec       q    Type
REMARK                         _______ _______ _______ _____ _____    ______ ____
ROOT
ATOM      1  N   UNL     1       5.531   4.545  17.789  0.00  0.00    +0.000 N 
ATOM      2  C   UNL     1       6.365   5.578  17.453  0.00  0.00    +0.000 A 
ATOM      3  C   UNL     1       6.664   6.681  18.290  0.00  0.00    +0.000 A 
ATOM      4  C   UNL     1       7.565   7.430  17.577  0.00  0.00    +0.000 A 
ATOM      5  C   UNL     1       8.305   8.675  17.845  0.00  0.00    +0.000 C 
ATOM      6  O   UNL     1       7.793   6.829  16.382  0.00  0.00    +0.000 OA
ATOM      7  N   UNL     1       7.066   5.656  16.313  0.00  0.00    +0.000 NA
ENDROOT
BRANCH   1  11
ATOM      8  C   UNL     1       1.991   4.101  18.635  0.00  0.00    +0.000 C 
ATOM      9  C   UNL     1       2.815   3.291  19.583  0.00  0.00    +0.000 C 
ATOM     10  C   UNL     1       4.102   3.655  19.559  0.00  0.00    +0.000 C 
ATOM     11  C   UNL     1       4.334   4.779  18.598  0.00  0.00    +0.000 C 
ATOM     12  C   UNL     1       3.047   4.791  17.764  0.00  0.00    +0.000 C 
BRANCH   8  14
ATOM     13  C   UNL     1       0.677   2.125  18.687  0.00  0.00    +0.000 C 
ATOM     14  O   UNL     1       1.143   3.220  17.912  0.00  0.00    +0.000 OA
ENDBRANCH   8  14
ENDBRANCH   1  11
BRANCH   1  15
ATOM     15  O   UNL     1       5.360   3.514  16.839  0.00  0.00    +0.000 OA
ATOM     16  H   UNL     1       5.097   3.996  16.029  0.00  0.00    +0.000 HD
ENDBRANCH   1  15
TORSDOF 3
ENDMDL
MODEL 9
REMARK VINA RESULT:      -6.0      1.863      5.990
REMARK  Name = 
REMARK  5 active torsions:
REMARK  status: ('A' for Active; 'I' for Inactive)
REMARK    1  A    between atoms: C_1  and  O_2
REMARK    2  A    between atoms: O_2  and  C_3
REMARK    3  A    between atoms: C_6  and  N_7
REMARK    4  A    between atoms: N_7  and  O_8
REMARK    5  A    between atoms: C_11  and  C_12
REMARK                            x       y       z     vdW  Elec       q    Type
REMARK                         _______ _______ _______ _____ _____    ______ ____
ROOT
ATOM      1  N   UNL     1       3.717   4.237  17.668  0.00  0.00    +0.000 N 
ATOM      2  C   UNL     1       3.039   3.492  18.596  0.00  0.00    +0.000 A 
ATOM      3  C   UNL     1       2.836   3.870  19.946  0.00  0.00    +0.000 A 
ATOM      4  C   UNL     1       2.077   2.863  20.483  0.00  0.00    +0.000 A 
ATOM      5  C   UNL     1       1.486   2.619  21.811  0.00  0.00    +0.000 C 
ATOM      6  O   UNL     1       1.839   1.929  19.528  0.00  0.00    +0.000 OA
ATOM      7  N   UNL     1       2.415   2.333  18.339  0.00  0.00    +0.000 NA
ENDROOT
BRANCH   1  11
ATOM      8  C   UNL     1       6.961   5.829  17.043  0.00  0.00    +0.000 C 
ATOM      9  C   UNL     1       5.901   6.883  17.042  0.00  0.00    +0.000 C 
ATOM     10  C   UNL     1       4.762   6.444  17.587  0.00  0.00    +0.000 C 
ATOM     11  C   UNL     1       4.889   5.026  18.051  0.00  0.00    +0.000 C 
ATOM     12  C   UNL     1       6.174   4.552  17.361  0.00  0.00    +0.000 C 
BRANCH   8  14
ATOM     13  C   UNL     1       7.013   4.859  14.877  0.00  0.00    +0.000 C 
ATOM     14  O   UNL     1       7.579   5.814  15.764  0.00  0.00    +0.000 OA
ENDBRANCH   8  14
ENDBRANCH   1  11
BRANCH   1  15
ATOM     15  O   UNL     1       3.807   3.716  16.359  0.00  0.00    +0.000 OA
ATOM     16  H   UNL     1       3.361   4.396  15.815  0.00  0.00    +0.000 HD
ENDBRANCH   1  15
TORSDOF 3
ENDMDL
