MODEL 1
REMARK VINA RESULT:      -6.0      0.000      0.000
REMARK  Name = 
REMARK  9 active torsions:
REMARK  status: ('A' for Active; 'I' for Inactive)
REMARK    1  A    between atoms: N_1  and  C_2
REMARK    2  A    between atoms: C_2  and  C_3
REMARK    3  A    between atoms: C_3  and  O_5
REMARK    4  A    between atoms: C_7  and  C_8
REMARK    5  A    between atoms: C_8  and  O_9
REMARK    6  A    between atoms: C_8  and  C_10
REMARK    7  A    between atoms: C_10  and  P_11
REMARK    8  A    between atoms: P_11  and  O_13
REMARK    9  A    between atoms: P_11  and  O_14
REMARK                            x       y       z     vdW  Elec       q    Type
REMARK                         _______ _______ _______ _____ _____    ______ ____
ROOT
ATOM      1  C   UNL     1       5.571   5.777  16.333  0.00  0.00    +0.000 C 
ATOM      2  C   UNL     1       4.795   4.455  16.105  0.00  0.00    +0.000 C 
ATOM      3  C   UNL     1       4.165   4.634  17.515  0.00  0.00    +0.000 C 
ATOM      4  C   UNL     1       4.532   6.141  17.426  0.00  0.00    +0.000 C 
ENDROOT
BRANCH   1   5
ATOM      5  N   UNL     1       5.296   6.638  15.160  0.00  0.00    +0.000 NA
ATOM      6  H   UNL     1       5.649   6.340  14.252  0.00  0.00    +0.000 HD
ATOM      7  H   UNL     1       5.356   7.647  15.279  0.00  0.00    +0.000 HD
ENDBRANCH   1   5
BRANCH   1   8
ATOM      8  C   UNL     1       7.094   5.673  16.761  0.00  0.00    +0.000 C 
ATOM      9  O   UNL     1       7.706   4.650  17.048  0.00  0.00    +0.000 OA
BRANCH   8  10
ATOM     10  O   UNL     1       7.721   6.883  16.784  0.00  0.00    +0.000 OA
ATOM     11  H   UNL     1       7.713   7.230  17.696  0.00  0.00    +0.000 HD
ENDBRANCH   8  10
ENDBRANCH   1   8
BRANCH   3  12
ATOM     12  C   UNL     1       2.701   4.255  17.727  0.00  0.00    +0.000 C 
BRANCH  12  13
ATOM     13  O   UNL     1       2.273   3.273  16.782  0.00  0.00    +0.000 OA
ATOM     14  H   UNL     1       2.137   3.689  15.915  0.00  0.00    +0.000 HD
ENDBRANCH  12  13
BRANCH  12  15
ATOM     15  C   UNL     1       2.491   3.698  19.125  0.00  0.00    +0.000 C 
BRANCH  15  16
ATOM     16  P   UNL     1       3.868   2.582  19.580  0.00  0.00    +0.000 P 
ATOM     17  O   UNL     1       3.312   2.426  20.998  0.00  0.00    +0.000 OA
BRANCH  16  18
ATOM     18  O   UNL     1       3.179   1.345  18.757  0.00  0.00    +0.000 OA
ATOM     19  H   UNL     1       2.783   0.704  19.378  0.00  0.00    +0.000 HD
ENDBRANCH  16  18
BRANCH  16  20
ATOM     20  O   UNL     1       5.171   1.528  20.010  0.00  0.00    +0.000 OA
ATOM     21  H   UNL     1       5.805   1.598  19.268  0.00  0.00    +0.000 HD
ENDBRANCH  16  20
ENDBRANCH  15  16
ENDBRANCH  12  15
ENDBRANCH   3  12
TORSDOF 9
ENDMDL
MODEL 2
REMARK VINA RESULT:      -5.9      1.882      2.838
REMARK  Name = 
REMARK  9 active torsions:
REMARK  status: ('A' for Active; 'I' for Inactive)
REMARK    1  A    between atoms: N_1  and  C_2
REMARK    2  A    between atoms: C_2  and  C_3
REMARK    3  A    between atoms: C_3  and  O_5
REMARK    4  A    between atoms: C_7  and  C_8
REMARK    5  A    between atoms: C_8  and  O_9
REMARK    6  A    between atoms: C_8  and  C_10
REMARK    7  A    between atoms: C_10  and  P_11
REMARK    8  A    between atoms: P_11  and  O_13
REMARK    9  A    between atoms: P_11  and  O_14
REMARK                            x       y       z     vdW  Elec       q    Type
REMARK                         _______ _______ _______ _____ _____    ______ ____
ROOT
ATOM      1  C   UNL     1       6.692   4.934  17.188  0.00  0.00    +0.000 C 
ATOM      2  C   UNL     1       6.257   4.756  18.665  0.00  0.00    +0.000 C 
ATOM      3  C   UNL     1       4.892   4.218  18.150  0.00  0.00    +0.000 C 
ATOM      4  C   UNL     1       5.584   3.925  16.790  0.00  0.00    +0.000 C 
ENDROOT
BRANCH   1   5
ATOM      5  N   UNL     1       7.992   4.240  17.042  0.00  0.00    +0.000 NA
ATOM      6  H   UNL     1       8.107   3.333  17.493  0.00  0.00    +0.000 HD
ATOM      7  H   UNL     1       8.843   4.798  17.088  0.00  0.00    +0.000 HD
ENDBRANCH   1   5
BRANCH   1   8
ATOM      8  C   UNL     1       6.625   6.392  16.571  0.00  0.00    +0.000 C 
ATOM      9  O   UNL     1       5.664   6.907  16.009  0.00  0.00    +0.000 OA
BRANCH   8  10
ATOM     10  O   UNL     1       7.788   7.087  16.723  0.00  0.00    +0.000 OA
ATOM     11  H   UNL     1       8.499   6.467  16.973  0.00  0.00    +0.000 HD
ENDBRANCH   8  10
ENDBRANCH   1   8
BRANCH   3  12
ATOM     12  C   UNL     1       4.224   3.060  18.889  0.00  0.00    +0.000 C 
BRANCH  12  13
ATOM     13  O   UNL     1       5.094   2.497  19.871  0.00  0.00    +0.000 OA
ATOM     14  H   UNL     1       5.206   1.547  19.704  0.00  0.00    +0.000 HD
ENDBRANCH  12  13
BRANCH  12  15
ATOM     15  C   UNL     1       2.958   3.531  19.585  0.00  0.00    +0.000 C 
BRANCH  15  16
ATOM     16  P   UNL     1       1.504   2.625  18.944  0.00  0.00    +0.000 P 
ATOM     17  O   UNL     1       1.453   3.522  17.704  0.00  0.00    +0.000 OA
BRANCH  16  18
ATOM     18  O   UNL     1       2.451   1.373  18.477  0.00  0.00    +0.000 OA
ATOM     19  H   UNL     1       2.190   0.557  18.945  0.00  0.00    +0.000 HD
ENDBRANCH  16  18
BRANCH  16  20
ATOM     20  O   UNL     1       0.128   1.768  18.339  0.00  0.00    +0.000 OA
ATOM     21  H   UNL     1      -0.515   1.773  19.077  0.00  0.00    +0.000 HD
ENDBRANCH  16  20
ENDBRANCH  15  16
ENDBRANCH  12  15
ENDBRANCH   3  12
TORSDOF 9
ENDMDL
MODEL 3
REMARK VINA RESULT:      -5.8      2.946      5.657
REMARK  Name = 
REMARK  9 active torsions:
REMARK  status: ('A' for Active; 'I' for Inactive)
REMARK    1  A    between atoms: N_1  and  C_2
REMARK    2  A    between atoms: C_2  and  C_3
REMARK    3  A    between atoms: C_3  and  O_5
REMARK    4  A    between atoms: C_7  and  C_8
REMARK    5  A    between atoms: C_8  and  O_9
REMARK    6  A    between atoms: C_8  and  C_10
REMARK    7  A    between atoms: C_10  and  P_11
REMARK    8  A    between atoms: P_11  and  O_13
REMARK    9  A    between atoms: P_11  and  O_14
REMARK                            x       y       z     vdW  Elec       q    Type
REMARK                         _______ _______ _______ _____ _____    ______ ____
ROOT
ATOM      1  C   UNL     1       2.168   2.873  19.113  0.00  0.00    +0.000 C 
ATOM      2  C   UNL     1       1.970   3.981  18.047  0.00  0.00    +0.000 C 
ATOM      3  C   UNL     1       3.345   4.571  18.472  0.00  0.00    +0.000 C 
ATOM      4  C   UNL     1       3.687   3.185  19.086  0.00  0.00    +0.000 C 
ENDROOT
BRANCH   1   5
ATOM      5  N   UNL     1       1.971   1.579  18.421  0.00  0.00    +0.000 NA
ATOM      6  H   UNL     1       1.878   1.585  17.406  0.00  0.00    +0.000 HD
ATOM      7  H   UNL     1       1.361   0.889  18.855  0.00  0.00    +0.000 HD
ENDBRANCH   1   5
BRANCH   1   8
ATOM      8  C   UNL     1       1.402   3.032  20.492  0.00  0.00    +0.000 C 
ATOM      9  O   UNL     1       1.603   2.395  21.520  0.00  0.00    +0.000 OA
BRANCH   8  10
ATOM     10  O   UNL     1       0.440   3.998  20.455  0.00  0.00    +0.000 OA
ATOM     11  H   UNL     1       0.852   4.866  20.621  0.00  0.00    +0.000 HD
ENDBRANCH   8  10
ENDBRANCH   1   8
BRANCH   3  12
ATOM     12  C   UNL     1       4.272   5.138  17.398  0.00  0.00    +0.000 C 
BRANCH  12  13
ATOM     13  O   UNL     1       4.136   6.554  17.285  0.00  0.00    +0.000 OA
ATOM     14  H   UNL     1       4.137   6.811  16.349  0.00  0.00    +0.000 HD
ENDBRANCH  12  13
BRANCH  12  15
ATOM     15  C   UNL     1       5.722   4.820  17.723  0.00  0.00    +0.000 C 
BRANCH  15  16
ATOM     16  P   UNL     1       6.771   5.048  16.241  0.00  0.00    +0.000 P 
ATOM     17  O   UNL     1       7.082   6.492  16.647  0.00  0.00    +0.000 OA
BRANCH  16  18
ATOM     18  O   UNL     1       7.982   4.187  16.929  0.00  0.00    +0.000 OA
ATOM     19  H   UNL     1       7.983   3.271  16.589  0.00  0.00    +0.000 HD
ENDBRANCH  16  18
BRANCH  16  20
ATOM     20  O   UNL     1       7.764   5.264  14.840  0.00  0.00    +0.000 OA
ATOM     21  H   UNL     1       7.767   6.230  14.681  0.00  0.00    +0.000 HD
ENDBRANCH  16  20
ENDBRANCH  15  16
ENDBRANCH  12  15
ENDBRANCH   3  12
TORSDOF 9
ENDMDL
MODEL 4
REMARK VINA RESULT:      -5.8      1.941      2.563
REMARK  Name = 
REMARK  9 active torsions:
REMARK  status: ('A' for Active; 'I' for Inactive)
REMARK    1  A    between atoms: N_1  and  C_2
REMARK    2  A    between atoms: C_2  and  C_3
REMARK    3  A    between atoms: C_3  and  O_5
REMARK    4  A    between atoms: C_7  and  C_8
REMARK    5  A    between atoms: C_8  and  O_9
REMARK    6  A    between atoms: C_8  and  C_10
REMARK    7  A    between atoms: C_10  and  P_11
REMARK    8  A    between atoms: P_11  and  O_13
REMARK    9  A    between atoms: P_11  and  O_14
REMARK                            x       y       z     vdW  Elec       q    Type
REMARK                         _______ _______ _______ _____ _____    ______ ____
ROOT
ATOM      1  C   UNL     1       6.496   4.813  17.023  0.00  0.00    +0.000 C 
ATOM      2  C   UNL     1       5.839   4.555  18.403  0.00  0.00    +0.000 C 
ATOM      3  C   UNL     1       4.591   4.007  17.655  0.00  0.00    +0.000 C 
ATOM      4  C   UNL     1       5.498   3.796  16.412  0.00  0.00    +0.000 C 
ENDROOT
BRANCH   1   5
ATOM      5  N   UNL     1       7.825   4.161  17.057  0.00  0.00    +0.000 NA
ATOM      6  H   UNL     1       8.288   3.967  16.171  0.00  0.00    +0.000 HD
ATOM      7  H   UNL     1       7.981   3.420  17.738  0.00  0.00    +0.000 HD
ENDBRANCH   1   5
BRANCH   1   8
ATOM      8  C   UNL     1       6.479   6.297  16.465  0.00  0.00    +0.000 C 
ATOM      9  O   UNL     1       5.554   6.849  15.880  0.00  0.00    +0.000 OA
BRANCH   8  10
ATOM     10  O   UNL     1       7.643   6.966  16.702  0.00  0.00    +0.000 OA
ATOM     11  H   UNL     1       7.481   7.664  17.364  0.00  0.00    +0.000 HD
ENDBRANCH   8  10
ENDBRANCH   1   8
BRANCH   3  12
ATOM     12  C   UNL     1       3.853   2.799  18.229  0.00  0.00    +0.000 C 
BRANCH  12  13
ATOM     13  O   UNL     1       4.516   2.282  19.383  0.00  0.00    +0.000 OA
ATOM     14  H   UNL     1       4.330   2.848  20.150  0.00  0.00    +0.000 HD
ENDBRANCH  12  13
BRANCH  12  15
ATOM     15  C   UNL     1       2.435   3.177  18.621  0.00  0.00    +0.000 C 
BRANCH  15  16
ATOM     16  P   UNL     1       2.204   3.003  20.427  0.00  0.00    +0.000 P 
ATOM     17  O   UNL     1       2.747   4.415  20.664  0.00  0.00    +0.000 OA
BRANCH  16  18
ATOM     18  O   UNL     1       0.590   3.231  20.275  0.00  0.00    +0.000 OA
ATOM     19  H   UNL     1       0.138   2.376  20.137  0.00  0.00    +0.000 HD
ENDBRANCH  16  18
BRANCH  16  20
ATOM     20  O   UNL     1       1.986   2.837  22.136  0.00  0.00    +0.000 OA
ATOM     21  H   UNL     1       1.034   3.005  22.285  0.00  0.00    +0.000 HD
ENDBRANCH  16  20
ENDBRANCH  15  16
ENDBRANCH  12  15
ENDBRANCH   3  12
TORSDOF 9
ENDMDL
MODEL 5
REMARK VINA RESULT:      -5.8      2.860      5.757
REMARK  Name = 
REMARK  9 active torsions:
REMARK  status: ('A' for Active; 'I' for Inactive)
REMARK    1  A    between atoms: N_1  and  C_2
REMARK    2  A    between atoms: C_2  and  C_3
REMARK    3  A    between atoms: C_3  and  O_5
REMARK    4  A    between atoms: C_7  and  C_8
REMARK    5  A    between atoms: C_8  and  O_9
REMARK    6  A    between atoms: C_8  and  C_10
REMARK    7  A    between atoms: C_10  and  P_11
REMARK    8  A    between atoms: P_11  and  O_13
REMARK    9  A    between atoms: P_11  and  O_14
REMARK                            x       y       z     vdW  Elec       q    Type
REMARK                         _______ _______ _______ _____ _____    ______ ____
ROOT
ATOM      1  C   UNL     1       3.371   2.143  18.832  0.00  0.00    +0.000 C 
ATOM      2  C   UNL     1       3.782   3.180  17.756  0.00  0.00    +0.000 C 
ATOM      3  C   UNL     1       4.359   4.066  18.896  0.00  0.00    +0.000 C 
ATOM      4  C   UNL     1       4.408   2.794  19.785  0.00  0.00    +0.000 C 
ENDROOT
BRANCH   1   5
ATOM      5  N   UNL     1       3.927   0.840  18.401  0.00  0.00    +0.000 NA
ATOM      6  H   UNL     1       3.994   0.653  17.401  0.00  0.00    +0.000 HD
ATOM      7  H   UNL     1       3.667   0.008  18.927  0.00  0.00    +0.000 HD
ENDBRANCH   1   5
BRANCH   1   8
ATOM      8  C   UNL     1       1.854   2.119  19.291  0.00  0.00    +0.000 C 
ATOM      9  O   UNL     1       1.422   2.377  20.409  0.00  0.00    +0.000 OA
BRANCH   8  10
ATOM     10  O   UNL     1       1.002   1.773  18.284  0.00  0.00    +0.000 OA
ATOM     11  H   UNL     1       0.083   1.849  18.603  0.00  0.00    +0.000 HD
ENDBRANCH   8  10
ENDBRANCH   1   8
BRANCH   3  12
ATOM     12  C   UNL     1       5.658   4.833  18.653  0.00  0.00    +0.000 C 
BRANCH  12  13
ATOM     13  O   UNL     1       6.663   3.992  18.088  0.00  0.00    +0.000 OA
ATOM     14  H   UNL     1       6.258   3.369  17.464  0.00  0.00    +0.000 HD
ENDBRANCH  12  13
BRANCH  12  15
ATOM     15  C   UNL     1       5.420   5.999  17.708  0.00  0.00    +0.000 C 
BRANCH  15  16
ATOM     16  P   UNL     1       6.197   5.671  16.084  0.00  0.00    +0.000 P 
ATOM     17  O   UNL     1       5.320   6.734  15.416  0.00  0.00    +0.000 OA
BRANCH  16  18
ATOM     18  O   UNL     1       7.539   6.499  16.524  0.00  0.00    +0.000 OA
ATOM     19  H   UNL     1       7.764   6.312  17.455  0.00  0.00    +0.000 HD
ENDBRANCH  16  18
BRANCH  16  20
ATOM     20  O   UNL     1       6.932   5.359  14.549  0.00  0.00    +0.000 OA
ATOM     21  H   UNL     1       6.785   6.177  14.030  0.00  0.00    +0.000 HD
ENDBRANCH  16  20
ENDBRANCH  15  16
ENDBRANCH  12  15
ENDBRANCH   3  12
TORSDOF 9
ENDMDL
MODEL 6
REMARK VINA RESULT:      -5.8      2.320      3.208
REMARK  Name = 
REMARK  9 active torsions:
REMARK  status: ('A' for Active; 'I' for Inactive)
REMARK    1  A    between atoms: N_1  and  C_2
REMARK    2  A    between atoms: C_2  and  C_3
REMARK    3  A    between atoms: C_3  and  O_5
REMARK    4  A    between atoms: C_7  and  C_8
REMARK    5  A    between atoms: C_8  and  O_9
REMARK    6  A    between atoms: C_8  and  C_10
REMARK    7  A    between atoms: C_10  and  P_11
REMARK    8  A    between atoms: P_11  and  O_13
REMARK    9  A    between atoms: P_11  and  O_14
REMARK                            x       y       z     vdW  Elec       q    Type
REMARK                         _______ _______ _______ _____ _____    ______ ____
ROOT
ATOM      1  C   UNL     1       7.362   5.827  18.750  0.00  0.00    +0.000 C 
ATOM      2  C   UNL     1       5.841   5.624  18.967  0.00  0.00    +0.000 C 
ATOM      3  C   UNL     1       5.817   4.760  17.675  0.00  0.00    +0.000 C 
ATOM      4  C   UNL     1       7.349   4.570  17.841  0.00  0.00    +0.000 C 
ENDROOT
BRANCH   1   5
ATOM      5  N   UNL     1       8.026   5.448  20.017  0.00  0.00    +0.000 NA
ATOM      6  H   UNL     1       7.989   6.105  20.795  0.00  0.00    +0.000 HD
ATOM      7  H   UNL     1       8.924   4.969  19.966  0.00  0.00    +0.000 HD
ENDBRANCH   1   5
BRANCH   1   8
ATOM      8  C   UNL     1       7.839   7.198  18.113  0.00  0.00    +0.000 C 
ATOM      9  O   UNL     1       7.536   7.639  17.010  0.00  0.00    +0.000 OA
BRANCH   8  10
ATOM     10  O   UNL     1       8.663   7.906  18.937  0.00  0.00    +0.000 OA
ATOM     11  H   UNL     1       9.535   8.003  18.510  0.00  0.00    +0.000 HD
ENDBRANCH   8  10
ENDBRANCH   1   8
BRANCH   3  12
ATOM     12  C   UNL     1       4.931   3.517  17.631  0.00  0.00    +0.000 C 
BRANCH  12  13
ATOM     13  O   UNL     1       4.758   2.952  18.931  0.00  0.00    +0.000 OA
ATOM     14  H   UNL     1       4.098   3.464  19.427  0.00  0.00    +0.000 HD
ENDBRANCH  12  13
BRANCH  12  15
ATOM     15  C   UNL     1       3.560   3.858  17.071  0.00  0.00    +0.000 C 
BRANCH  15  16
ATOM     16  P   UNL     1       2.247   3.319  18.226  0.00  0.00    +0.000 P 
ATOM     17  O   UNL     1       1.166   3.936  17.334  0.00  0.00    +0.000 OA
BRANCH  16  18
ATOM     18  O   UNL     1       2.360   1.778  17.685  0.00  0.00    +0.000 OA
ATOM     19  H   UNL     1       1.613   1.245  18.018  0.00  0.00    +0.000 HD
ENDBRANCH  16  18
BRANCH  16  20
ATOM     20  O   UNL     1       1.006   2.810  19.319  0.00  0.00    +0.000 OA
ATOM     21  H   UNL     1       1.435   2.142  19.892  0.00  0.00    +0.000 HD
ENDBRANCH  16  20
ENDBRANCH  15  16
ENDBRANCH  12  15
ENDBRANCH   3  12
TORSDOF 9
ENDMDL
MODEL 7
REMARK VINA RESULT:      -5.8      2.723      5.366
REMARK  Name = 
REMARK  9 active torsions:
REMARK  status: ('A' for Active; 'I' for Inactive)
REMARK    1  A    between atoms: N_1  and  C_2
REMARK    2  A    between atoms: C_2  and  C_3
REMARK    3  A    between atoms: C_3  and  O_5
REMARK    4  A    between atoms: C_7  and  C_8
REMARK    5  A    between atoms: C_8  and  O_9
REMARK    6  A    between atoms: C_8  and  C_10
REMARK    7  A    between atoms: C_10  and  P_11
REMARK    8  A    between atoms: P_11  and  O_13
REMARK    9  A    between atoms: P_11  and  O_14
REMARK                            x       y       z     vdW  Elec       q    Type
REMARK                         _______ _______ _______ _____ _____    ______ ____
ROOT
ATOM      1  C   UNL     1       3.180   3.697  19.138  0.00  0.00    +0.000 C 
ATOM      2  C   UNL     1       4.694   3.473  19.384  0.00  0.00    +0.000 C 
ATOM      3  C   UNL     1       4.972   4.756  18.551  0.00  0.00    +0.000 C 
ATOM      4  C   UNL     1       3.501   5.179  18.815  0.00  0.00    +0.000 C 
ENDROOT
BRANCH   1   5
ATOM      5  N   UNL     1       2.525   3.667  20.466  0.00  0.00    +0.000 NA
ATOM      6  H   UNL     1       2.133   4.535  20.828  0.00  0.00    +0.000 HD
ATOM      7  H   UNL     1       2.952   3.107  21.201  0.00  0.00    +0.000 HD
ENDBRANCH   1   5
BRANCH   1   8
ATOM      8  C   UNL     1       2.479   2.827  18.013  0.00  0.00    +0.000 C 
ATOM      9  O   UNL     1       2.015   3.235  16.954  0.00  0.00    +0.000 OA
BRANCH   8  10
ATOM     10  O   UNL     1       2.429   1.501  18.323  0.00  0.00    +0.000 OA
ATOM     11  H   UNL     1       3.169   1.284  18.920  0.00  0.00    +0.000 HD
ENDBRANCH   8  10
ENDBRANCH   1   8
BRANCH   3  12
ATOM     12  C   UNL     1       6.090   5.698  18.993  0.00  0.00    +0.000 C 
BRANCH  12  13
ATOM     13  O   UNL     1       6.996   5.051  19.887  0.00  0.00    +0.000 OA
ATOM     14  H   UNL     1       7.862   5.489  19.850  0.00  0.00    +0.000 HD
ENDBRANCH  12  13
BRANCH  12  15
ATOM     15  C   UNL     1       6.876   6.195  17.791  0.00  0.00    +0.000 C 
BRANCH  15  16
ATOM     16  P   UNL     1       6.832   4.956  16.445  0.00  0.00    +0.000 P 
ATOM     17  O   UNL     1       7.558   5.915  15.498  0.00  0.00    +0.000 OA
BRANCH  16  18
ATOM     18  O   UNL     1       8.049   4.110  17.143  0.00  0.00    +0.000 OA
ATOM     19  H   UNL     1       7.692   3.344  17.633  0.00  0.00    +0.000 HD
ENDBRANCH  16  18
BRANCH  16  20
ATOM     20  O   UNL     1       6.791   3.784  15.172  0.00  0.00    +0.000 OA
ATOM     21  H   UNL     1       5.952   3.958  14.699  0.00  0.00    +0.000 HD
ENDBRANCH  16  20
ENDBRANCH  15  16
ENDBRANCH  12  15
ENDBRANCH   3  12
TORSDOF 9
ENDMDL
MODEL 8
REMARK VINA RESULT:      -5.7      2.895      5.722
REMARK  Name = 
REMARK  9 active torsions:
REMARK  status: ('A' for Active; 'I' for Inactive)
REMARK    1  A    between atoms: N_1  and  C_2
REMARK    2  A    between atoms: C_2  and  C_3
REMARK    3  A    between atoms: C_3  and  O_5
REMARK    4  A    between atoms: C_7  and  C_8
REMARK    5  A    between atoms: C_8  and  O_9
REMARK    6  A    between atoms: C_8  and  C_10
REMARK    7  A    between atoms: C_10  and  P_11
REMARK    8  A    between atoms: P_11  and  O_13
REMARK    9  A    between atoms: P_11  and  O_14
REMARK                            x       y       z     vdW  Elec       q    Type
REMARK                         _______ _______ _______ _____ _____    ______ ____
ROOT
ATOM      1  C   UNL     1       2.491   2.808  19.392  0.00  0.00    +0.000 C 
ATOM      2  C   UNL     1       2.150   4.103  18.613  0.00  0.00    +0.000 C 
ATOM      3  C   UNL     1       3.629   4.546  18.791  0.00  0.00    +0.000 C 
ATOM      4  C   UNL     1       3.985   3.058  19.056  0.00  0.00    +0.000 C 
ENDROOT
BRANCH   1   5
ATOM      5  N   UNL     1       2.035   1.676  18.553  0.00  0.00    +0.000 NA
ATOM      6  H   UNL     1       2.371   1.623  17.593  0.00  0.00    +0.000 HD
ATOM      7  H   UNL     1       1.065   1.377  18.634  0.00  0.00    +0.000 HD
ENDBRANCH   1   5
BRANCH   1   8
ATOM      8  C   UNL     1       2.076   2.735  20.920  0.00  0.00    +0.000 C 
ATOM      9  O   UNL     1       2.822   2.549  21.874  0.00  0.00    +0.000 OA
BRANCH   8  10
ATOM     10  O   UNL     1       0.738   2.912  21.114  0.00  0.00    +0.000 OA
ATOM     11  H   UNL     1       0.257   2.149  20.742  0.00  0.00    +0.000 HD
ENDBRANCH   8  10
ENDBRANCH   1   8
BRANCH   3  12
ATOM     12  C   UNL     1       4.331   5.267  17.642  0.00  0.00    +0.000 C 
BRANCH  12  13
ATOM     13  O   UNL     1       3.860   6.607  17.500  0.00  0.00    +0.000 OA
ATOM     14  H   UNL     1       3.041   6.614  16.978  0.00  0.00    +0.000 HD
ENDBRANCH  12  13
BRANCH  12  15
ATOM     15  C   UNL     1       5.832   5.310  17.877  0.00  0.00    +0.000 C 
BRANCH  15  16
ATOM     16  P   UNL     1       6.728   5.257  16.282  0.00  0.00    +0.000 P 
ATOM     17  O   UNL     1       5.474   5.708  15.528  0.00  0.00    +0.000 OA
BRANCH  16  18
ATOM     18  O   UNL     1       7.494   6.662  16.631  0.00  0.00    +0.000 OA
ATOM     19  H   UNL     1       7.594   7.203  15.824  0.00  0.00    +0.000 HD
ENDBRANCH  16  18
BRANCH  16  20
ATOM     20  O   UNL     1       7.576   5.206  14.775  0.00  0.00    +0.000 OA
ATOM     21  H   UNL     1       7.475   4.285  14.461  0.00  0.00    +0.000 HD
ENDBRANCH  16  20
ENDBRANCH  15  16
ENDBRANCH  12  15
ENDBRANCH   3  12
TORSDOF 9
ENDMDL
MODEL 9
REMARK VINA RESULT:      -5.7      2.937      5.764
REMARK  Name = 
REMARK  9 active torsions:
REMARK  status: ('A' for Active; 'I' for Inactive)
REMARK    1  A    between atoms: N_1  and  C_2
REMARK    2  A    between atoms: C_2  and  C_3
REMARK    3  A    between atoms: C_3  and  O_5
REMARK    4  A    between atoms: C_7  and  C_8
REMARK    5  A    between atoms: C_8  and  O_9
REMARK    6  A    between atoms: C_8  and  C_10
REMARK    7  A    between atoms: C_10  and  P_11
REMARK    8  A    between atoms: P_11  and  O_13
REMARK    9  A    between atoms: P_11  and  O_14
REMARK                            x       y       z     vdW  Elec       q    Type
REMARK                         _______ _______ _______ _____ _____    ______ ____
ROOT
ATOM      1  C   UNL     1       2.537   2.596  19.415  0.00  0.00    +0.000 C 
ATOM      2  C   UNL     1       2.569   3.873  18.538  0.00  0.00    +0.000 C 
ATOM      3  C   UNL     1       4.105   3.936  18.766  0.00  0.00    +0.000 C 
ATOM      4  C   UNL     1       4.055   2.430  19.144  0.00  0.00    +0.000 C 
ENDROOT
BRANCH   1   5
ATOM      5  N   UNL     1       1.834   1.557  18.627  0.00  0.00    +0.000 NA
ATOM      6  H   UNL     1       1.051   1.845  18.042  0.00  0.00    +0.000 HD
ATOM      7  H   UNL     1       1.670   0.651  19.062  0.00  0.00    +0.000 HD
ENDBRANCH   1   5
BRANCH   1   8
ATOM      8  C   UNL     1       2.063   2.747  20.920  0.00  0.00    +0.000 C 
ATOM      9  O   UNL     1       2.762   2.643  21.922  0.00  0.00    +0.000 OA
BRANCH   8  10
ATOM     10  O   UNL     1       0.733   3.026  21.031  0.00  0.00    +0.000 OA
ATOM     11  H   UNL     1       0.249   2.201  21.224  0.00  0.00    +0.000 HD
ENDBRANCH   8  10
ENDBRANCH   1   8
BRANCH   3  12
ATOM     12  C   UNL     1       5.010   4.365  17.612  0.00  0.00    +0.000 C 
BRANCH  12  13
ATOM     13  O   UNL     1       4.478   5.498  16.925  0.00  0.00    +0.000 OA
ATOM     14  H   UNL     1       5.201   6.012  16.530  0.00  0.00    +0.000 HD
ENDBRANCH  12  13
BRANCH  12  15
ATOM     15  C   UNL     1       6.395   4.722  18.125  0.00  0.00    +0.000 C 
BRANCH  15  16
ATOM     16  P   UNL     1       6.839   6.426  17.627  0.00  0.00    +0.000 P 
ATOM     17  O   UNL     1       8.022   6.435  18.600  0.00  0.00    +0.000 OA
BRANCH  16  18
ATOM     18  O   UNL     1       7.494   5.880  16.229  0.00  0.00    +0.000 OA
ATOM     19  H   UNL     1       8.268   5.315  16.414  0.00  0.00    +0.000 HD
ENDBRANCH  16  18
BRANCH  16  20
ATOM     20  O   UNL     1       7.258   8.038  17.156  0.00  0.00    +0.000 OA
ATOM     21  H   UNL     1       7.650   8.439  17.958  0.00  0.00    +0.000 HD
ENDBRANCH  16  20
ENDBRANCH  15  16
ENDBRANCH  12  15
ENDBRANCH   3  12
TORSDOF 9
ENDMDL
