MODEL 1
REMARK VINA RESULT:      -7.9      0.000      0.000
REMARK  Name = 
REMARK  2 active torsions:
REMARK  status: ('A' for Active; 'I' for Inactive)
REMARK    1  A    between atoms: C_2  and  C_3
REMARK    2  A    between atoms: C_12  and  C_13
REMARK                            x       y       z     vdW  Elec       q    Type
REMARK                         _______ _______ _______ _____ _____    ______ ____
ROOT
ATOM      1  O   UNL     1       3.560   2.414  17.666  0.00  0.00    +0.000 OA
ATOM      2  C   UNL     1       4.030   3.469  18.084  0.00  0.00    +0.000 C 
ATOM      3  N   UNL     1       3.524   4.137  19.192  0.00  0.00    +0.000 N 
ATOM      4  C   UNL     1       2.464   3.548  19.992  0.00  0.00    +0.000 C 
ATOM      5  C   UNL     1       1.565   4.719  20.351  0.00  0.00    +0.000 C 
ATOM      6  C   UNL     1       2.546   5.883  20.489  0.00  0.00    +0.000 C 
ATOM      7  C   UNL     1       3.596   5.583  19.416  0.00  0.00    +0.000 C 
ENDROOT
BRANCH   6   8
ATOM      8  C   UNL     1       1.903   7.205  20.306  0.00  0.00    +0.000 A 
ATOM      9  N   UNL     1       1.126   7.872  21.143  0.00  0.00    +0.000 NA
ATOM     10  C   UNL     1       0.849   9.034  20.473  0.00  0.00    +0.000 A 
ATOM     11  C   UNL     1       0.092  10.152  20.842  0.00  0.00    +0.000 A 
ATOM     12  C   UNL     1      -0.013  11.209  19.926  0.00  0.00    +0.000 A 
ATOM     13  C   UNL     1       0.619  11.152  18.677  0.00  0.00    +0.000 A 
ATOM     14  C   UNL     1       1.382  10.041  18.293  0.00  0.00    +0.000 A 
ATOM     15  C   UNL     1       1.462   9.017  19.228  0.00  0.00    +0.000 A 
ATOM     16  O   UNL     1       2.138   7.837  19.113  0.00  0.00    +0.000 OA
ENDBRANCH   6   8
BRANCH   2  17
ATOM     17  C   UNL     1       5.206   4.036  17.378  0.00  0.00    +0.000 A 
ATOM     18  C   UNL     1       5.191   4.127  15.988  0.00  0.00    +0.000 A 
ATOM     19  C   UNL     1       6.325   4.613  15.360  0.00  0.00    +0.000 A 
ATOM     20  N   UNL     1       7.440   5.003  16.019  0.00  0.00    +0.000 NA
ATOM     21  C   UNL     1       7.435   4.871  17.362  0.00  0.00    +0.000 A 
ATOM     22  C   UNL     1       6.362   4.379  18.079  0.00  0.00    +0.000 A 
ENDBRANCH   2  17
TORSDOF 2
ENDMDL
MODEL 2
REMARK VINA RESULT:      -7.9      0.765      1.290
REMARK  Name = 
REMARK  2 active torsions:
REMARK  status: ('A' for Active; 'I' for Inactive)
REMARK    1  A    between atoms: C_2  and  C_3
REMARK    2  A    between atoms: C_12  and  C_13
REMARK                            x       y       z     vdW  Elec       q    Type
REMARK                         _______ _______ _______ _____ _____    ______ ____
ROOT
ATOM      1  O   UNL     1       3.529   2.488  17.660  0.00  0.00    +0.000 OA
ATOM      2  C   UNL     1       4.011   3.558  18.024  0.00  0.00    +0.000 C 
ATOM      3  N   UNL     1       3.521   4.279  19.105  0.00  0.00    +0.000 N 
ATOM      4  C   UNL     1       2.464   3.736  19.942  0.00  0.00    +0.000 C 
ATOM      5  C   UNL     1       1.576   4.929  20.255  0.00  0.00    +0.000 C 
ATOM      6  C   UNL     1       2.568   6.090  20.331  0.00  0.00    +0.000 C 
ATOM      7  C   UNL     1       3.605   5.733  19.263  0.00  0.00    +0.000 C 
ENDROOT
BRANCH   6   8
ATOM      8  C   UNL     1       1.933   7.408  20.093  0.00  0.00    +0.000 A 
ATOM      9  N   UNL     1       2.014   8.188  19.029  0.00  0.00    +0.000 NA
ATOM     10  C   UNL     1       1.210   9.251  19.343  0.00  0.00    +0.000 A 
ATOM     11  C   UNL     1       0.873  10.397  18.614  0.00  0.00    +0.000 A 
ATOM     12  C   UNL     1       0.010  11.329  19.211  0.00  0.00    +0.000 A 
ATOM     13  C   UNL     1      -0.502  11.121  20.499  0.00  0.00    +0.000 A 
ATOM     14  C   UNL     1      -0.176   9.978  21.240  0.00  0.00    +0.000 A 
ATOM     15  C   UNL     1       0.680   9.081  20.613  0.00  0.00    +0.000 A 
ATOM     16  O   UNL     1       1.148   7.897  21.105  0.00  0.00    +0.000 OA
ENDBRANCH   6   8
BRANCH   2  17
ATOM     17  C   UNL     1       5.184   4.083  17.283  0.00  0.00    +0.000 A 
ATOM     18  C   UNL     1       5.131   4.173  15.893  0.00  0.00    +0.000 A 
ATOM     19  C   UNL     1       6.261   4.618  15.231  0.00  0.00    +0.000 A 
ATOM     20  N   UNL     1       7.408   4.970  15.855  0.00  0.00    +0.000 NA
ATOM     21  C   UNL     1       7.439   4.839  17.198  0.00  0.00    +0.000 A 
ATOM     22  C   UNL     1       6.372   4.386  17.948  0.00  0.00    +0.000 A 
ENDBRANCH   2  17
TORSDOF 2
ENDMDL
MODEL 3
REMARK VINA RESULT:      -7.9      0.240      1.029
REMARK  Name = 
REMARK  2 active torsions:
REMARK  status: ('A' for Active; 'I' for Inactive)
REMARK    1  A    between atoms: C_2  and  C_3
REMARK    2  A    between atoms: C_12  and  C_13
REMARK                            x       y       z     vdW  Elec       q    Type
REMARK                         _______ _______ _______ _____ _____    ______ ____
ROOT
ATOM      1  O   UNL     1       3.579   2.515  17.501  0.00  0.00    +0.000 OA
ATOM      2  C   UNL     1       4.038   3.577  17.914  0.00  0.00    +0.000 C 
ATOM      3  N   UNL     1       3.558   4.219  19.049  0.00  0.00    +0.000 N 
ATOM      4  C   UNL     1       2.544   3.594  19.881  0.00  0.00    +0.000 C 
ATOM      5  C   UNL     1       1.630   4.737  20.288  0.00  0.00    +0.000 C 
ATOM      6  C   UNL     1       2.587   5.924  20.404  0.00  0.00    +0.000 C 
ATOM      7  C   UNL     1       3.603   5.663  19.289  0.00  0.00    +0.000 C 
ENDROOT
BRANCH   6   8
ATOM      8  C   UNL     1       1.905   7.231  20.262  0.00  0.00    +0.000 A 
ATOM      9  N   UNL     1       1.149   7.872  21.139  0.00  0.00    +0.000 NA
ATOM     10  C   UNL     1       0.815   9.033  20.493  0.00  0.00    +0.000 A 
ATOM     11  C   UNL     1       0.049  10.128  20.905  0.00  0.00    +0.000 A 
ATOM     12  C   UNL     1      -0.122  11.190  20.005  0.00  0.00    +0.000 A 
ATOM     13  C   UNL     1       0.457  11.160  18.729  0.00  0.00    +0.000 A 
ATOM     14  C   UNL     1       1.228  10.071  18.302  0.00  0.00    +0.000 A 
ATOM     15  C   UNL     1       1.373   9.041  19.223  0.00  0.00    +0.000 A 
ATOM     16  O   UNL     1       2.071   7.880  19.066  0.00  0.00    +0.000 OA
ENDBRANCH   6   8
BRANCH   2  17
ATOM     17  C   UNL     1       5.172   4.182  17.172  0.00  0.00    +0.000 A 
ATOM     18  C   UNL     1       6.342   4.506  17.857  0.00  0.00    +0.000 A 
ATOM     19  C   UNL     1       7.359   5.115  17.144  0.00  0.00    +0.000 A 
ATOM     20  N   UNL     1       7.282   5.410  15.827  0.00  0.00    +0.000 NA
ATOM     21  C   UNL     1       6.124   5.114  15.200  0.00  0.00    +0.000 A 
ATOM     22  C   UNL     1       5.044   4.525  15.826  0.00  0.00    +0.000 A 
ENDBRANCH   2  17
TORSDOF 2
ENDMDL
MODEL 4
REMARK VINA RESULT:      -7.8      0.794      1.647
REMARK  Name = 
REMARK  2 active torsions:
REMARK  status: ('A' for Active; 'I' for Inactive)
REMARK    1  A    between atoms: C_2  and  C_3
REMARK    2  A    between atoms: C_12  and  C_13
REMARK                            x       y       z     vdW  Elec       q    Type
REMARK                         _______ _______ _______ _____ _____    ______ ____
ROOT
ATOM      1  O   UNL     1       3.510   2.519  17.509  0.00  0.00    +0.000 OA
ATOM      2  C   UNL     1       3.999   3.585  17.874  0.00  0.00    +0.000 C 
ATOM      3  N   UNL     1       3.540   4.289  18.981  0.00  0.00    +0.000 N 
ATOM      4  C   UNL     1       2.512   3.728  19.841  0.00  0.00    +0.000 C 
ATOM      5  C   UNL     1       1.630   4.913  20.199  0.00  0.00    +0.000 C 
ATOM      6  C   UNL     1       2.620   6.077  20.262  0.00  0.00    +0.000 C 
ATOM      7  C   UNL     1       3.625   5.740  19.157  0.00  0.00    +0.000 C 
ENDROOT
BRANCH   6   8
ATOM      8  C   UNL     1       1.973   7.395  20.064  0.00  0.00    +0.000 A 
ATOM      9  N   UNL     1       1.965   8.162  18.986  0.00  0.00    +0.000 NA
ATOM     10  C   UNL     1       1.196   9.234  19.355  0.00  0.00    +0.000 A 
ATOM     11  C   UNL     1       0.803  10.373  18.644  0.00  0.00    +0.000 A 
ATOM     12  C   UNL     1       0.000  11.317  19.302  0.00  0.00    +0.000 A 
ATOM     13  C   UNL     1      -0.399  11.128  20.632  0.00  0.00    +0.000 A 
ATOM     14  C   UNL     1      -0.015   9.993  21.356  0.00  0.00    +0.000 A 
ATOM     15  C   UNL     1       0.778   9.083  20.669  0.00  0.00    +0.000 A 
ATOM     16  O   UNL     1       1.281   7.902  21.133  0.00  0.00    +0.000 OA
ENDBRANCH   6   8
BRANCH   2  17
ATOM     17  C   UNL     1       5.148   4.125  17.105  0.00  0.00    +0.000 A 
ATOM     18  C   UNL     1       6.343   4.402  17.764  0.00  0.00    +0.000 A 
ATOM     19  C   UNL     1       7.376   4.953  17.026  0.00  0.00    +0.000 A 
ATOM     20  N   UNL     1       7.289   5.235  15.707  0.00  0.00    +0.000 NA
ATOM     21  C   UNL     1       6.107   4.986  15.104  0.00  0.00    +0.000 A 
ATOM     22  C   UNL     1       5.011   4.457  15.757  0.00  0.00    +0.000 A 
ENDBRANCH   2  17
TORSDOF 2
ENDMDL
MODEL 5
REMARK VINA RESULT:      -7.5      3.544      7.506
REMARK  Name = 
REMARK  2 active torsions:
REMARK  status: ('A' for Active; 'I' for Inactive)
REMARK    1  A    between atoms: C_2  and  C_3
REMARK    2  A    between atoms: C_12  and  C_13
REMARK                            x       y       z     vdW  Elec       q    Type
REMARK                         _______ _______ _______ _____ _____    ______ ____
ROOT
ATOM      1  O   UNL     1       3.373   6.182  20.277  0.00  0.00    +0.000 OA
ATOM      2  C   UNL     1       3.642   5.181  19.617  0.00  0.00    +0.000 C 
ATOM      3  N   UNL     1       4.899   4.948  19.073  0.00  0.00    +0.000 N 
ATOM      4  C   UNL     1       6.008   5.842  19.359  0.00  0.00    +0.000 C 
ATOM      5  C   UNL     1       6.758   5.951  18.043  0.00  0.00    +0.000 C 
ATOM      6  C   UNL     1       6.579   4.563  17.425  0.00  0.00    +0.000 C 
ATOM      7  C   UNL     1       5.168   4.165  17.864  0.00  0.00    +0.000 C 
ENDROOT
BRANCH   6   8
ATOM      8  C   UNL     1       6.742   4.562  15.952  0.00  0.00    +0.000 A 
ATOM      9  N   UNL     1       7.541   5.306  15.205  0.00  0.00    +0.000 NA
ATOM     10  C   UNL     1       7.301   4.863  13.932  0.00  0.00    +0.000 A 
ATOM     11  C   UNL     1       7.853   5.245  12.705  0.00  0.00    +0.000 A 
ATOM     12  C   UNL     1       7.397   4.599  11.546  0.00  0.00    +0.000 A 
ATOM     13  C   UNL     1       6.418   3.599  11.610  0.00  0.00    +0.000 A 
ATOM     14  C   UNL     1       5.856   3.204  12.832  0.00  0.00    +0.000 A 
ATOM     15  C   UNL     1       6.335   3.867  13.955  0.00  0.00    +0.000 A 
ATOM     16  O   UNL     1       5.966   3.673  15.254  0.00  0.00    +0.000 OA
ENDBRANCH   6   8
BRANCH   2  17
ATOM     17  C   UNL     1       2.574   4.170  19.417  0.00  0.00    +0.000 A 
ATOM     18  C   UNL     1       1.826   4.188  18.241  0.00  0.00    +0.000 A 
ATOM     19  C   UNL     1       0.805   3.264  18.111  0.00  0.00    +0.000 A 
ATOM     20  N   UNL     1       0.496   2.347  19.056  0.00  0.00    +0.000 NA
ATOM     21  C   UNL     1       1.217   2.377  20.197  0.00  0.00    +0.000 A 
ATOM     22  C   UNL     1       2.241   3.273  20.431  0.00  0.00    +0.000 A 
ENDBRANCH   2  17
TORSDOF 2
ENDMDL
MODEL 6
REMARK VINA RESULT:      -7.2      3.502      7.552
REMARK  Name = 
REMARK  2 active torsions:
REMARK  status: ('A' for Active; 'I' for Inactive)
REMARK    1  A    between atoms: C_2  and  C_3
REMARK    2  A    between atoms: C_12  and  C_13
REMARK                            x       y       z     vdW  Elec       q    Type
REMARK                         _______ _______ _______ _____ _____    ______ ____
ROOT
ATOM      1  O   UNL     1       3.282   6.447  20.158  0.00  0.00    +0.000 OA
ATOM      2  C   UNL     1       3.558   5.384  19.606  0.00  0.00    +0.000 C 
ATOM      3  N   UNL     1       4.804   5.120  19.053  0.00  0.00    +0.000 N 
ATOM      4  C   UNL     1       5.897   6.066  19.203  0.00  0.00    +0.000 C 
ATOM      5  C   UNL     1       6.607   6.041  17.859  0.00  0.00    +0.000 C 
ATOM      6  C   UNL     1       6.447   4.588  17.408  0.00  0.00    +0.000 C 
ATOM      7  C   UNL     1       5.059   4.211  17.934  0.00  0.00    +0.000 C 
ENDROOT
BRANCH   6   8
ATOM      8  C   UNL     1       6.567   4.424  15.940  0.00  0.00    +0.000 A 
ATOM      9  N   UNL     1       5.950   3.562  15.149  0.00  0.00    +0.000 NA
ATOM     10  C   UNL     1       6.412   3.880  13.900  0.00  0.00    +0.000 A 
ATOM     11  C   UNL     1       6.117   3.339  12.644  0.00  0.00    +0.000 A 
ATOM     12  C   UNL     1       6.762   3.882  11.523  0.00  0.00    +0.000 A 
ATOM     13  C   UNL     1       7.676   4.937  11.652  0.00  0.00    +0.000 A 
ATOM     14  C   UNL     1       7.981   5.490  12.902  0.00  0.00    +0.000 A 
ATOM     15  C   UNL     1       7.321   4.924  13.986  0.00  0.00    +0.000 A 
ATOM     16  O   UNL     1       7.430   5.275  15.300  0.00  0.00    +0.000 OA
ENDBRANCH   6   8
BRANCH   2  17
ATOM     17  C   UNL     1       2.511   4.333  19.556  0.00  0.00    +0.000 A 
ATOM     18  C   UNL     1       2.358   3.468  20.637  0.00  0.00    +0.000 A 
ATOM     19  C   UNL     1       1.408   2.468  20.535  0.00  0.00    +0.000 A 
ATOM     20  N   UNL     1       0.623   2.286  19.449  0.00  0.00    +0.000 NA
ATOM     21  C   UNL     1       0.819   3.119  18.405  0.00  0.00    +0.000 A 
ATOM     22  C   UNL     1       1.754   4.134  18.401  0.00  0.00    +0.000 A 
ENDBRANCH   2  17
TORSDOF 2
ENDMDL
MODEL 7
REMARK VINA RESULT:      -7.2      3.446      7.503
REMARK  Name = 
REMARK  2 active torsions:
REMARK  status: ('A' for Active; 'I' for Inactive)
REMARK    1  A    between atoms: C_2  and  C_3
REMARK    2  A    between atoms: C_12  and  C_13
REMARK                            x       y       z     vdW  Elec       q    Type
REMARK                         _______ _______ _______ _____ _____    ______ ____
ROOT
ATOM      1  O   UNL     1       3.065   6.494  20.046  0.00  0.00    +0.000 OA
ATOM      2  C   UNL     1       3.446   5.430  19.564  0.00  0.00    +0.000 C 
ATOM      3  N   UNL     1       4.709   5.257  19.013  0.00  0.00    +0.000 N 
ATOM      4  C   UNL     1       5.700   6.318  19.083  0.00  0.00    +0.000 C 
ATOM      5  C   UNL     1       6.399   6.274  17.735  0.00  0.00    +0.000 C 
ATOM      6  C   UNL     1       6.387   4.786  17.385  0.00  0.00    +0.000 C 
ATOM      7  C   UNL     1       5.049   4.305  17.953  0.00  0.00    +0.000 C 
ENDROOT
BRANCH   6   8
ATOM      8  C   UNL     1       6.514   4.534  15.930  0.00  0.00    +0.000 A 
ATOM      9  N   UNL     1       5.898   3.629  15.188  0.00  0.00    +0.000 NA
ATOM     10  C   UNL     1       6.368   3.870  13.924  0.00  0.00    +0.000 A 
ATOM     11  C   UNL     1       6.076   3.257  12.701  0.00  0.00    +0.000 A 
ATOM     12  C   UNL     1       6.728   3.731  11.553  0.00  0.00    +0.000 A 
ATOM     13  C   UNL     1       7.645   4.789  11.624  0.00  0.00    +0.000 A 
ATOM     14  C   UNL     1       7.946   5.414  12.841  0.00  0.00    +0.000 A 
ATOM     15  C   UNL     1       7.279   4.916  13.953  0.00  0.00    +0.000 A 
ATOM     16  O   UNL     1       7.382   5.344  15.244  0.00  0.00    +0.000 OA
ENDBRANCH   6   8
BRANCH   2  17
ATOM     17  C   UNL     1       2.513   4.276  19.598  0.00  0.00    +0.000 A 
ATOM     18  C   UNL     1       1.737   3.990  18.477  0.00  0.00    +0.000 A 
ATOM     19  C   UNL     1       0.841   2.939  18.563  0.00  0.00    +0.000 A 
ATOM     20  N   UNL     1       0.681   2.177  19.668  0.00  0.00    +0.000 NA
ATOM     21  C   UNL     1       1.423   2.500  20.747  0.00  0.00    +0.000 A 
ATOM     22  C   UNL     1       2.329   3.542  20.770  0.00  0.00    +0.000 A 
ENDBRANCH   2  17
TORSDOF 2
ENDMDL
MODEL 8
REMARK VINA RESULT:      -7.0      2.991      8.012
REMARK  Name = 
REMARK  2 active torsions:
REMARK  status: ('A' for Active; 'I' for Inactive)
REMARK    1  A    between atoms: C_2  and  C_3
REMARK    2  A    between atoms: C_12  and  C_13
REMARK                            x       y       z     vdW  Elec       q    Type
REMARK                         _______ _______ _______ _____ _____    ______ ____
ROOT
ATOM      1  O   UNL     1      -0.365  11.491  18.580  0.00  0.00    +0.000 OA
ATOM      2  C   UNL     1       0.140  10.772  19.439  0.00  0.00    +0.000 C 
ATOM      3  N   UNL     1       1.206   9.919  19.182  0.00  0.00    +0.000 N 
ATOM      4  C   UNL     1       1.859   9.920  17.884  0.00  0.00    +0.000 C 
ATOM      5  C   UNL     1       2.153   8.456  17.606  0.00  0.00    +0.000 C 
ATOM      6  C   UNL     1       2.442   7.889  18.997  0.00  0.00    +0.000 C 
ATOM      7  C   UNL     1       1.486   8.673  19.899  0.00  0.00    +0.000 C 
ENDROOT
BRANCH   6   8
ATOM      8  C   UNL     1       2.233   6.424  19.078  0.00  0.00    +0.000 A 
ATOM      9  N   UNL     1       2.293   5.523  18.112  0.00  0.00    +0.000 NA
ATOM     10  C   UNL     1       2.050   4.339  18.756  0.00  0.00    +0.000 A 
ATOM     11  C   UNL     1       1.999   3.025  18.279  0.00  0.00    +0.000 A 
ATOM     12  C   UNL     1       1.720   2.000  19.195  0.00  0.00    +0.000 A 
ATOM     13  C   UNL     1       1.499   2.280  20.550  0.00  0.00    +0.000 A 
ATOM     14  C   UNL     1       1.548   3.590  21.044  0.00  0.00    +0.000 A 
ATOM     15  C   UNL     1       1.827   4.575  20.105  0.00  0.00    +0.000 A 
ATOM     16  O   UNL     1       1.938   5.918  20.317  0.00  0.00    +0.000 OA
ENDBRANCH   6   8
BRANCH   2  17
ATOM     17  C   UNL     1      -0.408  10.844  20.817  0.00  0.00    +0.000 A 
ATOM     18  C   UNL     1      -1.173  11.945  21.192  0.00  0.00    +0.000 A 
ATOM     19  C   UNL     1      -1.624  12.004  22.499  0.00  0.00    +0.000 A 
ATOM     20  N   UNL     1      -1.364  11.054  23.426  0.00  0.00    +0.000 NA
ATOM     21  C   UNL     1      -0.592  10.017  23.041  0.00  0.00    +0.000 A 
ATOM     22  C   UNL     1      -0.078   9.877  21.767  0.00  0.00    +0.000 A 
ENDBRANCH   2  17
TORSDOF 2
ENDMDL
MODEL 9
REMARK VINA RESULT:      -7.0      3.089      7.530
REMARK  Name = 
REMARK  2 active torsions:
REMARK  status: ('A' for Active; 'I' for Inactive)
REMARK    1  A    between atoms: C_2  and  C_3
REMARK    2  A    between atoms: C_12  and  C_13
REMARK                            x       y       z     vdW  Elec       q    Type
REMARK                         _______ _______ _______ _____ _____    ______ ____
ROOT
ATOM      1  O   UNL     1       2.224   6.824  19.394  0.00  0.00    +0.000 OA
ATOM      2  C   UNL     1       2.877   5.825  19.102  0.00  0.00    +0.000 C 
ATOM      3  N   UNL     1       4.164   5.886  18.584  0.00  0.00    +0.000 N 
ATOM      4  C   UNL     1       4.856   7.158  18.465  0.00  0.00    +0.000 C 
ATOM      5  C   UNL     1       5.597   7.065  17.142  0.00  0.00    +0.000 C 
ATOM      6  C   UNL     1       5.969   5.584  17.055  0.00  0.00    +0.000 C 
ATOM      7  C   UNL     1       4.772   4.885  17.704  0.00  0.00    +0.000 C 
ENDROOT
BRANCH   6   8
ATOM      8  C   UNL     1       6.212   5.131  15.665  0.00  0.00    +0.000 A 
ATOM      9  N   UNL     1       7.241   5.391  14.876  0.00  0.00    +0.000 NA
ATOM     10  C   UNL     1       6.956   4.695  13.731  0.00  0.00    +0.000 A 
ATOM     11  C   UNL     1       7.670   4.557  12.536  0.00  0.00    +0.000 A 
ATOM     12  C   UNL     1       7.112   3.765  11.521  0.00  0.00    +0.000 A 
ATOM     13  C   UNL     1       5.876   3.128  11.696  0.00  0.00    +0.000 A 
ATOM     14  C   UNL     1       5.150   3.255  12.887  0.00  0.00    +0.000 A 
ATOM     15  C   UNL     1       5.737   4.047  13.866  0.00  0.00    +0.000 A 
ATOM     16  O   UNL     1       5.250   4.329  15.108  0.00  0.00    +0.000 OA
ENDBRANCH   6   8
BRANCH   2  17
ATOM     17  C   UNL     1       2.260   4.496  19.340  0.00  0.00    +0.000 A 
ATOM     18  C   UNL     1       2.524   3.823  20.532  0.00  0.00    +0.000 A 
ATOM     19  C   UNL     1       1.975   2.564  20.698  0.00  0.00    +0.000 A 
ATOM     20  N   UNL     1       1.198   1.955  19.774  0.00  0.00    +0.000 NA
ATOM     21  C   UNL     1       0.989   2.619  18.617  0.00  0.00    +0.000 A 
ATOM     22  C   UNL     1       1.509   3.869  18.347  0.00  0.00    +0.000 A 
ENDBRANCH   2  17
TORSDOF 2
ENDMDL
