MODEL 1
REMARK VINA RESULT:      -8.8      0.000      0.000
REMARK  Name = 
REMARK  3 active torsions:
REMARK  status: ('A' for Active; 'I' for Inactive)
REMARK    1  A    between atoms: C_7  and  C_8
REMARK    2  A    between atoms: N_10  and  C_11
REMARK    3  A    between atoms: C_11  and  C_12
REMARK                            x       y       z     vdW  Elec       q    Type
REMARK                         _______ _______ _______ _____ _____    ______ ____
ROOT
ATOM      1  C   UNL     1       4.657   4.459  18.787  0.00  0.00    +0.000 A 
ATOM      2  C   UNL     1       4.360   5.527  19.598  0.00  0.00    +0.000 A 
ATOM      3  N   UNL     1       3.018   5.462  19.890  0.00  0.00    +0.000 N 
ATOM      4  C   UNL     1       2.480   4.285  19.399  0.00  0.00    +0.000 A 
ATOM      5  C   UNL     1       1.183   3.756  19.484  0.00  0.00    +0.000 A 
ATOM      6  C   UNL     1       0.926   2.537  18.848  0.00  0.00    +0.000 A 
ATOM      7  C   UNL     1       1.926   1.868  18.149  0.00  0.00    +0.000 A 
ATOM      8  C   UNL     1       3.215   2.406  18.065  0.00  0.00    +0.000 A 
ATOM      9  C   UNL     1       3.501   3.633  18.701  0.00  0.00    +0.000 A 
ENDROOT
BRANCH   1  16
ATOM     10  O   UNL     1       8.158   5.344  14.178  0.00  0.00    +0.000 OA
ATOM     11  C   UNL     1       7.278   5.308  15.022  0.00  0.00    +0.000 C 
ATOM     12  N   UNL     1       6.063   5.934  14.948  0.00  0.00    +0.000 N 
ATOM     13  C   UNL     1       5.333   5.744  16.093  0.00  0.00    +0.000 C 
ATOM     14  O   UNL     1       4.269   6.263  16.358  0.00  0.00    +0.000 OA
ATOM     15  C   UNL     1       6.181   4.827  16.928  0.00  0.00    +0.000 C 
ATOM     16  C   UNL     1       5.894   4.281  18.116  0.00  0.00    +0.000 C 
ATOM     17  N   UNL     1       7.338   4.631  16.227  0.00  0.00    +0.000 N 
ATOM     18  H   UNL     1       5.771   6.523  14.191  0.00  0.00    +0.000 HD
ATOM     19  H   UNL     1       8.132   4.078  16.507  0.00  0.00    +0.000 HD
ENDBRANCH   1  16
BRANCH   3  20
ATOM     20  C   UNL     1       2.299   6.470  20.658  0.00  0.00    +0.000 C 
BRANCH  20  21
ATOM     21  C   UNL     1       1.854   7.654  19.837  0.00  0.00    +0.000 A 
ATOM     22  C   UNL     1       2.239   7.810  18.496  0.00  0.00    +0.000 A 
ATOM     23  C   UNL     1       1.989   9.006  17.815  0.00  0.00    +0.000 A 
ATOM     24  C   UNL     1       1.329  10.052  18.458  0.00  0.00    +0.000 A 
ATOM     25  C   UNL     1       0.885   9.887  19.767  0.00  0.00    +0.000 A 
ATOM     26  C   UNL     1       1.149   8.697  20.442  0.00  0.00    +0.000 A 
ATOM     27  F   UNL     1       0.744   8.580  21.716  0.00  0.00    +0.000 F 
ENDBRANCH  20  21
ENDBRANCH   3  20
TORSDOF 3
ENDMDL
MODEL 2
REMARK VINA RESULT:      -8.7      3.015      6.255
REMARK  Name = 
REMARK  3 active torsions:
REMARK  status: ('A' for Active; 'I' for Inactive)
REMARK    1  A    between atoms: C_7  and  C_8
REMARK    2  A    between atoms: N_10  and  C_11
REMARK    3  A    between atoms: C_11  and  C_12
REMARK                            x       y       z     vdW  Elec       q    Type
REMARK                         _______ _______ _______ _____ _____    ______ ____
ROOT
ATOM      1  C   UNL     1       3.655   6.842  17.516  0.00  0.00    +0.000 A 
ATOM      2  C   UNL     1       2.928   5.694  17.713  0.00  0.00    +0.000 A 
ATOM      3  N   UNL     1       3.818   4.646  17.757  0.00  0.00    +0.000 N 
ATOM      4  C   UNL     1       5.116   5.123  17.740  0.00  0.00    +0.000 A 
ATOM      5  C   UNL     1       6.348   4.454  17.812  0.00  0.00    +0.000 A 
ATOM      6  C   UNL     1       7.517   5.216  17.737  0.00  0.00    +0.000 A 
ATOM      7  C   UNL     1       7.464   6.599  17.591  0.00  0.00    +0.000 A 
ATOM      8  C   UNL     1       6.233   7.258  17.514  0.00  0.00    +0.000 A 
ATOM      9  C   UNL     1       5.037   6.512  17.592  0.00  0.00    +0.000 A 
ENDROOT
BRANCH   1  16
ATOM     10  O   UNL     1       0.197  11.354  18.921  0.00  0.00    +0.000 OA
ATOM     11  C   UNL     1       0.861  10.334  18.849  0.00  0.00    +0.000 C 
ATOM     12  N   UNL     1       0.950   9.359  19.805  0.00  0.00    +0.000 N 
ATOM     13  C   UNL     1       1.833   8.377  19.438  0.00  0.00    +0.000 C 
ATOM     14  O   UNL     1       2.195   7.446  20.125  0.00  0.00    +0.000 OA
ATOM     15  C   UNL     1       2.275   8.771  18.057  0.00  0.00    +0.000 C 
ATOM     16  C   UNL     1       3.088   8.110  17.224  0.00  0.00    +0.000 C 
ATOM     17  N   UNL     1       1.666   9.964  17.786  0.00  0.00    +0.000 N 
ATOM     18  H   UNL     1       0.491   9.392  20.696  0.00  0.00    +0.000 HD
ATOM     19  H   UNL     1       1.757  10.517  16.948  0.00  0.00    +0.000 HD
ENDBRANCH   1  16
BRANCH   3  20
ATOM     20  C   UNL     1       3.427   3.247  17.866  0.00  0.00    +0.000 C 
BRANCH  20  21
ATOM     21  C   UNL     1       2.685   2.923  19.137  0.00  0.00    +0.000 A 
ATOM     22  C   UNL     1       1.286   3.015  19.221  0.00  0.00    +0.000 A 
ATOM     23  C   UNL     1       0.635   2.909  20.453  0.00  0.00    +0.000 A 
ATOM     24  C   UNL     1       1.370   2.687  21.616  0.00  0.00    +0.000 A 
ATOM     25  C   UNL     1       2.752   2.530  21.540  0.00  0.00    +0.000 A 
ATOM     26  C   UNL     1       3.394   2.649  20.309  0.00  0.00    +0.000 A 
ATOM     27  F   UNL     1       4.731   2.533  20.270  0.00  0.00    +0.000 F 
ENDBRANCH  20  21
ENDBRANCH   3  20
TORSDOF 3
ENDMDL
MODEL 3
REMARK VINA RESULT:      -8.6      3.066      5.031
REMARK  Name = 
REMARK  3 active torsions:
REMARK  status: ('A' for Active; 'I' for Inactive)
REMARK    1  A    between atoms: C_7  and  C_8
REMARK    2  A    between atoms: N_10  and  C_11
REMARK    3  A    between atoms: C_11  and  C_12
REMARK                            x       y       z     vdW  Elec       q    Type
REMARK                         _______ _______ _______ _____ _____    ______ ____
ROOT
ATOM      1  C   UNL     1       6.698   4.830  17.772  0.00  0.00    +0.000 A 
ATOM      2  C   UNL     1       5.602   4.209  18.317  0.00  0.00    +0.000 A 
ATOM      3  N   UNL     1       4.823   3.760  17.276  0.00  0.00    +0.000 N 
ATOM      4  C   UNL     1       5.478   3.953  16.073  0.00  0.00    +0.000 A 
ATOM      5  C   UNL     1       5.114   3.624  14.759  0.00  0.00    +0.000 A 
ATOM      6  C   UNL     1       5.983   3.982  13.724  0.00  0.00    +0.000 A 
ATOM      7  C   UNL     1       7.175   4.650  13.988  0.00  0.00    +0.000 A 
ATOM      8  C   UNL     1       7.527   4.981  15.301  0.00  0.00    +0.000 A 
ATOM      9  C   UNL     1       6.669   4.626  16.363  0.00  0.00    +0.000 A 
ENDROOT
BRANCH   1  16
ATOM     10  O   UNL     1       9.321   9.911  19.032  0.00  0.00    +0.000 OA
ATOM     11  C   UNL     1       8.637   8.988  18.625  0.00  0.00    +0.000 C 
ATOM     12  N   UNL     1       7.639   9.073  17.691  0.00  0.00    +0.000 N 
ATOM     13  C   UNL     1       7.024   7.862  17.506  0.00  0.00    +0.000 C 
ATOM     14  O   UNL     1       6.042   7.654  16.824  0.00  0.00    +0.000 OA
ATOM     15  C   UNL     1       7.795   6.913  18.380  0.00  0.00    +0.000 C 
ATOM     16  C   UNL     1       7.639   5.591  18.512  0.00  0.00    +0.000 C 
ATOM     17  N   UNL     1       8.729   7.669  19.033  0.00  0.00    +0.000 N 
ATOM     18  H   UNL     1       7.340   9.924  17.253  0.00  0.00    +0.000 HD
ATOM     19  H   UNL     1       9.404   7.350  19.709  0.00  0.00    +0.000 HD
ENDBRANCH   1  16
BRANCH   3  20
ATOM     20  C   UNL     1       3.524   3.121  17.444  0.00  0.00    +0.000 C 
BRANCH  20  21
ATOM     21  C   UNL     1       2.907   3.349  18.800  0.00  0.00    +0.000 A 
ATOM     22  C   UNL     1       3.181   2.506  19.889  0.00  0.00    +0.000 A 
ATOM     23  C   UNL     1       2.449   2.610  21.075  0.00  0.00    +0.000 A 
ATOM     24  C   UNL     1       1.451   3.574  21.199  0.00  0.00    +0.000 A 
ATOM     25  C   UNL     1       1.211   4.459  20.151  0.00  0.00    +0.000 A 
ATOM     26  C   UNL     1       1.937   4.341  18.967  0.00  0.00    +0.000 A 
ATOM     27  F   UNL     1       1.659   5.181  17.959  0.00  0.00    +0.000 F 
ENDBRANCH  20  21
ENDBRANCH   3  20
TORSDOF 3
ENDMDL
MODEL 4
REMARK VINA RESULT:      -8.6      2.842      5.935
REMARK  Name = 
REMARK  3 active torsions:
REMARK  status: ('A' for Active; 'I' for Inactive)
REMARK    1  A    between atoms: C_7  and  C_8
REMARK    2  A    between atoms: N_10  and  C_11
REMARK    3  A    between atoms: C_11  and  C_12
REMARK                            x       y       z     vdW  Elec       q    Type
REMARK                         _______ _______ _______ _____ _____    ______ ____
ROOT
ATOM      1  C   UNL     1       2.593   6.212  19.821  0.00  0.00    +0.000 A 
ATOM      2  C   UNL     1       3.882   6.195  19.350  0.00  0.00    +0.000 A 
ATOM      3  N   UNL     1       4.242   4.878  19.182  0.00  0.00    +0.000 N 
ATOM      4  C   UNL     1       3.150   4.056  19.397  0.00  0.00    +0.000 A 
ATOM      5  C   UNL     1       3.010   2.662  19.303  0.00  0.00    +0.000 A 
ATOM      6  C   UNL     1       1.769   2.102  19.619  0.00  0.00    +0.000 A 
ATOM      7  C   UNL     1       0.702   2.901  20.020  0.00  0.00    +0.000 A 
ATOM      8  C   UNL     1       0.852   4.288  20.118  0.00  0.00    +0.000 A 
ATOM      9  C   UNL     1       2.094   4.879  19.799  0.00  0.00    +0.000 A 
ENDROOT
BRANCH   1  16
ATOM     10  O   UNL     1       0.511  11.625  19.012  0.00  0.00    +0.000 OA
ATOM     11  C   UNL     1       0.995  10.508  18.945  0.00  0.00    +0.000 C 
ATOM     12  N   UNL     1       1.543   9.931  17.831  0.00  0.00    +0.000 N 
ATOM     13  C   UNL     1       1.938   8.642  18.078  0.00  0.00    +0.000 C 
ATOM     14  O   UNL     1       2.357   7.852  17.259  0.00  0.00    +0.000 OA
ATOM     15  C   UNL     1       1.662   8.441  19.542  0.00  0.00    +0.000 C 
ATOM     16  C   UNL     1       1.930   7.371  20.300  0.00  0.00    +0.000 C 
ATOM     17  N   UNL     1       1.077   9.596  19.982  0.00  0.00    +0.000 N 
ATOM     18  H   UNL     1       1.583  10.363  16.927  0.00  0.00    +0.000 HD
ATOM     19  H   UNL     1       0.751   9.795  20.914  0.00  0.00    +0.000 HD
ENDBRANCH   1  16
BRANCH   3  20
ATOM     20  C   UNL     1       5.571   4.439  18.777  0.00  0.00    +0.000 C 
BRANCH  20  21
ATOM     21  C   UNL     1       5.836   4.595  17.302  0.00  0.00    +0.000 A 
ATOM     22  C   UNL     1       4.946   4.104  16.333  0.00  0.00    +0.000 A 
ATOM     23  C   UNL     1       5.303   4.077  14.982  0.00  0.00    +0.000 A 
ATOM     24  C   UNL     1       6.545   4.562  14.576  0.00  0.00    +0.000 A 
ATOM     25  C   UNL     1       7.413   5.110  15.518  0.00  0.00    +0.000 A 
ATOM     26  C   UNL     1       7.054   5.122  16.864  0.00  0.00    +0.000 A 
ATOM     27  F   UNL     1       7.926   5.620  17.754  0.00  0.00    +0.000 F 
ENDBRANCH  20  21
ENDBRANCH   3  20
TORSDOF 3
ENDMDL
MODEL 5
REMARK VINA RESULT:      -8.4      3.089      6.015
REMARK  Name = 
REMARK  3 active torsions:
REMARK  status: ('A' for Active; 'I' for Inactive)
REMARK    1  A    between atoms: C_7  and  C_8
REMARK    2  A    between atoms: N_10  and  C_11
REMARK    3  A    between atoms: C_11  and  C_12
REMARK                            x       y       z     vdW  Elec       q    Type
REMARK                         _______ _______ _______ _____ _____    ______ ____
ROOT
ATOM      1  C   UNL     1       2.280   6.062  19.816  0.00  0.00    +0.000 A 
ATOM      2  C   UNL     1       3.263   6.327  18.895  0.00  0.00    +0.000 A 
ATOM      3  N   UNL     1       3.504   5.163  18.203  0.00  0.00    +0.000 N 
ATOM      4  C   UNL     1       2.585   4.195  18.566  0.00  0.00    +0.000 A 
ATOM      5  C   UNL     1       2.400   2.880  18.110  0.00  0.00    +0.000 A 
ATOM      6  C   UNL     1       1.389   2.115  18.701  0.00  0.00    +0.000 A 
ATOM      7  C   UNL     1       0.591   2.640  19.713  0.00  0.00    +0.000 A 
ATOM      8  C   UNL     1       0.787   3.948  20.165  0.00  0.00    +0.000 A 
ATOM      9  C   UNL     1       1.797   4.743  19.583  0.00  0.00    +0.000 A 
ENDROOT
BRANCH   1  16
ATOM     10  O   UNL     1       0.518  11.343  21.630  0.00  0.00    +0.000 OA
ATOM     11  C   UNL     1       0.864  10.339  21.032  0.00  0.00    +0.000 C 
ATOM     12  N   UNL     1       1.012  10.217  19.676  0.00  0.00    +0.000 N 
ATOM     13  C   UNL     1       1.351   8.937  19.323  0.00  0.00    +0.000 C 
ATOM     14  O   UNL     1       1.444   8.506  18.193  0.00  0.00    +0.000 OA
ATOM     15  C   UNL     1       1.500   8.215  20.633  0.00  0.00    +0.000 C 
ATOM     16  C   UNL     1       1.886   6.952  20.848  0.00  0.00    +0.000 C 
ATOM     17  N   UNL     1       1.170   9.118  21.606  0.00  0.00    +0.000 N 
ATOM     18  H   UNL     1       0.821  10.946  19.015  0.00  0.00    +0.000 HD
ATOM     19  H   UNL     1       1.149   8.958  22.601  0.00  0.00    +0.000 HD
ENDBRANCH   1  16
BRANCH   3  20
ATOM     20  C   UNL     1       4.545   5.013  17.194  0.00  0.00    +0.000 C 
BRANCH  20  21
ATOM     21  C   UNL     1       5.864   5.625  17.590  0.00  0.00    +0.000 A 
ATOM     22  C   UNL     1       6.624   5.120  18.658  0.00  0.00    +0.000 A 
ATOM     23  C   UNL     1       7.736   5.819  19.137  0.00  0.00    +0.000 A 
ATOM     24  C   UNL     1       8.118   7.019  18.542  0.00  0.00    +0.000 A 
ATOM     25  C   UNL     1       7.412   7.500  17.442  0.00  0.00    +0.000 A 
ATOM     26  C   UNL     1       6.298   6.803  16.977  0.00  0.00    +0.000 A 
ATOM     27  F   UNL     1       5.613   7.310  15.941  0.00  0.00    +0.000 F 
ENDBRANCH  20  21
ENDBRANCH   3  20
TORSDOF 3
ENDMDL
MODEL 6
REMARK VINA RESULT:      -8.4      3.169      6.128
REMARK  Name = 
REMARK  3 active torsions:
REMARK  status: ('A' for Active; 'I' for Inactive)
REMARK    1  A    between atoms: C_7  and  C_8
REMARK    2  A    between atoms: N_10  and  C_11
REMARK    3  A    between atoms: C_11  and  C_12
REMARK                            x       y       z     vdW  Elec       q    Type
REMARK                         _______ _______ _______ _____ _____    ______ ____
ROOT
ATOM      1  C   UNL     1       2.059   6.161  19.947  0.00  0.00    +0.000 A 
ATOM      2  C   UNL     1       3.022   6.595  19.069  0.00  0.00    +0.000 A 
ATOM      3  N   UNL     1       3.381   5.521  18.288  0.00  0.00    +0.000 N 
ATOM      4  C   UNL     1       2.556   4.443  18.554  0.00  0.00    +0.000 A 
ATOM      5  C   UNL     1       2.503   3.159  17.988  0.00  0.00    +0.000 A 
ATOM      6  C   UNL     1       1.565   2.255  18.495  0.00  0.00    +0.000 A 
ATOM      7  C   UNL     1       0.710   2.614  19.532  0.00  0.00    +0.000 A 
ATOM      8  C   UNL     1       0.774   3.893  20.094  0.00  0.00    +0.000 A 
ATOM      9  C   UNL     1       1.709   4.826  19.598  0.00  0.00    +0.000 A 
ENDROOT
BRANCH   1  16
ATOM     10  O   UNL     1       0.144  11.197  22.240  0.00  0.00    +0.000 OA
ATOM     11  C   UNL     1       0.544  10.271  21.555  0.00  0.00    +0.000 C 
ATOM     12  N   UNL     1       0.819  10.318  20.215  0.00  0.00    +0.000 N 
ATOM     13  C   UNL     1       1.187   9.087  19.736  0.00  0.00    +0.000 C 
ATOM     14  O   UNL     1       1.386   8.801  18.575  0.00  0.00    +0.000 OA
ATOM     15  C   UNL     1       1.210   8.206  20.953  0.00  0.00    +0.000 C 
ATOM     16  C   UNL     1       1.571   6.920  21.042  0.00  0.00    +0.000 C 
ATOM     17  N   UNL     1       0.791   8.983  21.996  0.00  0.00    +0.000 N 
ATOM     18  H   UNL     1       0.693  11.127  19.636  0.00  0.00    +0.000 HD
ATOM     19  H   UNL     1       0.675   8.701  22.957  0.00  0.00    +0.000 HD
ENDBRANCH   1  16
BRANCH   3  20
ATOM     20  C   UNL     1       4.441   5.556  17.289  0.00  0.00    +0.000 C 
BRANCH  20  21
ATOM     21  C   UNL     1       5.732   6.146  17.797  0.00  0.00    +0.000 A 
ATOM     22  C   UNL     1       6.332   7.255  17.179  0.00  0.00    +0.000 A 
ATOM     23  C   UNL     1       7.622   7.660  17.534  0.00  0.00    +0.000 A 
ATOM     24  C   UNL     1       8.321   6.977  18.527  0.00  0.00    +0.000 A 
ATOM     25  C   UNL     1       7.715   5.914  19.192  0.00  0.00    +0.000 A 
ATOM     26  C   UNL     1       6.433   5.510  18.825  0.00  0.00    +0.000 A 
ATOM     27  F   UNL     1       5.888   4.458  19.455  0.00  0.00    +0.000 F 
ENDBRANCH  20  21
ENDBRANCH   3  20
TORSDOF 3
ENDMDL
MODEL 7
REMARK VINA RESULT:      -8.4      3.038      5.013
REMARK  Name = 
REMARK  3 active torsions:
REMARK  status: ('A' for Active; 'I' for Inactive)
REMARK    1  A    between atoms: C_7  and  C_8
REMARK    2  A    between atoms: N_10  and  C_11
REMARK    3  A    between atoms: C_11  and  C_12
REMARK                            x       y       z     vdW  Elec       q    Type
REMARK                         _______ _______ _______ _____ _____    ______ ____
ROOT
ATOM      1  C   UNL     1       6.439   4.756  17.527  0.00  0.00    +0.000 A 
ATOM      2  C   UNL     1       5.270   4.219  18.008  0.00  0.00    +0.000 A 
ATOM      3  N   UNL     1       4.515   3.838  16.923  0.00  0.00    +0.000 N 
ATOM      4  C   UNL     1       5.247   3.987  15.758  0.00  0.00    +0.000 A 
ATOM      5  C   UNL     1       4.929   3.694  14.423  0.00  0.00    +0.000 A 
ATOM      6  C   UNL     1       5.877   3.990  13.440  0.00  0.00    +0.000 A 
ATOM      7  C   UNL     1       7.101   4.561  13.773  0.00  0.00    +0.000 A 
ATOM      8  C   UNL     1       7.408   4.856  15.105  0.00  0.00    +0.000 A 
ATOM      9  C   UNL     1       6.469   4.563  16.117  0.00  0.00    +0.000 A 
ENDROOT
BRANCH   1  16
ATOM     10  O   UNL     1       9.303   9.633  19.043  0.00  0.00    +0.000 OA
ATOM     11  C   UNL     1       8.582   8.764  18.582  0.00  0.00    +0.000 C 
ATOM     12  N   UNL     1       7.625   8.936  17.619  0.00  0.00    +0.000 N 
ATOM     13  C   UNL     1       6.948   7.770  17.373  0.00  0.00    +0.000 C 
ATOM     14  O   UNL     1       5.981   7.642  16.652  0.00  0.00    +0.000 OA
ATOM     15  C   UNL     1       7.631   6.751  18.241  0.00  0.00    +0.000 C 
ATOM     16  C   UNL     1       7.395   5.437  18.324  0.00  0.00    +0.000 C 
ATOM     17  N   UNL     1       8.583   7.430  18.950  0.00  0.00    +0.000 N 
ATOM     18  H   UNL     1       7.391   9.817  17.200  0.00  0.00    +0.000 HD
ATOM     19  H   UNL     1       9.214   7.051  19.638  0.00  0.00    +0.000 HD
ENDBRANCH   1  16
BRANCH   3  20
ATOM     20  C   UNL     1       3.163   3.302  17.015  0.00  0.00    +0.000 C 
BRANCH  20  21
ATOM     21  C   UNL     1       2.453   3.667  18.293  0.00  0.00    +0.000 A 
ATOM     22  C   UNL     1       2.207   5.004  18.646  0.00  0.00    +0.000 A 
ATOM     23  C   UNL     1       1.733   5.331  19.920  0.00  0.00    +0.000 A 
ATOM     24  C   UNL     1       1.477   4.326  20.851  0.00  0.00    +0.000 A 
ATOM     25  C   UNL     1       1.656   2.992  20.494  0.00  0.00    +0.000 A 
ATOM     26  C   UNL     1       2.139   2.675  19.226  0.00  0.00    +0.000 A 
ATOM     27  F   UNL     1       2.340   1.384  18.921  0.00  0.00    +0.000 F 
ENDBRANCH  20  21
ENDBRANCH   3  20
TORSDOF 3
ENDMDL
MODEL 8
REMARK VINA RESULT:      -8.3      1.303      1.719
REMARK  Name = 
REMARK  3 active torsions:
REMARK  status: ('A' for Active; 'I' for Inactive)
REMARK    1  A    between atoms: C_7  and  C_8
REMARK    2  A    between atoms: N_10  and  C_11
REMARK    3  A    between atoms: C_11  and  C_12
REMARK                            x       y       z     vdW  Elec       q    Type
REMARK                         _______ _______ _______ _____ _____    ______ ____
ROOT
ATOM      1  C   UNL     1       3.240   5.616  18.031  0.00  0.00    +0.000 A 
ATOM      2  C   UNL     1       3.120   6.728  18.829  0.00  0.00    +0.000 A 
ATOM      3  N   UNL     1       2.273   6.402  19.862  0.00  0.00    +0.000 N 
ATOM      4  C   UNL     1       1.966   5.054  19.820  0.00  0.00    +0.000 A 
ATOM      5  C   UNL     1       1.187   4.256  20.673  0.00  0.00    +0.000 A 
ATOM      6  C   UNL     1       1.029   2.905  20.348  0.00  0.00    +0.000 A 
ATOM      7  C   UNL     1       1.623   2.366  19.211  0.00  0.00    +0.000 A 
ATOM      8  C   UNL     1       2.392   3.170  18.364  0.00  0.00    +0.000 A 
ATOM      9  C   UNL     1       2.571   4.535  18.671  0.00  0.00    +0.000 A 
ENDROOT
BRANCH   1  16
ATOM     10  O   UNL     1       7.974   4.823  14.677  0.00  0.00    +0.000 OA
ATOM     11  C   UNL     1       7.131   4.911  15.553  0.00  0.00    +0.000 C 
ATOM     12  N   UNL     1       7.318   4.643  16.882  0.00  0.00    +0.000 N 
ATOM     13  C   UNL     1       6.151   4.776  17.588  0.00  0.00    +0.000 C 
ATOM     14  O   UNL     1       5.986   4.503  18.758  0.00  0.00    +0.000 OA
ATOM     15  C   UNL     1       5.153   5.258  16.573  0.00  0.00    +0.000 C 
ATOM     16  C   UNL     1       3.875   5.605  16.762  0.00  0.00    +0.000 C 
ATOM     17  N   UNL     1       5.813   5.290  15.375  0.00  0.00    +0.000 N 
ATOM     18  H   UNL     1       8.177   4.314  17.282  0.00  0.00    +0.000 HD
ATOM     19  H   UNL     1       5.433   5.554  14.480  0.00  0.00    +0.000 HD
ENDBRANCH   1  16
BRANCH   3  20
ATOM     20  C   UNL     1       1.824   7.345  20.878  0.00  0.00    +0.000 C 
BRANCH  20  21
ATOM     21  C   UNL     1       1.077   8.529  20.318  0.00  0.00    +0.000 A 
ATOM     22  C   UNL     1       1.440   9.123  19.099  0.00  0.00    +0.000 A 
ATOM     23  C   UNL     1       0.871  10.335  18.698  0.00  0.00    +0.000 A 
ATOM     24  C   UNL     1      -0.086  10.958  19.497  0.00  0.00    +0.000 A 
ATOM     25  C   UNL     1      -0.502  10.348  20.677  0.00  0.00    +0.000 A 
ATOM     26  C   UNL     1       0.078   9.146  21.076  0.00  0.00    +0.000 A 
ATOM     27  F   UNL     1      -0.313   8.600  22.238  0.00  0.00    +0.000 F 
ENDBRANCH  20  21
ENDBRANCH   3  20
TORSDOF 3
ENDMDL
MODEL 9
REMARK VINA RESULT:      -8.0      2.783      5.781
REMARK  Name = 
REMARK  3 active torsions:
REMARK  status: ('A' for Active; 'I' for Inactive)
REMARK    1  A    between atoms: C_7  and  C_8
REMARK    2  A    between atoms: N_10  and  C_11
REMARK    3  A    between atoms: C_11  and  C_12
REMARK                            x       y       z     vdW  Elec       q    Type
REMARK                         _______ _______ _______ _____ _____    ______ ____
ROOT
ATOM      1  C   UNL     1       2.591   6.264  19.919  0.00  0.00    +0.000 A 
ATOM      2  C   UNL     1       3.888   6.211  19.472  0.00  0.00    +0.000 A 
ATOM      3  N   UNL     1       4.242   4.885  19.391  0.00  0.00    +0.000 N 
ATOM      4  C   UNL     1       3.143   4.083  19.639  0.00  0.00    +0.000 A 
ATOM      5  C   UNL     1       2.996   2.687  19.628  0.00  0.00    +0.000 A 
ATOM      6  C   UNL     1       1.746   2.153  19.958  0.00  0.00    +0.000 A 
ATOM      7  C   UNL     1       0.678   2.981  20.290  0.00  0.00    +0.000 A 
ATOM      8  C   UNL     1       0.835   4.370  20.305  0.00  0.00    +0.000 A 
ATOM      9  C   UNL     1       2.085   4.934  19.971  0.00  0.00    +0.000 A 
ENDROOT
BRANCH   1  16
ATOM     10  O   UNL     1       0.571  11.634  18.748  0.00  0.00    +0.000 OA
ATOM     11  C   UNL     1       1.047  10.511  18.758  0.00  0.00    +0.000 C 
ATOM     12  N   UNL     1       1.616   9.867  17.692  0.00  0.00    +0.000 N 
ATOM     13  C   UNL     1       1.994   8.592  18.023  0.00  0.00    +0.000 C 
ATOM     14  O   UNL     1       2.425   7.752  17.261  0.00  0.00    +0.000 OA
ATOM     15  C   UNL     1       1.684   8.479  19.489  0.00  0.00    +0.000 C 
ATOM     16  C   UNL     1       1.926   7.453  20.314  0.00  0.00    +0.000 C 
ATOM     17  N   UNL     1       1.100   9.662  19.848  0.00  0.00    +0.000 N 
ATOM     18  H   UNL     1       1.679  10.245  16.765  0.00  0.00    +0.000 HD
ATOM     19  H   UNL     1       0.754   9.917  20.760  0.00  0.00    +0.000 HD
ENDBRANCH   1  16
BRANCH   3  20
ATOM     20  C   UNL     1       5.575   4.415  19.036  0.00  0.00    +0.000 C 
BRANCH  20  21
ATOM     21  C   UNL     1       5.922   4.620  17.584  0.00  0.00    +0.000 A 
ATOM     22  C   UNL     1       6.809   5.627  17.170  0.00  0.00    +0.000 A 
ATOM     23  C   UNL     1       6.961   5.932  15.814  0.00  0.00    +0.000 A 
ATOM     24  C   UNL     1       6.247   5.220  14.852  0.00  0.00    +0.000 A 
ATOM     25  C   UNL     1       5.413   4.177  15.244  0.00  0.00    +0.000 A 
ATOM     26  C   UNL     1       5.258   3.886  16.598  0.00  0.00    +0.000 A 
ATOM     27  F   UNL     1       4.417   2.901  16.949  0.00  0.00    +0.000 F 
ENDBRANCH  20  21
ENDBRANCH   3  20
TORSDOF 3
ENDMDL
