MODEL 1
REMARK VINA RESULT:      -7.6      0.000      0.000
REMARK  Name = 
REMARK  5 active torsions:
REMARK  status: ('A' for Active; 'I' for Inactive)
REMARK    1  A    between atoms: N_4  and  C_5
REMARK    2  A    between atoms: C_8  and  C_9
REMARK    3  A    between atoms: C_11  and  O_12
REMARK    4  A    between atoms: C_13  and  N_14
REMARK    5  A    between atoms: C_19  and  N_20
REMARK                            x       y       z     vdW  Elec       q    Type
REMARK                         _______ _______ _______ _____ _____    ______ ____
ROOT
ATOM      1  C   UNL     1       3.606   6.428  19.316  0.00  0.00    +0.000 C 
ATOM      2  C   UNL     1       3.129   5.233  20.191  0.00  0.00    +0.000 C 
ATOM      3  C   UNL     1       2.106   4.311  19.513  0.00  0.00    +0.000 C 
ATOM      4  C   UNL     1       2.540   3.830  18.107  0.00  0.00    +0.000 C 
ATOM      5  C   UNL     1       3.075   4.994  17.253  0.00  0.00    +0.000 C 
ATOM      6  C   UNL     1       4.136   5.859  17.960  0.00  0.00    +0.000 C 
ENDROOT
BRANCH   4   7
ATOM      7  N   UNL     1       3.553   2.774  18.199  0.00  0.00    +0.000 N 
ATOM      8  C   UNL     1       3.304   1.516  18.626  0.00  0.00    +0.000 C 
ATOM      9  N   UNL     1       2.262   1.027  19.182  0.00  0.00    +0.000 NA
ATOM     10  N   UNL     1       4.361   0.710  18.416  0.00  0.00    +0.000 N 
ATOM     11  H   UNL     1       4.159   2.752  17.379  0.00  0.00    +0.000 HD
ATOM     12  H   UNL     1       1.525   1.728  19.269  0.00  0.00    +0.000 HD
ATOM     13  H   UNL     1       5.233   1.099  18.742  0.00  0.00    +0.000 HD
ATOM     14  H   UNL     1       4.182  -0.183  18.869  0.00  0.00    +0.000 HD
ENDBRANCH   4   7
BRANCH   6  15
ATOM     15  N   UNL     1       5.360   5.092  18.171  0.00  0.00    +0.000 N 
ATOM     16  C   UNL     1       6.520   5.203  17.496  0.00  0.00    +0.000 C 
ATOM     17  N   UNL     1       6.821   6.005  16.545  0.00  0.00    +0.000 NA
ATOM     18  N   UNL     1       7.460   4.355  17.950  0.00  0.00    +0.000 N 
ATOM     19  H   UNL     1       5.259   4.247  18.717  0.00  0.00    +0.000 HD
ATOM     20  H   UNL     1       6.031   6.608  16.323  0.00  0.00    +0.000 HD
ATOM     21  H   UNL     1       7.164   3.412  18.145  0.00  0.00    +0.000 HD
ATOM     22  H   UNL     1       8.278   4.382  17.349  0.00  0.00    +0.000 HD
ENDBRANCH   6  15
BRANCH   1  26
ATOM     23  C   UNL     1       0.912   9.856  18.972  0.00  0.00    +0.000 A 
ATOM     24  C   UNL     1       1.576   9.336  17.861  0.00  0.00    +0.000 A 
ATOM     25  C   UNL     1       2.339   8.174  17.940  0.00  0.00    +0.000 A 
ATOM     26  C   UNL     1       2.536   7.522  19.168  0.00  0.00    +0.000 A 
ATOM     27  C   UNL     1       1.736   7.947  20.238  0.00  0.00    +0.000 A 
ATOM     28  C   UNL     1       0.942   9.096  20.139  0.00  0.00    +0.000 A 
BRANCH  23  32
ATOM     29  N   UNL     1      -1.568  10.471  17.370  0.00  0.00    +0.000 NA
ATOM     30  C   UNL     1      -0.968  11.275  18.172  0.00  0.00    +0.000 C 
ATOM     31  N   UNL     1      -1.481  12.503  18.423  0.00  0.00    +0.000 N 
ATOM     32  N   UNL     1       0.202  11.056  18.824  0.00  0.00    +0.000 N 
ATOM     33  H   UNL     1      -2.426  10.890  17.022  0.00  0.00    +0.000 HD
ATOM     34  H   UNL     1      -2.164  12.827  17.749  0.00  0.00    +0.000 HD
ATOM     35  H   UNL     1      -0.815  13.230  18.646  0.00  0.00    +0.000 HD
ATOM     36  H   UNL     1       0.535  11.790  19.430  0.00  0.00    +0.000 HD
ENDBRANCH  23  32
ENDBRANCH   1  26
BRANCH   3  37
ATOM     37  O   UNL     1       0.804   4.894  19.462  0.00  0.00    +0.000 OA
ATOM     38  H   UNL     1       0.126   4.208  19.582  0.00  0.00    +0.000 HD
ENDBRANCH   3  37
TORSDOF 5
ENDMDL
MODEL 2
REMARK VINA RESULT:      -7.4      1.091      1.281
REMARK  Name = 
REMARK  5 active torsions:
REMARK  status: ('A' for Active; 'I' for Inactive)
REMARK    1  A    between atoms: N_4  and  C_5
REMARK    2  A    between atoms: C_8  and  C_9
REMARK    3  A    between atoms: C_11  and  O_12
REMARK    4  A    between atoms: C_13  and  N_14
REMARK    5  A    between atoms: C_19  and  N_20
REMARK                            x       y       z     vdW  Elec       q    Type
REMARK                         _______ _______ _______ _____ _____    ______ ____
ROOT
ATOM      1  C   UNL     1       3.093   6.710  19.584  0.00  0.00    +0.000 C 
ATOM      2  C   UNL     1       2.748   5.707  20.722  0.00  0.00    +0.000 C 
ATOM      3  C   UNL     1       1.620   4.722  20.388  0.00  0.00    +0.000 C 
ATOM      4  C   UNL     1       1.818   3.985  19.041  0.00  0.00    +0.000 C 
ATOM      5  C   UNL     1       2.223   4.958  17.920  0.00  0.00    +0.000 C 
ATOM      6  C   UNL     1       3.392   5.891  18.286  0.00  0.00    +0.000 C 
ENDROOT
BRANCH   4   7
ATOM      7  N   UNL     1       2.820   2.922  19.163  0.00  0.00    +0.000 N 
ATOM      8  C   UNL     1       2.994   1.933  18.259  0.00  0.00    +0.000 C 
ATOM      9  N   UNL     1       2.274   1.597  17.257  0.00  0.00    +0.000 NA
ATOM     10  N   UNL     1       4.107   1.222  18.518  0.00  0.00    +0.000 N 
ATOM     11  H   UNL     1       3.725   3.281  19.468  0.00  0.00    +0.000 HD
ATOM     12  H   UNL     1       1.472   2.221  17.153  0.00  0.00    +0.000 HD
ATOM     13  H   UNL     1       4.179   0.928  19.481  0.00  0.00    +0.000 HD
ATOM     14  H   UNL     1       4.127   0.414  17.901  0.00  0.00    +0.000 HD
ENDBRANCH   4   7
BRANCH   6  15
ATOM     15  N   UNL     1       4.626   5.125  18.438  0.00  0.00    +0.000 N 
ATOM     16  C   UNL     1       5.482   4.752  17.468  0.00  0.00    +0.000 C 
ATOM     17  N   UNL     1       5.424   4.993  16.212  0.00  0.00    +0.000 NA
ATOM     18  N   UNL     1       6.533   4.064  17.948  0.00  0.00    +0.000 N 
ATOM     19  H   UNL     1       4.732   4.637  19.317  0.00  0.00    +0.000 HD
ATOM     20  H   UNL     1       4.597   5.545  15.992  0.00  0.00    +0.000 HD
ATOM     21  H   UNL     1       6.337   3.362  18.643  0.00  0.00    +0.000 HD
ATOM     22  H   UNL     1       7.094   3.700  17.184  0.00  0.00    +0.000 HD
ENDBRANCH   6  15
BRANCH   1  26
ATOM     23  C   UNL     1       0.415  10.132  19.082  0.00  0.00    +0.000 A 
ATOM     24  C   UNL     1       0.945   9.454  17.984  0.00  0.00    +0.000 A 
ATOM     25  C   UNL     1       1.699   8.293  18.133  0.00  0.00    +0.000 A 
ATOM     26  C   UNL     1       2.025   7.803  19.408  0.00  0.00    +0.000 A 
ATOM     27  C   UNL     1       1.355   8.385  20.493  0.00  0.00    +0.000 A 
ATOM     28  C   UNL     1       0.567   9.532  20.330  0.00  0.00    +0.000 A 
BRANCH  23  32
ATOM     29  N   UNL     1       1.395  12.850  18.217  0.00  0.00    +0.000 NA
ATOM     30  C   UNL     1       0.168  12.502  18.371  0.00  0.00    +0.000 C 
ATOM     31  N   UNL     1      -0.832  13.365  18.066  0.00  0.00    +0.000 N 
ATOM     32  N   UNL     1      -0.293  11.320  18.855  0.00  0.00    +0.000 N 
ATOM     33  H   UNL     1       1.454  13.790  17.837  0.00  0.00    +0.000 HD
ATOM     34  H   UNL     1      -0.553  14.335  17.996  0.00  0.00    +0.000 HD
ATOM     35  H   UNL     1      -1.686  13.266  18.598  0.00  0.00    +0.000 HD
ATOM     36  H   UNL     1      -1.292  11.201  18.901  0.00  0.00    +0.000 HD
ENDBRANCH  23  32
ENDBRANCH   1  26
BRANCH   3  37
ATOM     37  O   UNL     1       0.333   5.338  20.436  0.00  0.00    +0.000 OA
ATOM     38  H   UNL     1       0.224   5.942  19.682  0.00  0.00    +0.000 HD
ENDBRANCH   3  37
TORSDOF 5
ENDMDL
MODEL 3
REMARK VINA RESULT:      -7.2      1.128      1.394
REMARK  Name = 
REMARK  5 active torsions:
REMARK  status: ('A' for Active; 'I' for Inactive)
REMARK    1  A    between atoms: N_4  and  C_5
REMARK    2  A    between atoms: C_8  and  C_9
REMARK    3  A    between atoms: C_11  and  O_12
REMARK    4  A    between atoms: C_13  and  N_14
REMARK    5  A    between atoms: C_19  and  N_20
REMARK                            x       y       z     vdW  Elec       q    Type
REMARK                         _______ _______ _______ _____ _____    ______ ____
ROOT
ATOM      1  C   UNL     1       3.360   6.729  18.935  0.00  0.00    +0.000 C 
ATOM      2  C   UNL     1       3.388   5.676  20.080  0.00  0.00    +0.000 C 
ATOM      3  C   UNL     1       2.252   4.645  20.030  0.00  0.00    +0.000 C 
ATOM      4  C   UNL     1       2.095   3.960  18.651  0.00  0.00    +0.000 C 
ATOM      5  C   UNL     1       2.131   4.987  17.504  0.00  0.00    +0.000 C 
ATOM      6  C   UNL     1       3.317   5.966  17.571  0.00  0.00    +0.000 C 
ENDROOT
BRANCH   4   7
ATOM      7  N   UNL     1       3.133   2.947  18.443  0.00  0.00    +0.000 N 
ATOM      8  C   UNL     1       2.972   1.629  18.700  0.00  0.00    +0.000 C 
ATOM      9  N   UNL     1       2.028   1.019  19.309  0.00  0.00    +0.000 NA
ATOM     10  N   UNL     1       4.007   0.909  18.230  0.00  0.00    +0.000 N 
ATOM     11  H   UNL     1       3.621   3.074  17.557  0.00  0.00    +0.000 HD
ATOM     12  H   UNL     1       1.295   1.667  19.599  0.00  0.00    +0.000 HD
ATOM     13  H   UNL     1       4.907   1.282  18.493  0.00  0.00    +0.000 HD
ATOM     14  H   UNL     1       3.912  -0.048  18.560  0.00  0.00    +0.000 HD
ENDBRANCH   4   7
BRANCH   6  15
ATOM     15  N   UNL     1       4.574   5.259  17.341  0.00  0.00    +0.000 N 
ATOM     16  C   UNL     1       5.470   5.481  16.360  0.00  0.00    +0.000 C 
ATOM     17  N   UNL     1       5.438   6.360  15.430  0.00  0.00    +0.000 NA
ATOM     18  N   UNL     1       6.533   4.661  16.441  0.00  0.00    +0.000 N 
ATOM     19  H   UNL     1       4.674   4.376  17.824  0.00  0.00    +0.000 HD
ATOM     20  H   UNL     1       4.597   6.930  15.506  0.00  0.00    +0.000 HD
ATOM     21  H   UNL     1       6.344   3.692  16.640  0.00  0.00    +0.000 HD
ATOM     22  H   UNL     1       7.127   4.775  15.626  0.00  0.00    +0.000 HD
ENDBRANCH   6  15
BRANCH   1  26
ATOM     23  C   UNL     1       0.529  10.022  19.457  0.00  0.00    +0.000 A 
ATOM     24  C   UNL     1       0.943   9.610  18.190  0.00  0.00    +0.000 A 
ATOM     25  C   UNL     1       1.748   8.488  18.010  0.00  0.00    +0.000 A 
ATOM     26  C   UNL     1       2.243   7.771  19.111  0.00  0.00    +0.000 A 
ATOM     27  C   UNL     1       1.692   8.084  20.362  0.00  0.00    +0.000 A 
ATOM     28  C   UNL     1       0.852   9.193  20.529  0.00  0.00    +0.000 A 
BRANCH  23  32
ATOM     29  N   UNL     1       1.313  12.804  20.318  0.00  0.00    +0.000 NA
ATOM     30  C   UNL     1       0.167  12.449  19.859  0.00  0.00    +0.000 C 
ATOM     31  N   UNL     1      -0.803  13.372  19.651  0.00  0.00    +0.000 N 
ATOM     32  N   UNL     1      -0.240  11.189  19.562  0.00  0.00    +0.000 N 
ATOM     33  H   UNL     1       1.347  13.811  20.451  0.00  0.00    +0.000 HD
ATOM     34  H   UNL     1      -0.665  14.253  20.129  0.00  0.00    +0.000 HD
ATOM     35  H   UNL     1      -1.756  13.049  19.746  0.00  0.00    +0.000 HD
ATOM     36  H   UNL     1      -1.174  11.082  19.198  0.00  0.00    +0.000 HD
ENDBRANCH  23  32
ENDBRANCH   1  26
BRANCH   3  37
ATOM     37  O   UNL     1       1.006   5.194  20.460  0.00  0.00    +0.000 OA
ATOM     38  H   UNL     1       1.016   6.161  20.364  0.00  0.00    +0.000 HD
ENDBRANCH   3  37
TORSDOF 5
ENDMDL
MODEL 4
REMARK VINA RESULT:      -7.2      1.126      1.547
REMARK  Name = 
REMARK  5 active torsions:
REMARK  status: ('A' for Active; 'I' for Inactive)
REMARK    1  A    between atoms: N_4  and  C_5
REMARK    2  A    between atoms: C_8  and  C_9
REMARK    3  A    between atoms: C_11  and  O_12
REMARK    4  A    between atoms: C_13  and  N_14
REMARK    5  A    between atoms: C_19  and  N_20
REMARK                            x       y       z     vdW  Elec       q    Type
REMARK                         _______ _______ _______ _____ _____    ______ ____
ROOT
ATOM      1  C   UNL     1       3.210   6.883  19.274  0.00  0.00    +0.000 C 
ATOM      2  C   UNL     1       2.962   5.974  20.512  0.00  0.00    +0.000 C 
ATOM      3  C   UNL     1       1.764   5.023  20.379  0.00  0.00    +0.000 C 
ATOM      4  C   UNL     1       1.775   4.191  19.073  0.00  0.00    +0.000 C 
ATOM      5  C   UNL     1       2.084   5.069  17.847  0.00  0.00    +0.000 C 
ATOM      6  C   UNL     1       3.324   5.967  18.012  0.00  0.00    +0.000 C 
ENDROOT
BRANCH   4   7
ATOM      7  N   UNL     1       2.742   3.092  19.155  0.00  0.00    +0.000 N 
ATOM      8  C   UNL     1       2.804   2.067  18.276  0.00  0.00    +0.000 C 
ATOM      9  N   UNL     1       1.993   1.728  17.348  0.00  0.00    +0.000 NA
ATOM     10  N   UNL     1       3.906   1.320  18.474  0.00  0.00    +0.000 N 
ATOM     11  H   UNL     1       3.681   3.423  19.374  0.00  0.00    +0.000 HD
ATOM     12  H   UNL     1       1.210   2.380  17.285  0.00  0.00    +0.000 HD
ATOM     13  H   UNL     1       4.043   1.055  19.438  0.00  0.00    +0.000 HD
ATOM     14  H   UNL     1       3.844   0.491  17.887  0.00  0.00    +0.000 HD
ENDBRANCH   4   7
BRANCH   6  15
ATOM     15  N   UNL     1       4.536   5.155  18.076  0.00  0.00    +0.000 N 
ATOM     16  C   UNL     1       5.283   4.717  17.045  0.00  0.00    +0.000 C 
ATOM     17  N   UNL     1       5.119   4.923  15.792  0.00  0.00    +0.000 NA
ATOM     18  N   UNL     1       6.347   4.002  17.450  0.00  0.00    +0.000 N 
ATOM     19  H   UNL     1       4.704   4.690  18.958  0.00  0.00    +0.000 HD
ATOM     20  H   UNL     1       4.297   5.502  15.630  0.00  0.00    +0.000 HD
ATOM     21  H   UNL     1       6.189   3.329  18.183  0.00  0.00    +0.000 HD
ATOM     22  H   UNL     1       6.819   3.591  16.651  0.00  0.00    +0.000 HD
ENDBRANCH   6  15
BRANCH   1  26
ATOM     23  C   UNL     1      -0.073   9.750  18.925  0.00  0.00    +0.000 A 
ATOM     24  C   UNL     1       0.435   9.372  20.168  0.00  0.00    +0.000 A 
ATOM     25  C   UNL     1       1.556   8.555  20.283  0.00  0.00    +0.000 A 
ATOM     26  C   UNL     1       2.174   8.011  19.145  0.00  0.00    +0.000 A 
ATOM     27  C   UNL     1       1.767   8.526  17.906  0.00  0.00    +0.000 A 
ATOM     28  C   UNL     1       0.660   9.378  17.801  0.00  0.00    +0.000 A 
BRANCH  23  32
ATOM     29  N   UNL     1      -0.484  12.581  17.971  0.00  0.00    +0.000 NA
ATOM     30  C   UNL     1      -1.403  11.775  18.362  0.00  0.00    +0.000 C 
ATOM     31  N   UNL     1      -2.707  12.140  18.300  0.00  0.00    +0.000 N 
ATOM     32  N   UNL     1      -1.234  10.536  18.890  0.00  0.00    +0.000 N 
ATOM     33  H   UNL     1      -0.892  13.443  17.619  0.00  0.00    +0.000 HD
ATOM     34  H   UNL     1      -2.868  13.135  18.208  0.00  0.00    +0.000 HD
ATOM     35  H   UNL     1      -3.319  11.733  18.994  0.00  0.00    +0.000 HD
ATOM     36  H   UNL     1      -2.066  10.024  19.138  0.00  0.00    +0.000 HD
ENDBRANCH  23  32
ENDBRANCH   1  26
BRANCH   3  37
ATOM     37  O   UNL     1       0.517   5.702  20.529  0.00  0.00    +0.000 OA
ATOM     38  H   UNL     1      -0.206   5.057  20.610  0.00  0.00    +0.000 HD
ENDBRANCH   3  37
TORSDOF 5
ENDMDL
MODEL 5
REMARK VINA RESULT:      -7.1      2.852      9.448
REMARK  Name = 
REMARK  5 active torsions:
REMARK  status: ('A' for Active; 'I' for Inactive)
REMARK    1  A    between atoms: N_4  and  C_5
REMARK    2  A    between atoms: C_8  and  C_9
REMARK    3  A    between atoms: C_11  and  O_12
REMARK    4  A    between atoms: C_13  and  N_14
REMARK    5  A    between atoms: C_19  and  N_20
REMARK                            x       y       z     vdW  Elec       q    Type
REMARK                         _______ _______ _______ _____ _____    ______ ____
ROOT
ATOM      1  C   UNL     1      -0.947  10.647  19.569  0.00  0.00    +0.000 C 
ATOM      2  C   UNL     1      -0.901  11.473  20.887  0.00  0.00    +0.000 C 
ATOM      3  C   UNL     1       0.082  12.652  20.869  0.00  0.00    +0.000 C 
ATOM      4  C   UNL     1      -0.082  13.578  19.640  0.00  0.00    +0.000 C 
ATOM      5  C   UNL     1      -0.194  12.769  18.335  0.00  0.00    +0.000 C 
ATOM      6  C   UNL     1      -1.228  11.630  18.386  0.00  0.00    +0.000 C 
ENDROOT
BRANCH   4   7
ATOM      7  N   UNL     1      -1.251  14.449  19.786  0.00  0.00    +0.000 N 
ATOM      8  C   UNL     1      -1.191  15.749  20.154  0.00  0.00    +0.000 C 
ATOM      9  N   UNL     1      -0.209  16.431  20.606  0.00  0.00    +0.000 NA
ATOM     10  N   UNL     1      -2.385  16.354  20.011  0.00  0.00    +0.000 N 
ATOM     11  H   UNL     1      -1.915  14.332  19.021  0.00  0.00    +0.000 HD
ATOM     12  H   UNL     1       0.642  15.870  20.650  0.00  0.00    +0.000 HD
ATOM     13  H   UNL     1      -3.148  15.836  20.421  0.00  0.00    +0.000 HD
ATOM     14  H   UNL     1      -2.328  17.282  20.422  0.00  0.00    +0.000 HD
ENDBRANCH   4   7
BRANCH   6  15
ATOM     15  N   UNL     1      -2.580  12.173  18.484  0.00  0.00    +0.000 N 
ATOM     16  C   UNL     1      -3.725  11.596  18.075  0.00  0.00    +0.000 C 
ATOM     17  N   UNL     1      -3.895  10.449  17.532  0.00  0.00    +0.000 NA
ATOM     18  N   UNL     1      -4.803  12.360  18.326  0.00  0.00    +0.000 N 
ATOM     19  H   UNL     1      -2.640  13.166  18.669  0.00  0.00    +0.000 HD
ATOM     20  H   UNL     1      -3.003   9.967  17.429  0.00  0.00    +0.000 HD
ATOM     21  H   UNL     1      -4.720  13.343  18.122  0.00  0.00    +0.000 HD
ATOM     22  H   UNL     1      -5.630  11.950  17.902  0.00  0.00    +0.000 HD
ENDBRANCH   6  15
BRANCH   1  26
ATOM     23  C   UNL     1       2.297   7.802  18.853  0.00  0.00    +0.000 A 
ATOM     24  C   UNL     1       1.885   8.701  17.868  0.00  0.00    +0.000 A 
ATOM     25  C   UNL     1       0.938   9.688  18.127  0.00  0.00    +0.000 A 
ATOM     26  C   UNL     1       0.298   9.765  19.375  0.00  0.00    +0.000 A 
ATOM     27  C   UNL     1       0.833   8.976  20.403  0.00  0.00    +0.000 A 
ATOM     28  C   UNL     1       1.813   8.010  20.142  0.00  0.00    +0.000 A 
BRANCH  23  32
ATOM     29  N   UNL     1       1.848   4.968  17.924  0.00  0.00    +0.000 NA
ATOM     30  C   UNL     1       2.980   5.570  17.994  0.00  0.00    +0.000 C 
ATOM     31  N   UNL     1       4.109   4.958  17.561  0.00  0.00    +0.000 N 
ATOM     32  N   UNL     1       3.220   6.806  18.503  0.00  0.00    +0.000 N 
ATOM     33  H   UNL     1       1.957   4.052  17.498  0.00  0.00    +0.000 HD
ATOM     34  H   UNL     1       4.040   3.954  17.461  0.00  0.00    +0.000 HD
ATOM     35  H   UNL     1       4.968   5.222  18.027  0.00  0.00    +0.000 HD
ATOM     36  H   UNL     1       4.170   7.138  18.473  0.00  0.00    +0.000 HD
ENDBRANCH  23  32
ENDBRANCH   1  26
BRANCH   3  37
ATOM     37  O   UNL     1       1.438  12.226  20.998  0.00  0.00    +0.000 OA
ATOM     38  H   UNL     1       2.026  12.998  21.062  0.00  0.00    +0.000 HD
ENDBRANCH   3  37
TORSDOF 5
ENDMDL
MODEL 6
REMARK VINA RESULT:      -7.0      1.037      1.049
REMARK  Name = 
REMARK  5 active torsions:
REMARK  status: ('A' for Active; 'I' for Inactive)
REMARK    1  A    between atoms: N_4  and  C_5
REMARK    2  A    between atoms: C_8  and  C_9
REMARK    3  A    between atoms: C_11  and  O_12
REMARK    4  A    between atoms: C_13  and  N_14
REMARK    5  A    between atoms: C_19  and  N_20
REMARK                            x       y       z     vdW  Elec       q    Type
REMARK                         _______ _______ _______ _____ _____    ______ ____
ROOT
ATOM      1  C   UNL     1       3.507   6.270  18.782  0.00  0.00    +0.000 C 
ATOM      2  C   UNL     1       3.530   5.247  19.954  0.00  0.00    +0.000 C 
ATOM      3  C   UNL     1       2.343   4.274  19.979  0.00  0.00    +0.000 C 
ATOM      4  C   UNL     1       2.095   3.562  18.627  0.00  0.00    +0.000 C 
ATOM      5  C   UNL     1       2.134   4.555  17.451  0.00  0.00    +0.000 C 
ATOM      6  C   UNL     1       3.369   5.474  17.443  0.00  0.00    +0.000 C 
ENDROOT
BRANCH   4   7
ATOM      7  N   UNL     1       3.072   2.492  18.406  0.00  0.00    +0.000 N 
ATOM      8  C   UNL     1       3.734   1.850  19.394  0.00  0.00    +0.000 C 
ATOM      9  N   UNL     1       3.809   2.117  20.643  0.00  0.00    +0.000 NA
ATOM     10  N   UNL     1       4.409   0.786  18.921  0.00  0.00    +0.000 N 
ATOM     11  H   UNL     1       2.755   1.823  17.705  0.00  0.00    +0.000 HD
ATOM     12  H   UNL     1       3.242   2.931  20.882  0.00  0.00    +0.000 HD
ATOM     13  H   UNL     1       4.968   0.996  18.108  0.00  0.00    +0.000 HD
ATOM     14  H   UNL     1       4.995   0.417  19.666  0.00  0.00    +0.000 HD
ENDBRANCH   4   7
BRANCH   6  15
ATOM     15  N   UNL     1       4.579   4.699  17.183  0.00  0.00    +0.000 N 
ATOM     16  C   UNL     1       5.538   4.961  16.275  0.00  0.00    +0.000 C 
ATOM     17  N   UNL     1       5.622   5.942  15.457  0.00  0.00    +0.000 NA
ATOM     18  N   UNL     1       6.530   4.053  16.300  0.00  0.00    +0.000 N 
ATOM     19  H   UNL     1       4.587   3.760  17.558  0.00  0.00    +0.000 HD
ATOM     20  H   UNL     1       4.824   6.566  15.565  0.00  0.00    +0.000 HD
ATOM     21  H   UNL     1       6.258   3.085  16.372  0.00  0.00    +0.000 HD
ATOM     22  H   UNL     1       7.173   4.212  15.531  0.00  0.00    +0.000 HD
ENDBRANCH   6  15
BRANCH   1  26
ATOM     23  C   UNL     1       0.869   9.710  19.361  0.00  0.00    +0.000 A 
ATOM     24  C   UNL     1       1.273   9.307  18.087  0.00  0.00    +0.000 A 
ATOM     25  C   UNL     1       2.013   8.145  17.887  0.00  0.00    +0.000 A 
ATOM     26  C   UNL     1       2.451   7.371  18.974  0.00  0.00    +0.000 A 
ATOM     27  C   UNL     1       1.904   7.684  20.226  0.00  0.00    +0.000 A 
ATOM     28  C   UNL     1       1.129   8.835  20.413  0.00  0.00    +0.000 A 
BRANCH  23  32
ATOM     29  N   UNL     1      -1.929  10.441  18.504  0.00  0.00    +0.000 NA
ATOM     30  C   UNL     1      -1.127  11.183  19.178  0.00  0.00    +0.000 C 
ATOM     31  N   UNL     1      -1.535  12.390  19.640  0.00  0.00    +0.000 N 
ATOM     32  N   UNL     1       0.168  10.918  19.488  0.00  0.00    +0.000 N 
ATOM     33  H   UNL     1      -2.840  10.884  18.421  0.00  0.00    +0.000 HD
ATOM     34  H   UNL     1      -2.362  12.762  19.191  0.00  0.00    +0.000 HD
ATOM     35  H   UNL     1      -0.819  13.098  19.734  0.00  0.00    +0.000 HD
ATOM     36  H   UNL     1       0.660  11.605  20.037  0.00  0.00    +0.000 HD
ENDBRANCH  23  32
ENDBRANCH   1  26
BRANCH   3  37
ATOM     37  O   UNL     1       1.145   4.896  20.444  0.00  0.00    +0.000 OA
ATOM     38  H   UNL     1       0.842   4.468  21.261  0.00  0.00    +0.000 HD
ENDBRANCH   3  37
TORSDOF 5
ENDMDL
MODEL 7
REMARK VINA RESULT:      -7.0      0.493      1.167
REMARK  Name = 
REMARK  5 active torsions:
REMARK  status: ('A' for Active; 'I' for Inactive)
REMARK    1  A    between atoms: N_4  and  C_5
REMARK    2  A    between atoms: C_8  and  C_9
REMARK    3  A    between atoms: C_11  and  O_12
REMARK    4  A    between atoms: C_13  and  N_14
REMARK    5  A    between atoms: C_19  and  N_20
REMARK                            x       y       z     vdW  Elec       q    Type
REMARK                         _______ _______ _______ _____ _____    ______ ____
ROOT
ATOM      1  C   UNL     1       3.701   6.550  19.247  0.00  0.00    +0.000 C 
ATOM      2  C   UNL     1       3.182   5.383  20.136  0.00  0.00    +0.000 C 
ATOM      3  C   UNL     1       2.100   4.513  19.483  0.00  0.00    +0.000 C 
ATOM      4  C   UNL     1       2.479   4.006  18.070  0.00  0.00    +0.000 C 
ATOM      5  C   UNL     1       3.055   5.138  17.201  0.00  0.00    +0.000 C 
ATOM      6  C   UNL     1       4.172   5.950  17.881  0.00  0.00    +0.000 C 
ENDROOT
BRANCH   4   7
ATOM      7  N   UNL     1       3.438   2.900  18.145  0.00  0.00    +0.000 N 
ATOM      8  C   UNL     1       3.123   1.644  18.533  0.00  0.00    +0.000 C 
ATOM      9  N   UNL     1       2.052   1.191  19.063  0.00  0.00    +0.000 NA
ATOM     10  N   UNL     1       4.143   0.794  18.314  0.00  0.00    +0.000 N 
ATOM     11  H   UNL     1       4.054   2.872  17.333  0.00  0.00    +0.000 HD
ATOM     12  H   UNL     1       1.348   1.925  19.160  0.00  0.00    +0.000 HD
ATOM     13  H   UNL     1       5.028   1.132  18.662  0.00  0.00    +0.000 HD
ATOM     14  H   UNL     1       3.915  -0.101  18.740  0.00  0.00    +0.000 HD
ENDBRANCH   4   7
BRANCH   6  15
ATOM     15  N   UNL     1       5.360   5.123  18.070  0.00  0.00    +0.000 N 
ATOM     16  C   UNL     1       6.517   5.184  17.382  0.00  0.00    +0.000 C 
ATOM     17  N   UNL     1       6.845   5.980  16.435  0.00  0.00    +0.000 NA
ATOM     18  N   UNL     1       7.420   4.287  17.817  0.00  0.00    +0.000 N 
ATOM     19  H   UNL     1       5.225   4.279  18.610  0.00  0.00    +0.000 HD
ATOM     20  H   UNL     1       6.083   6.623  16.229  0.00  0.00    +0.000 HD
ATOM     21  H   UNL     1       7.080   3.357  18.006  0.00  0.00    +0.000 HD
ATOM     22  H   UNL     1       8.230   4.280  17.205  0.00  0.00    +0.000 HD
ENDBRANCH   6  15
BRANCH   1  26
ATOM     23  C   UNL     1       0.479   9.474  18.810  0.00  0.00    +0.000 A 
ATOM     24  C   UNL     1       0.824   8.951  20.056  0.00  0.00    +0.000 A 
ATOM     25  C   UNL     1       1.924   8.113  20.220  0.00  0.00    +0.000 A 
ATOM     26  C   UNL     1       2.685   7.696  19.116  0.00  0.00    +0.000 A 
ATOM     27  C   UNL     1       2.440   8.354  17.902  0.00  0.00    +0.000 A 
ATOM     28  C   UNL     1       1.353   9.225  17.755  0.00  0.00    +0.000 A 
BRANCH  23  32
ATOM     29  N   UNL     1       0.195  12.441  18.349  0.00  0.00    +0.000 NA
ATOM     30  C   UNL     1      -0.765  11.591  18.410  0.00  0.00    +0.000 C 
ATOM     31  N   UNL     1      -2.043  11.983  18.186  0.00  0.00    +0.000 N 
ATOM     32  N   UNL     1      -0.671  10.272  18.717  0.00  0.00    +0.000 N 
ATOM     33  H   UNL     1      -0.158  13.360  18.098  0.00  0.00    +0.000 HD
ATOM     34  H   UNL     1      -2.203  12.980  18.256  0.00  0.00    +0.000 HD
ATOM     35  H   UNL     1      -2.762  11.462  18.670  0.00  0.00    +0.000 HD
ATOM     36  H   UNL     1      -1.525   9.736  18.711  0.00  0.00    +0.000 HD
ENDBRANCH  23  32
ENDBRANCH   1  26
BRANCH   3  37
ATOM     37  O   UNL     1       0.828   5.161  19.457  0.00  0.00    +0.000 OA
ATOM     38  H   UNL     1       0.137   4.530  19.197  0.00  0.00    +0.000 HD
ENDBRANCH   3  37
TORSDOF 5
ENDMDL
MODEL 8
REMARK VINA RESULT:      -6.9      1.887      3.457
REMARK  Name = 
REMARK  5 active torsions:
REMARK  status: ('A' for Active; 'I' for Inactive)
REMARK    1  A    between atoms: N_4  and  C_5
REMARK    2  A    between atoms: C_8  and  C_9
REMARK    3  A    between atoms: C_11  and  O_12
REMARK    4  A    between atoms: C_13  and  N_14
REMARK    5  A    between atoms: C_19  and  N_20
REMARK                            x       y       z     vdW  Elec       q    Type
REMARK                         _______ _______ _______ _____ _____    ______ ____
ROOT
ATOM      1  C   UNL     1       2.156   5.944  18.006  0.00  0.00    +0.000 C 
ATOM      2  C   UNL     1       3.410   5.582  17.159  0.00  0.00    +0.000 C 
ATOM      3  C   UNL     1       4.717   5.488  17.957  0.00  0.00    +0.000 C 
ATOM      4  C   UNL     1       4.616   4.585  19.211  0.00  0.00    +0.000 C 
ATOM      5  C   UNL     1       3.344   4.890  20.023  0.00  0.00    +0.000 C 
ATOM      6  C   UNL     1       2.053   4.923  19.185  0.00  0.00    +0.000 C 
ENDROOT
BRANCH   4   7
ATOM      7  N   UNL     1       4.643   3.166  18.844  0.00  0.00    +0.000 N 
ATOM      8  C   UNL     1       4.669   2.150  19.735  0.00  0.00    +0.000 C 
ATOM      9  N   UNL     1       4.850   2.170  21.000  0.00  0.00    +0.000 NA
ATOM     10  N   UNL     1       4.486   0.963  19.129  0.00  0.00    +0.000 N 
ATOM     11  H   UNL     1       3.992   2.953  18.089  0.00  0.00    +0.000 HD
ATOM     12  H   UNL     1       4.957   3.125  21.343  0.00  0.00    +0.000 HD
ATOM     13  H   UNL     1       5.077   0.829  18.322  0.00  0.00    +0.000 HD
ATOM     14  H   UNL     1       4.646   0.224  19.809  0.00  0.00    +0.000 HD
ENDBRANCH   4   7
BRANCH   6  15
ATOM     15  N   UNL     1       1.739   3.589  18.681  0.00  0.00    +0.000 N 
ATOM     16  C   UNL     1       1.037   2.624  19.304  0.00  0.00    +0.000 C 
ATOM     17  N   UNL     1       0.475   2.656  20.454  0.00  0.00    +0.000 NA
ATOM     18  N   UNL     1       0.916   1.513  18.555  0.00  0.00    +0.000 N 
ATOM     19  H   UNL     1       2.287   3.280  17.890  0.00  0.00    +0.000 HD
ATOM     20  H   UNL     1       0.619   3.563  20.896  0.00  0.00    +0.000 HD
ATOM     21  H   UNL     1       1.742   1.201  18.071  0.00  0.00    +0.000 HD
ATOM     22  H   UNL     1       0.486   0.770  19.096  0.00  0.00    +0.000 HD
ENDBRANCH   6  15
BRANCH   1  26
ATOM     23  C   UNL     1       1.637  10.134  19.146  0.00  0.00    +0.000 A 
ATOM     24  C   UNL     1       1.481   9.102  20.072  0.00  0.00    +0.000 A 
ATOM     25  C   UNL     1       1.761   7.778  19.747  0.00  0.00    +0.000 A 
ATOM     26  C   UNL     1       2.138   7.418  18.443  0.00  0.00    +0.000 A 
ATOM     27  C   UNL     1       2.455   8.469  17.570  0.00  0.00    +0.000 A 
ATOM     28  C   UNL     1       2.205   9.802  17.918  0.00  0.00    +0.000 A 
BRANCH  23  32
ATOM     29  N   UNL     1      -0.581  11.929  18.172  0.00  0.00    +0.000 NA
ATOM     30  C   UNL     1       0.222  12.180  19.142  0.00  0.00    +0.000 C 
ATOM     31  N   UNL     1       0.071  13.303  19.885  0.00  0.00    +0.000 N 
ATOM     32  N   UNL     1       1.289  11.436  19.533  0.00  0.00    +0.000 N 
ATOM     33  H   UNL     1      -1.291  12.653  18.102  0.00  0.00    +0.000 HD
ATOM     34  H   UNL     1      -0.498  14.023  19.460  0.00  0.00    +0.000 HD
ATOM     35  H   UNL     1       0.914  13.691  20.286  0.00  0.00    +0.000 HD
ATOM     36  H   UNL     1       1.814  11.768  20.326  0.00  0.00    +0.000 HD
ENDBRANCH  23  32
ENDBRANCH   1  26
BRANCH   3  37
ATOM     37  O   UNL     1       5.229   6.774  18.308  0.00  0.00    +0.000 OA
ATOM     38  H   UNL     1       6.009   6.982  17.766  0.00  0.00    +0.000 HD
ENDBRANCH   3  37
TORSDOF 5
ENDMDL
MODEL 9
REMARK VINA RESULT:      -6.9      2.369      8.534
REMARK  Name = 
REMARK  5 active torsions:
REMARK  status: ('A' for Active; 'I' for Inactive)
REMARK    1  A    between atoms: N_4  and  C_5
REMARK    2  A    between atoms: C_8  and  C_9
REMARK    3  A    between atoms: C_11  and  O_12
REMARK    4  A    between atoms: C_13  and  N_14
REMARK    5  A    between atoms: C_19  and  N_20
REMARK                            x       y       z     vdW  Elec       q    Type
REMARK                         _______ _______ _______ _____ _____    ______ ____
ROOT
ATOM      1  C   UNL     1       0.199   8.984  19.668  0.00  0.00    +0.000 C 
ATOM      2  C   UNL     1      -0.124   8.987  21.190  0.00  0.00    +0.000 C 
ATOM      3  C   UNL     1       0.801   9.869  22.040  0.00  0.00    +0.000 C 
ATOM      4  C   UNL     1       0.948  11.313  21.502  0.00  0.00    +0.000 C 
ATOM      5  C   UNL     1       1.203  11.327  19.984  0.00  0.00    +0.000 C 
ATOM      6  C   UNL     1       0.218  10.467  19.171  0.00  0.00    +0.000 C 
ENDROOT
BRANCH   4   7
ATOM      7  N   UNL     1      -0.239  12.116  21.813  0.00  0.00    +0.000 N 
ATOM      8  C   UNL     1      -0.218  13.449  22.039  0.00  0.00    +0.000 C 
ATOM      9  N   UNL     1       0.773  14.239  22.208  0.00  0.00    +0.000 NA
ATOM     10  N   UNL     1      -1.463  13.955  22.099  0.00  0.00    +0.000 N 
ATOM     11  H   UNL     1      -1.032  11.874  21.221  0.00  0.00    +0.000 HD
ATOM     12  H   UNL     1       1.661  13.743  22.121  0.00  0.00    +0.000 HD
ATOM     13  H   UNL     1      -2.078  13.435  22.707  0.00  0.00    +0.000 HD
ATOM     14  H   UNL     1      -1.405  14.924  22.401  0.00  0.00    +0.000 HD
ENDBRANCH   4   7
BRANCH   6  15
ATOM     15  N   UNL     1      -1.123  11.041  19.225  0.00  0.00    +0.000 N 
ATOM     16  C   UNL     1      -1.630  12.011  18.440  0.00  0.00    +0.000 C 
ATOM     17  N   UNL     1      -1.070  12.630  17.469  0.00  0.00    +0.000 NA
ATOM     18  N   UNL     1      -2.907  12.301  18.743  0.00  0.00    +0.000 N 
ATOM     19  H   UNL     1      -1.645  10.856  20.071  0.00  0.00    +0.000 HD
ATOM     20  H   UNL     1      -0.120  12.291  17.330  0.00  0.00    +0.000 HD
ATOM     21  H   UNL     1      -3.135  12.376  19.721  0.00  0.00    +0.000 HD
ATOM     22  H   UNL     1      -3.219  13.111  18.215  0.00  0.00    +0.000 HD
ENDBRANCH   6  15
BRANCH   1  26
ATOM     23  C   UNL     1       3.548   6.476  18.395  0.00  0.00    +0.000 A 
ATOM     24  C   UNL     1       3.258   7.684  17.759  0.00  0.00    +0.000 A 
ATOM     25  C   UNL     1       2.272   8.543  18.233  0.00  0.00    +0.000 A 
ATOM     26  C   UNL     1       1.470   8.188  19.330  0.00  0.00    +0.000 A 
ATOM     27  C   UNL     1       1.875   7.063  20.063  0.00  0.00    +0.000 A 
ATOM     28  C   UNL     1       2.894   6.223  19.598  0.00  0.00    +0.000 A 
BRANCH  23  32
ATOM     29  N   UNL     1       6.030   5.272  19.615  0.00  0.00    +0.000 NA
ATOM     30  C   UNL     1       5.576   5.037  18.436  0.00  0.00    +0.000 C 
ATOM     31  N   UNL     1       6.179   4.121  17.640  0.00  0.00    +0.000 N 
ATOM     32  N   UNL     1       4.522   5.641  17.830  0.00  0.00    +0.000 N 
ATOM     33  H   UNL     1       6.828   4.676  19.815  0.00  0.00    +0.000 HD
ATOM     34  H   UNL     1       7.121   3.872  17.913  0.00  0.00    +0.000 HD
ATOM     35  H   UNL     1       6.118   4.285  16.644  0.00  0.00    +0.000 HD
ATOM     36  H   UNL     1       4.288   5.331  16.900  0.00  0.00    +0.000 HD
ENDBRANCH  23  32
ENDBRANCH   1  26
BRANCH   3  37
ATOM     37  O   UNL     1       2.085   9.275  22.234  0.00  0.00    +0.000 OA
ATOM     38  H   UNL     1       2.640   9.416  21.449  0.00  0.00    +0.000 HD
ENDBRANCH   3  37
TORSDOF 5
ENDMDL
