MODEL 1
REMARK VINA RESULT:      -6.7      0.000      0.000
REMARK  Name = 
REMARK  11 active torsions:
REMARK  status: ('A' for Active; 'I' for Inactive)
REMARK    1  A    between atoms: C_1  and  C_2
REMARK    2  A    between atoms: C_2  and  O_3
REMARK    3  A    between atoms: O_3  and  C_4
REMARK    4  A    between atoms: C_4  and  C_6
REMARK    5  A    between atoms: C_6  and  N_7
REMARK    6  A    between atoms: N_7  and  C_8
REMARK    7  A    between atoms: N_7  and  C_9
REMARK    8  A    between atoms: C_12  and  C_14
REMARK    9  A    between atoms: C_14  and  C_15
REMARK   10  A    between atoms: C_16  and  C_17
REMARK   11  A    between atoms: C_20  and  C_21
REMARK                            x       y       z     vdW  Elec       q    Type
REMARK                         _______ _______ _______ _____ _____    ______ ____
ROOT
ATOM      1  C   UNL     1       5.211   4.590  15.584  0.00  0.00    +0.000 C 
ATOM      2  C   UNL     1       5.076   3.295  16.419  0.00  0.00    +0.000 C 
ATOM      3  N   UNL     1       3.894   3.911  16.998  0.00  0.00    +0.000 N 
ATOM      4  C   UNL     1       2.672   3.346  17.236  0.00  0.00    +0.000 C 
ATOM      5  O   UNL     1       2.477   2.141  17.065  0.00  0.00    +0.000 OA
ATOM      6  C   UNL     1       4.329   5.260  16.674  0.00  0.00    +0.000 C 
ENDROOT
BRANCH   1   7
ATOM      7  N   UNL     1       6.593   5.135  15.615  0.00  0.00    +0.000 NA
ATOM      8  C   UNL     1       7.228   4.818  14.327  0.00  0.00    +0.000 C 
BRANCH   7   9
ATOM      9  C   UNL     1       7.339   4.467  16.714  0.00  0.00    +0.000 C 
BRANCH   9  10
ATOM     10  C   UNL     1       7.474   5.310  17.974  0.00  0.00    +0.000 C 
ATOM     11  O   UNL     1       6.969   5.004  19.047  0.00  0.00    +0.000 OA
BRANCH  10  12
ATOM     12  O   UNL     1       8.101   6.491  17.711  0.00  0.00    +0.000 OA
BRANCH  12  14
ATOM     13  C   UNL     1       8.109   8.876  17.872  0.00  0.00    +0.000 C 
ATOM     14  C   UNL     1       7.247   7.643  17.662  0.00  0.00    +0.000 C 
ENDBRANCH  12  14
ENDBRANCH  10  12
ENDBRANCH   9  10
ENDBRANCH   7   9
ENDBRANCH   1   7
BRANCH   4  15
ATOM     15  C   UNL     1       1.588   4.255  17.789  0.00  0.00    +0.000 C 
BRANCH  15  16
ATOM     16  C   UNL     1       1.818   4.695  19.196  0.00  0.00    +0.000 A 
ATOM     17  C   UNL     1       1.812   3.910  20.388  0.00  0.00    +0.000 A 
ATOM     18  C   UNL     1       1.578   2.453  20.557  0.00  0.00    +0.000 C 
ATOM     19  N   UNL     1       2.079   4.652  21.470  0.00  0.00    +0.000 NA
ATOM     20  N   UNL     1       2.308   5.876  20.983  0.00  0.00    +0.000 N 
ATOM     21  C   UNL     1       2.184   5.962  19.629  0.00  0.00    +0.000 A 
ATOM     22  C   UNL     1       2.459   7.220  18.895  0.00  0.00    +0.000 C 
ATOM     23  H   UNL     1       2.564   6.607  21.641  0.00  0.00    +0.000 HD
ENDBRANCH  15  16
ENDBRANCH   4  15
TORSDOF 7
ENDMDL
MODEL 2
REMARK VINA RESULT:      -6.7      0.659      1.867
REMARK  Name = 
REMARK  11 active torsions:
REMARK  status: ('A' for Active; 'I' for Inactive)
REMARK    1  A    between atoms: C_1  and  C_2
REMARK    2  A    between atoms: C_2  and  O_3
REMARK    3  A    between atoms: O_3  and  C_4
REMARK    4  A    between atoms: C_4  and  C_6
REMARK    5  A    between atoms: C_6  and  N_7
REMARK    6  A    between atoms: N_7  and  C_8
REMARK    7  A    between atoms: N_7  and  C_9
REMARK    8  A    between atoms: C_12  and  C_14
REMARK    9  A    between atoms: C_14  and  C_15
REMARK   10  A    between atoms: C_16  and  C_17
REMARK   11  A    between atoms: C_20  and  C_21
REMARK                            x       y       z     vdW  Elec       q    Type
REMARK                         _______ _______ _______ _____ _____    ______ ____
ROOT
ATOM      1  C   UNL     1       5.250   4.678  15.749  0.00  0.00    +0.000 C 
ATOM      2  C   UNL     1       5.032   3.469  16.688  0.00  0.00    +0.000 C 
ATOM      3  N   UNL     1       3.836   4.162  17.138  0.00  0.00    +0.000 N 
ATOM      4  C   UNL     1       2.588   3.649  17.353  0.00  0.00    +0.000 C 
ATOM      5  O   UNL     1       2.369   2.438  17.281  0.00  0.00    +0.000 OA
ATOM      6  C   UNL     1       4.327   5.465  16.719  0.00  0.00    +0.000 C 
ENDROOT
BRANCH   1   7
ATOM      7  N   UNL     1       6.643   5.193  15.812  0.00  0.00    +0.000 NA
ATOM      8  C   UNL     1       7.305   4.850  14.544  0.00  0.00    +0.000 C 
BRANCH   7   9
ATOM      9  C   UNL     1       7.344   4.518  16.937  0.00  0.00    +0.000 C 
BRANCH   9  10
ATOM     10  C   UNL     1       7.553   5.402  18.158  0.00  0.00    +0.000 C 
ATOM     11  O   UNL     1       7.780   4.960  19.277  0.00  0.00    +0.000 OA
BRANCH  10  12
ATOM     12  O   UNL     1       7.317   6.711  17.864  0.00  0.00    +0.000 OA
BRANCH  12  14
ATOM     13  C   UNL     1       7.998   9.002  17.794  0.00  0.00    +0.000 C 
ATOM     14  C   UNL     1       8.243   7.647  18.436  0.00  0.00    +0.000 C 
ENDBRANCH  12  14
ENDBRANCH  10  12
ENDBRANCH   9  10
ENDBRANCH   7   9
ENDBRANCH   1   7
BRANCH   4  15
ATOM     15  C   UNL     1       1.500   4.629  17.755  0.00  0.00    +0.000 C 
BRANCH  15  16
ATOM     16  C   UNL     1       1.791   5.386  19.008  0.00  0.00    +0.000 A 
ATOM     17  C   UNL     1       2.094   6.771  19.162  0.00  0.00    +0.000 A 
ATOM     18  C   UNL     1       2.203   7.835  18.131  0.00  0.00    +0.000 C 
ATOM     19  N   UNL     1       2.279   7.097  20.448  0.00  0.00    +0.000 NA
ATOM     20  N   UNL     1       2.044   5.961  21.113  0.00  0.00    +0.000 N 
ATOM     21  C   UNL     1       1.731   4.907  20.310  0.00  0.00    +0.000 A 
ATOM     22  C   UNL     1       1.377   3.577  20.861  0.00  0.00    +0.000 C 
ATOM     23  H   UNL     1       2.100   5.986  22.127  0.00  0.00    +0.000 HD
ENDBRANCH  15  16
ENDBRANCH   4  15
TORSDOF 7
ENDMDL
MODEL 3
REMARK VINA RESULT:      -6.5      3.179      4.813
REMARK  Name = 
REMARK  11 active torsions:
REMARK  status: ('A' for Active; 'I' for Inactive)
REMARK    1  A    between atoms: C_1  and  C_2
REMARK    2  A    between atoms: C_2  and  O_3
REMARK    3  A    between atoms: O_3  and  C_4
REMARK    4  A    between atoms: C_4  and  C_6
REMARK    5  A    between atoms: C_6  and  N_7
REMARK    6  A    between atoms: N_7  and  C_8
REMARK    7  A    between atoms: N_7  and  C_9
REMARK    8  A    between atoms: C_12  and  C_14
REMARK    9  A    between atoms: C_14  and  C_15
REMARK   10  A    between atoms: C_16  and  C_17
REMARK   11  A    between atoms: C_20  and  C_21
REMARK                            x       y       z     vdW  Elec       q    Type
REMARK                         _______ _______ _______ _____ _____    ______ ____
ROOT
ATOM      1  C   UNL     1       6.430   3.718  15.889  0.00  0.00    +0.000 C 
ATOM      2  C   UNL     1       7.101   4.770  16.803  0.00  0.00    +0.000 C 
ATOM      3  N   UNL     1       5.810   4.872  17.463  0.00  0.00    +0.000 N 
ATOM      4  C   UNL     1       5.543   4.918  18.803  0.00  0.00    +0.000 C 
ATOM      5  O   UNL     1       6.448   4.989  19.637  0.00  0.00    +0.000 OA
ATOM      6  C   UNL     1       5.081   4.363  16.312  0.00  0.00    +0.000 C 
ENDROOT
BRANCH   1   7
ATOM      7  N   UNL     1       6.706   3.970  14.450  0.00  0.00    +0.000 NA
ATOM      8  C   UNL     1       7.230   5.339  14.327  0.00  0.00    +0.000 C 
BRANCH   7   9
ATOM      9  C   UNL     1       5.427   3.858  13.699  0.00  0.00    +0.000 C 
BRANCH   9  10
ATOM     10  C   UNL     1       5.592   3.395  12.259  0.00  0.00    +0.000 C 
ATOM     11  O   UNL     1       6.513   2.680  11.883  0.00  0.00    +0.000 OA
BRANCH  10  12
ATOM     12  O   UNL     1       4.677   3.988  11.443  0.00  0.00    +0.000 OA
BRANCH  12  14
ATOM     13  C   UNL     1       2.992   3.816   9.755  0.00  0.00    +0.000 C 
ATOM     14  C   UNL     1       3.652   3.122  10.934  0.00  0.00    +0.000 C 
ENDBRANCH  12  14
ENDBRANCH  10  12
ENDBRANCH   9  10
ENDBRANCH   7   9
ENDBRANCH   1   7
BRANCH   4  15
ATOM     15  C   UNL     1       4.081   4.951  19.214  0.00  0.00    +0.000 C 
BRANCH  15  16
ATOM     16  C   UNL     1       3.346   3.677  18.963  0.00  0.00    +0.000 A 
ATOM     17  C   UNL     1       3.615   2.376  19.481  0.00  0.00    +0.000 A 
ATOM     18  C   UNL     1       4.690   1.932  20.406  0.00  0.00    +0.000 C 
ATOM     19  N   UNL     1       2.724   1.476  19.047  0.00  0.00    +0.000 NA
ATOM     20  N   UNL     1       1.866   2.190  18.311  0.00  0.00    +0.000 N 
ATOM     21  C   UNL     1       2.174   3.515  18.236  0.00  0.00    +0.000 A 
ATOM     22  C   UNL     1       1.311   4.482  17.518  0.00  0.00    +0.000 C 
ATOM     23  H   UNL     1       1.075   1.703  17.900  0.00  0.00    +0.000 HD
ENDBRANCH  15  16
ENDBRANCH   4  15
TORSDOF 7
ENDMDL
MODEL 4
REMARK VINA RESULT:      -6.3      4.147      6.740
REMARK  Name = 
REMARK  11 active torsions:
REMARK  status: ('A' for Active; 'I' for Inactive)
REMARK    1  A    between atoms: C_1  and  C_2
REMARK    2  A    between atoms: C_2  and  O_3
REMARK    3  A    between atoms: O_3  and  C_4
REMARK    4  A    between atoms: C_4  and  C_6
REMARK    5  A    between atoms: C_6  and  N_7
REMARK    6  A    between atoms: N_7  and  C_8
REMARK    7  A    between atoms: N_7  and  C_9
REMARK    8  A    between atoms: C_12  and  C_14
REMARK    9  A    between atoms: C_14  and  C_15
REMARK   10  A    between atoms: C_16  and  C_17
REMARK   11  A    between atoms: C_20  and  C_21
REMARK                            x       y       z     vdW  Elec       q    Type
REMARK                         _______ _______ _______ _____ _____    ______ ____
ROOT
ATOM      1  C   UNL     1       3.597   6.674  19.178  0.00  0.00    +0.000 C 
ATOM      2  C   UNL     1       3.154   7.170  17.782  0.00  0.00    +0.000 C 
ATOM      3  N   UNL     1       2.122   7.914  18.485  0.00  0.00    +0.000 N 
ATOM      4  C   UNL     1       1.724   9.207  18.286  0.00  0.00    +0.000 C 
ATOM      5  O   UNL     1       2.164   9.879  17.351  0.00  0.00    +0.000 OA
ATOM      6  C   UNL     1       2.164   7.046  19.650  0.00  0.00    +0.000 C 
ENDROOT
BRANCH   1   7
ATOM      7  N   UNL     1       3.798   5.201  19.213  0.00  0.00    +0.000 NA
ATOM      8  C   UNL     1       5.247   4.947  19.197  0.00  0.00    +0.000 C 
BRANCH   7   9
ATOM      9  C   UNL     1       3.177   4.613  17.996  0.00  0.00    +0.000 C 
BRANCH   9  10
ATOM     10  C   UNL     1       2.612   3.215  18.202  0.00  0.00    +0.000 C 
ATOM     11  O   UNL     1       2.159   2.532  17.292  0.00  0.00    +0.000 OA
BRANCH  10  12
ATOM     12  O   UNL     1       2.555   2.898  19.526  0.00  0.00    +0.000 OA
BRANCH  12  14
ATOM     13  C   UNL     1       1.380   2.708  21.599  0.00  0.00    +0.000 C 
ATOM     14  C   UNL     1       1.238   2.872  20.096  0.00  0.00    +0.000 C 
ENDBRANCH  12  14
ENDBRANCH  10  12
ENDBRANCH   9  10
ENDBRANCH   7   9
ENDBRANCH   1   7
BRANCH   4  15
ATOM     15  C   UNL     1       0.663   9.753  19.226  0.00  0.00    +0.000 C 
BRANCH  15  16
ATOM     16  C   UNL     1      -0.043  10.964  18.713  0.00  0.00    +0.000 A 
ATOM     17  C   UNL     1       0.335  12.334  18.833  0.00  0.00    +0.000 A 
ATOM     18  C   UNL     1       1.524  12.931  19.494  0.00  0.00    +0.000 C 
ATOM     19  N   UNL     1      -0.542  13.144  18.226  0.00  0.00    +0.000 NA
ATOM     20  N   UNL     1      -1.435  12.313  17.679  0.00  0.00    +0.000 N 
ATOM     21  C   UNL     1      -1.182  10.996  17.920  0.00  0.00    +0.000 A 
ATOM     22  C   UNL     1      -2.022   9.918  17.347  0.00  0.00    +0.000 C 
ATOM     23  H   UNL     1      -2.189  12.721  17.134  0.00  0.00    +0.000 HD
ENDBRANCH  15  16
ENDBRANCH   4  15
TORSDOF 7
ENDMDL
MODEL 5
REMARK VINA RESULT:      -6.3      4.014      6.501
REMARK  Name = 
REMARK  11 active torsions:
REMARK  status: ('A' for Active; 'I' for Inactive)
REMARK    1  A    between atoms: C_1  and  C_2
REMARK    2  A    between atoms: C_2  and  O_3
REMARK    3  A    between atoms: O_3  and  C_4
REMARK    4  A    between atoms: C_4  and  C_6
REMARK    5  A    between atoms: C_6  and  N_7
REMARK    6  A    between atoms: N_7  and  C_8
REMARK    7  A    between atoms: N_7  and  C_9
REMARK    8  A    between atoms: C_12  and  C_14
REMARK    9  A    between atoms: C_14  and  C_15
REMARK   10  A    between atoms: C_16  and  C_17
REMARK   11  A    between atoms: C_20  and  C_21
REMARK                            x       y       z     vdW  Elec       q    Type
REMARK                         _______ _______ _______ _____ _____    ______ ____
ROOT
ATOM      1  C   UNL     1       3.712   6.434  19.043  0.00  0.00    +0.000 C 
ATOM      2  C   UNL     1       3.192   7.000  17.702  0.00  0.00    +0.000 C 
ATOM      3  N   UNL     1       2.212   7.718  18.500  0.00  0.00    +0.000 N 
ATOM      4  C   UNL     1       1.816   9.022  18.388  0.00  0.00    +0.000 C 
ATOM      5  O   UNL     1       2.207   9.735  17.462  0.00  0.00    +0.000 OA
ATOM      6  C   UNL     1       2.313   6.793  19.617  0.00  0.00    +0.000 C 
ENDROOT
BRANCH   1   7
ATOM      7  N   UNL     1       3.898   4.960  18.994  0.00  0.00    +0.000 NA
ATOM      8  C   UNL     1       5.338   4.687  19.125  0.00  0.00    +0.000 C 
BRANCH   7   9
ATOM      9  C   UNL     1       3.417   4.468  17.676  0.00  0.00    +0.000 C 
BRANCH   9  10
ATOM     10  C   UNL     1       2.078   3.746  17.735  0.00  0.00    +0.000 C 
ATOM     11  O   UNL     1       1.060   4.174  17.206  0.00  0.00    +0.000 OA
BRANCH  10  12
ATOM     12  O   UNL     1       2.140   2.660  18.555  0.00  0.00    +0.000 OA
BRANCH  12  14
ATOM     13  C   UNL     1       1.146   3.316  20.628  0.00  0.00    +0.000 C 
ATOM     14  C   UNL     1       0.990   2.452  19.388  0.00  0.00    +0.000 C 
ENDBRANCH  12  14
ENDBRANCH  10  12
ENDBRANCH   9  10
ENDBRANCH   7   9
ENDBRANCH   1   7
BRANCH   4  15
ATOM     15  C   UNL     1       0.818   9.530  19.415  0.00  0.00    +0.000 C 
BRANCH  15  16
ATOM     16  C   UNL     1       0.144  10.805  19.033  0.00  0.00    +0.000 A 
ATOM     17  C   UNL     1      -1.006  10.994  18.211  0.00  0.00    +0.000 A 
ATOM     18  C   UNL     1      -1.844   9.984  17.513  0.00  0.00    +0.000 C 
ATOM     19  N   UNL     1      -1.335  12.287  18.109  0.00  0.00    +0.000 NA
ATOM     20  N   UNL     1      -0.452  12.915  18.893  0.00  0.00    +0.000 N 
ATOM     21  C   UNL     1       0.448  12.082  19.486  0.00  0.00    +0.000 A 
ATOM     22  C   UNL     1       1.468  12.579  20.439  0.00  0.00    +0.000 C 
ATOM     23  H   UNL     1      -0.536  13.923  18.988  0.00  0.00    +0.000 HD
ENDBRANCH  15  16
ENDBRANCH   4  15
TORSDOF 7
ENDMDL
MODEL 6
REMARK VINA RESULT:      -6.2      4.370      6.847
REMARK  Name = 
REMARK  11 active torsions:
REMARK  status: ('A' for Active; 'I' for Inactive)
REMARK    1  A    between atoms: C_1  and  C_2
REMARK    2  A    between atoms: C_2  and  O_3
REMARK    3  A    between atoms: O_3  and  C_4
REMARK    4  A    between atoms: C_4  and  C_6
REMARK    5  A    between atoms: C_6  and  N_7
REMARK    6  A    between atoms: N_7  and  C_8
REMARK    7  A    between atoms: N_7  and  C_9
REMARK    8  A    between atoms: C_12  and  C_14
REMARK    9  A    between atoms: C_14  and  C_15
REMARK   10  A    between atoms: C_16  and  C_17
REMARK   11  A    between atoms: C_20  and  C_21
REMARK                            x       y       z     vdW  Elec       q    Type
REMARK                         _______ _______ _______ _____ _____    ______ ____
ROOT
ATOM      1  C   UNL     1       3.121   6.646  19.412  0.00  0.00    +0.000 C 
ATOM      2  C   UNL     1       2.611   7.113  18.028  0.00  0.00    +0.000 C 
ATOM      3  N   UNL     1       1.847   8.111  18.760  0.00  0.00    +0.000 N 
ATOM      4  C   UNL     1       1.693   9.439  18.473  0.00  0.00    +0.000 C 
ATOM      5  O   UNL     1       2.135   9.928  17.432  0.00  0.00    +0.000 OA
ATOM      6  C   UNL     1       1.863   7.347  19.996  0.00  0.00    +0.000 C 
ENDROOT
BRANCH   1   7
ATOM      7  N   UNL     1       3.026   5.171  19.575  0.00  0.00    +0.000 NA
ATOM      8  C   UNL     1       2.333   4.905  20.845  0.00  0.00    +0.000 C 
BRANCH   7   9
ATOM      9  C   UNL     1       4.403   4.614  19.634  0.00  0.00    +0.000 C 
BRANCH   9  10
ATOM     10  C   UNL     1       4.477   3.114  19.389  0.00  0.00    +0.000 C 
ATOM     11  O   UNL     1       5.004   2.330  20.168  0.00  0.00    +0.000 OA
BRANCH  10  12
ATOM     12  O   UNL     1       4.012   2.795  18.149  0.00  0.00    +0.000 OA
BRANCH  12  14
ATOM     13  C   UNL     1       1.732   2.132  18.433  0.00  0.00    +0.000 C 
ATOM     14  C   UNL     1       3.136   1.659  18.093  0.00  0.00    +0.000 C 
ENDBRANCH  12  14
ENDBRANCH  10  12
ENDBRANCH   9  10
ENDBRANCH   7   9
ENDBRANCH   1   7
BRANCH   4  15
ATOM     15  C   UNL     1       0.892  10.268  19.462  0.00  0.00    +0.000 C 
BRANCH  15  16
ATOM     16  C   UNL     1       0.130  11.392  18.842  0.00  0.00    +0.000 A 
ATOM     17  C   UNL     1       0.500  12.765  18.732  0.00  0.00    +0.000 A 
ATOM     18  C   UNL     1       1.731  13.452  19.200  0.00  0.00    +0.000 C 
ATOM     19  N   UNL     1      -0.434  13.479  18.091  0.00  0.00    +0.000 NA
ATOM     20  N   UNL     1      -1.359  12.577  17.745  0.00  0.00    +0.000 N 
ATOM     21  C   UNL     1      -1.071  11.309  18.150  0.00  0.00    +0.000 A 
ATOM     22  C   UNL     1      -1.941  10.159  17.810  0.00  0.00    +0.000 C 
ATOM     23  H   UNL     1      -2.160  12.902  17.212  0.00  0.00    +0.000 HD
ENDBRANCH  15  16
ENDBRANCH   4  15
TORSDOF 7
ENDMDL
MODEL 7
REMARK VINA RESULT:      -6.2      3.104      4.801
REMARK  Name = 
REMARK  11 active torsions:
REMARK  status: ('A' for Active; 'I' for Inactive)
REMARK    1  A    between atoms: C_1  and  C_2
REMARK    2  A    between atoms: C_2  and  O_3
REMARK    3  A    between atoms: O_3  and  C_4
REMARK    4  A    between atoms: C_4  and  C_6
REMARK    5  A    between atoms: C_6  and  N_7
REMARK    6  A    between atoms: N_7  and  C_8
REMARK    7  A    between atoms: N_7  and  C_9
REMARK    8  A    between atoms: C_12  and  C_14
REMARK    9  A    between atoms: C_14  and  C_15
REMARK   10  A    between atoms: C_16  and  C_17
REMARK   11  A    between atoms: C_20  and  C_21
REMARK                            x       y       z     vdW  Elec       q    Type
REMARK                         _______ _______ _______ _____ _____    ______ ____
ROOT
ATOM      1  C   UNL     1       6.546   4.742  15.295  0.00  0.00    +0.000 C 
ATOM      2  C   UNL     1       5.295   5.647  15.377  0.00  0.00    +0.000 C 
ATOM      3  N   UNL     1       5.024   4.986  16.643  0.00  0.00    +0.000 N 
ATOM      4  C   UNL     1       4.632   5.546  17.827  0.00  0.00    +0.000 C 
ATOM      5  O   UNL     1       4.350   6.743  17.909  0.00  0.00    +0.000 OA
ATOM      6  C   UNL     1       5.812   3.813  16.300  0.00  0.00    +0.000 C 
ENDROOT
BRANCH   1   7
ATOM      7  N   UNL     1       6.676   4.085  13.968  0.00  0.00    +0.000 NA
ATOM      8  C   UNL     1       7.444   4.988  13.095  0.00  0.00    +0.000 C 
BRANCH   7   9
ATOM      9  C   UNL     1       5.314   3.889  13.404  0.00  0.00    +0.000 C 
BRANCH   9  10
ATOM     10  C   UNL     1       5.292   3.128  12.086  0.00  0.00    +0.000 C 
ATOM     11  O   UNL     1       4.410   3.262  11.247  0.00  0.00    +0.000 OA
BRANCH  10  12
ATOM     12  O   UNL     1       6.288   2.200  12.037  0.00  0.00    +0.000 OA
BRANCH  12  14
ATOM     13  C   UNL     1       6.161  -0.094  11.376  0.00  0.00    +0.000 C 
ATOM     14  C   UNL     1       6.272   1.340  10.888  0.00  0.00    +0.000 C 
ENDBRANCH  12  14
ENDBRANCH  10  12
ENDBRANCH   9  10
ENDBRANCH   7   9
ENDBRANCH   1   7
BRANCH   4  15
ATOM     15  C   UNL     1       4.491   4.613  19.017  0.00  0.00    +0.000 C 
BRANCH  15  16
ATOM     16  C   UNL     1       3.146   3.980  19.143  0.00  0.00    +0.000 A 
ATOM     17  C   UNL     1       2.736   2.672  18.750  0.00  0.00    +0.000 A 
ATOM     18  C   UNL     1       3.525   1.586  18.113  0.00  0.00    +0.000 C 
ATOM     19  N   UNL     1       1.448   2.449  19.040  0.00  0.00    +0.000 NA
ATOM     20  N   UNL     1       1.051   3.566  19.658  0.00  0.00    +0.000 N 
ATOM     21  C   UNL     1       2.025   4.512  19.765  0.00  0.00    +0.000 A 
ATOM     22  C   UNL     1       1.798   5.795  20.472  0.00  0.00    +0.000 C 
ATOM     23  H   UNL     1       0.094   3.604  19.998  0.00  0.00    +0.000 HD
ENDBRANCH  15  16
ENDBRANCH   4  15
TORSDOF 7
ENDMDL
MODEL 8
REMARK VINA RESULT:      -6.2      3.115      4.844
REMARK  Name = 
REMARK  11 active torsions:
REMARK  status: ('A' for Active; 'I' for Inactive)
REMARK    1  A    between atoms: C_1  and  C_2
REMARK    2  A    between atoms: C_2  and  O_3
REMARK    3  A    between atoms: O_3  and  C_4
REMARK    4  A    between atoms: C_4  and  C_6
REMARK    5  A    between atoms: C_6  and  N_7
REMARK    6  A    between atoms: N_7  and  C_8
REMARK    7  A    between atoms: N_7  and  C_9
REMARK    8  A    between atoms: C_12  and  C_14
REMARK    9  A    between atoms: C_14  and  C_15
REMARK   10  A    between atoms: C_16  and  C_17
REMARK   11  A    between atoms: C_20  and  C_21
REMARK                            x       y       z     vdW  Elec       q    Type
REMARK                         _______ _______ _______ _____ _____    ______ ____
ROOT
ATOM      1  C   UNL     1       6.589   4.911  15.274  0.00  0.00    +0.000 C 
ATOM      2  C   UNL     1       5.256   5.695  15.312  0.00  0.00    +0.000 C 
ATOM      3  N   UNL     1       5.029   5.047  16.594  0.00  0.00    +0.000 N 
ATOM      4  C   UNL     1       4.567   5.601  17.755  0.00  0.00    +0.000 C 
ATOM      5  O   UNL     1       4.171   6.768  17.797  0.00  0.00    +0.000 OA
ATOM      6  C   UNL     1       5.930   3.945  16.297  0.00  0.00    +0.000 C 
ENDROOT
BRANCH   1   7
ATOM      7  N   UNL     1       6.802   4.231  13.969  0.00  0.00    +0.000 NA
ATOM      8  C   UNL     1       7.640   5.110  13.139  0.00  0.00    +0.000 C 
BRANCH   7   9
ATOM      9  C   UNL     1       5.480   4.042  13.315  0.00  0.00    +0.000 C 
BRANCH   9  10
ATOM     10  C   UNL     1       5.497   3.060  12.152  0.00  0.00    +0.000 C 
ATOM     11  O   UNL     1       6.518   2.522  11.742  0.00  0.00    +0.000 OA
BRANCH  10  12
ATOM     12  O   UNL     1       4.274   2.977  11.560  0.00  0.00    +0.000 OA
BRANCH  12  14
ATOM     13  C   UNL     1       2.893   3.600   9.710  0.00  0.00    +0.000 C 
ATOM     14  C   UNL     1       3.920   4.085  10.719  0.00  0.00    +0.000 C 
ENDBRANCH  12  14
ENDBRANCH  10  12
ENDBRANCH   9  10
ENDBRANCH   7   9
ENDBRANCH   1   7
BRANCH   4  15
ATOM     15  C   UNL     1       4.496   4.694  18.971  0.00  0.00    +0.000 C 
BRANCH  15  16
ATOM     16  C   UNL     1       3.144   4.114  19.224  0.00  0.00    +0.000 A 
ATOM     17  C   UNL     1       2.029   4.710  19.883  0.00  0.00    +0.000 A 
ATOM     18  C   UNL     1       1.902   6.057  20.496  0.00  0.00    +0.000 C 
ATOM     19  N   UNL     1       0.971   3.889  19.904  0.00  0.00    +0.000 NA
ATOM     20  N   UNL     1       1.376   2.811  19.224  0.00  0.00    +0.000 N 
ATOM     21  C   UNL     1       2.660   2.892  18.777  0.00  0.00    +0.000 A 
ATOM     22  C   UNL     1       3.272   1.825  17.951  0.00  0.00    +0.000 C 
ATOM     23  H   UNL     1       0.707   2.058  19.089  0.00  0.00    +0.000 HD
ENDBRANCH  15  16
ENDBRANCH   4  15
TORSDOF 7
ENDMDL
MODEL 9
REMARK VINA RESULT:      -6.2      3.992      5.681
REMARK  Name = 
REMARK  11 active torsions:
REMARK  status: ('A' for Active; 'I' for Inactive)
REMARK    1  A    between atoms: C_1  and  C_2
REMARK    2  A    between atoms: C_2  and  O_3
REMARK    3  A    between atoms: O_3  and  C_4
REMARK    4  A    between atoms: C_4  and  C_6
REMARK    5  A    between atoms: C_6  and  N_7
REMARK    6  A    between atoms: N_7  and  C_8
REMARK    7  A    between atoms: N_7  and  C_9
REMARK    8  A    between atoms: C_12  and  C_14
REMARK    9  A    between atoms: C_14  and  C_15
REMARK   10  A    between atoms: C_16  and  C_17
REMARK   11  A    between atoms: C_20  and  C_21
REMARK                            x       y       z     vdW  Elec       q    Type
REMARK                         _______ _______ _______ _____ _____    ______ ____
ROOT
ATOM      1  C   UNL     1       2.539   6.029  18.309  0.00  0.00    +0.000 C 
ATOM      2  C   UNL     1       2.583   6.592  19.749  0.00  0.00    +0.000 C 
ATOM      3  N   UNL     1       2.260   7.876  19.148  0.00  0.00    +0.000 N 
ATOM      4  C   UNL     1       1.352   8.807  19.573  0.00  0.00    +0.000 C 
ATOM      5  O   UNL     1       0.755   8.681  20.644  0.00  0.00    +0.000 OA
ATOM      6  C   UNL     1       2.766   7.493  17.841  0.00  0.00    +0.000 C 
ENDROOT
BRANCH   1   7
ATOM      7  N   UNL     1       3.724   5.186  18.001  0.00  0.00    +0.000 NA
ATOM      8  C   UNL     1       3.235   3.864  17.580  0.00  0.00    +0.000 C 
BRANCH   7   9
ATOM      9  C   UNL     1       4.536   5.045  19.238  0.00  0.00    +0.000 C 
BRANCH   9  10
ATOM     10  C   UNL     1       6.032   5.231  19.023  0.00  0.00    +0.000 C 
ATOM     11  O   UNL     1       6.847   5.238  19.937  0.00  0.00    +0.000 OA
BRANCH  10  12
ATOM     12  O   UNL     1       6.309   5.524  17.722  0.00  0.00    +0.000 OA
BRANCH  12  14
ATOM     13  C   UNL     1       7.010   4.654  15.609  0.00  0.00    +0.000 C 
ATOM     14  C   UNL     1       7.296   4.688  17.100  0.00  0.00    +0.000 C 
ENDBRANCH  12  14
ENDBRANCH  10  12
ENDBRANCH   9  10
ENDBRANCH   7   9
ENDBRANCH   1   7
BRANCH   4  15
ATOM     15  C   UNL     1       1.169  10.037  18.701  0.00  0.00    +0.000 C 
BRANCH  15  16
ATOM     16  C   UNL     1      -0.070  10.816  18.995  0.00  0.00    +0.000 A 
ATOM     17  C   UNL     1      -0.256  11.870  19.937  0.00  0.00    +0.000 A 
ATOM     18  C   UNL     1       0.720  12.480  20.878  0.00  0.00    +0.000 C 
ATOM     19  N   UNL     1      -1.507  12.346  19.907  0.00  0.00    +0.000 NA
ATOM     20  N   UNL     1      -2.099  11.653  18.929  0.00  0.00    +0.000 N 
ATOM     21  C   UNL     1      -1.287  10.736  18.334  0.00  0.00    +0.000 A 
ATOM     22  C   UNL     1      -1.741   9.912  17.188  0.00  0.00    +0.000 C 
ATOM     23  H   UNL     1      -3.066  11.876  18.709  0.00  0.00    +0.000 HD
ENDBRANCH  15  16
ENDBRANCH   4  15
TORSDOF 7
ENDMDL
