MODEL 1
REMARK VINA RESULT:      -6.2      0.000      0.000
REMARK  Name = 
REMARK  10 active torsions:
REMARK  status: ('A' for Active; 'I' for Inactive)
REMARK    1  A    between atoms: C_1  and  C_2
REMARK    2  A    between atoms: C_2  and  C_3
REMARK    3  A    between atoms: C_3  and  C_4
REMARK    4  A    between atoms: C_3  and  C_5
REMARK    5  A    between atoms: C_3  and  C_6
REMARK    6  A    between atoms: C_6  and  O_7
REMARK    7  A    between atoms: O_7  and  C_8
REMARK    8  A    between atoms: C_8  and  C_10
REMARK    9  A    between atoms: C_13  and  C_14
REMARK   10  A    between atoms: C_16  and  C_17
REMARK                            x       y       z     vdW  Elec       q    Type
REMARK                         _______ _______ _______ _____ _____    ______ ____
ROOT
ATOM      1  C   UNL     1       3.160   6.042  19.134  0.00  0.00    +0.000 C 
ATOM      2  O   UNL     1       2.367   6.964  19.046  0.00  0.00    +0.000 OA
ENDROOT
BRANCH   1   3
ATOM      3  C   UNL     1       4.207   5.754  18.105  0.00  0.00    +0.000 A 
ATOM      4  C   UNL     1       3.936   4.834  17.101  0.00  0.00    +0.000 A 
ATOM      5  C   UNL     1       4.874   4.672  16.080  0.00  0.00    +0.000 A 
ATOM      6  C   UNL     1       6.053   5.428  16.084  0.00  0.00    +0.000 A 
ATOM      7  C   UNL     1       6.265   6.315  17.143  0.00  0.00    +0.000 A 
ATOM      8  C   UNL     1       7.509   7.146  17.285  0.00  0.00    +0.000 C 
ATOM      9  N   UNL     1       5.356   6.484  18.141  0.00  0.00    +0.000 NA
BRANCH   6  10
ATOM     10  C   UNL     1       6.988   5.275  15.010  0.00  0.00    +0.000 C 
ATOM     11  N   UNL     1       7.745   5.144  14.143  0.00  0.00    +0.000 NA
ENDBRANCH   6  10
ENDBRANCH   1   3
BRANCH   1  12
ATOM     12  O   UNL     1       3.288   5.186  20.183  0.00  0.00    +0.000 OA
BRANCH  12  13
ATOM     13  C   UNL     1       2.071   4.652  20.724  0.00  0.00    +0.000 C 
BRANCH  13  14
ATOM     14  C   UNL     1       1.883   3.130  20.490  0.00  0.00    +0.000 C 
ATOM     15  C   UNL     1       0.816   2.895  19.406  0.00  0.00    +0.000 C 
ATOM     16  C   UNL     1       1.429   2.453  21.794  0.00  0.00    +0.000 C 
BRANCH  14  18
ATOM     17  C   UNL     1       3.254   1.727  18.759  0.00  0.00    +0.000 C 
ATOM     18  C   UNL     1       3.259   2.568  20.030  0.00  0.00    +0.000 C 
ENDBRANCH  14  18
ENDBRANCH  13  14
ENDBRANCH  12  13
ENDBRANCH   1  12
TORSDOF 6
ENDMDL
MODEL 2
REMARK VINA RESULT:      -6.2      2.204      5.795
REMARK  Name = 
REMARK  10 active torsions:
REMARK  status: ('A' for Active; 'I' for Inactive)
REMARK    1  A    between atoms: C_1  and  C_2
REMARK    2  A    between atoms: C_2  and  C_3
REMARK    3  A    between atoms: C_3  and  C_4
REMARK    4  A    between atoms: C_3  and  C_5
REMARK    5  A    between atoms: C_3  and  C_6
REMARK    6  A    between atoms: C_6  and  O_7
REMARK    7  A    between atoms: O_7  and  C_8
REMARK    8  A    between atoms: C_8  and  C_10
REMARK    9  A    between atoms: C_13  and  C_14
REMARK   10  A    between atoms: C_16  and  C_17
REMARK                            x       y       z     vdW  Elec       q    Type
REMARK                         _______ _______ _______ _____ _____    ______ ____
ROOT
ATOM      1  C   UNL     1       3.981   6.982  17.830  0.00  0.00    +0.000 C 
ATOM      2  O   UNL     1       3.304   7.884  17.368  0.00  0.00    +0.000 OA
ENDROOT
BRANCH   1   3
ATOM      3  C   UNL     1       3.489   6.036  18.880  0.00  0.00    +0.000 A 
ATOM      4  C   UNL     1       2.396   6.394  19.657  0.00  0.00    +0.000 A 
ATOM      5  C   UNL     1       1.874   5.449  20.541  0.00  0.00    +0.000 A 
ATOM      6  C   UNL     1       2.451   4.176  20.628  0.00  0.00    +0.000 A 
ATOM      7  C   UNL     1       3.565   3.900  19.832  0.00  0.00    +0.000 A 
ATOM      8  C   UNL     1       4.301   2.589  19.868  0.00  0.00    +0.000 C 
ATOM      9  N   UNL     1       4.080   4.812  18.963  0.00  0.00    +0.000 NA
BRANCH   6  10
ATOM     10  C   UNL     1       1.881   3.207  21.516  0.00  0.00    +0.000 C 
ATOM     11  N   UNL     1       1.419   2.419  22.228  0.00  0.00    +0.000 NA
ENDBRANCH   6  10
ENDBRANCH   1   3
BRANCH   1  12
ATOM     12  O   UNL     1       5.234   6.631  17.435  0.00  0.00    +0.000 OA
BRANCH  12  13
ATOM     13  C   UNL     1       5.370   6.152  16.090  0.00  0.00    +0.000 C 
BRANCH  13  14
ATOM     14  C   UNL     1       6.163   4.826  15.962  0.00  0.00    +0.000 C 
ATOM     15  C   UNL     1       5.203   3.628  16.073  0.00  0.00    +0.000 C 
ATOM     16  C   UNL     1       7.210   4.732  17.084  0.00  0.00    +0.000 C 
BRANCH  14  18
ATOM     17  C   UNL     1       6.256   3.926  13.507  0.00  0.00    +0.000 C 
ATOM     18  C   UNL     1       6.853   4.843  14.567  0.00  0.00    +0.000 C 
ENDBRANCH  14  18
ENDBRANCH  13  14
ENDBRANCH  12  13
ENDBRANCH   1  12
TORSDOF 6
ENDMDL
MODEL 3
REMARK VINA RESULT:      -6.2      2.615      5.785
REMARK  Name = 
REMARK  10 active torsions:
REMARK  status: ('A' for Active; 'I' for Inactive)
REMARK    1  A    between atoms: C_1  and  C_2
REMARK    2  A    between atoms: C_2  and  C_3
REMARK    3  A    between atoms: C_3  and  C_4
REMARK    4  A    between atoms: C_3  and  C_5
REMARK    5  A    between atoms: C_3  and  C_6
REMARK    6  A    between atoms: C_6  and  O_7
REMARK    7  A    between atoms: O_7  and  C_8
REMARK    8  A    between atoms: C_8  and  C_10
REMARK    9  A    between atoms: C_13  and  C_14
REMARK   10  A    between atoms: C_16  and  C_17
REMARK                            x       y       z     vdW  Elec       q    Type
REMARK                         _______ _______ _______ _____ _____    ______ ____
ROOT
ATOM      1  C   UNL     1       7.103   5.739  18.536  0.00  0.00    +0.000 C 
ATOM      2  O   UNL     1       7.982   5.944  19.355  0.00  0.00    +0.000 OA
ENDROOT
BRANCH   1   3
ATOM      3  C   UNL     1       5.741   5.232  18.896  0.00  0.00    +0.000 A 
ATOM      4  C   UNL     1       4.640   6.057  18.708  0.00  0.00    +0.000 A 
ATOM      5  C   UNL     1       3.369   5.524  18.929  0.00  0.00    +0.000 A 
ATOM      6  C   UNL     1       3.228   4.189  19.330  0.00  0.00    +0.000 A 
ATOM      7  C   UNL     1       4.385   3.431  19.522  0.00  0.00    +0.000 A 
ATOM      8  C   UNL     1       4.367   2.004  19.994  0.00  0.00    +0.000 C 
ATOM      9  N   UNL     1       5.629   3.938  19.305  0.00  0.00    +0.000 NA
BRANCH   6  10
ATOM     10  C   UNL     1       1.914   3.649  19.518  0.00  0.00    +0.000 C 
ATOM     11  N   UNL     1       0.851   3.213  19.663  0.00  0.00    +0.000 NA
ENDBRANCH   6  10
ENDBRANCH   1   3
BRANCH   1  12
ATOM     12  O   UNL     1       7.166   5.999  17.203  0.00  0.00    +0.000 OA
BRANCH  12  13
ATOM     13  C   UNL     1       7.247   4.861  16.332  0.00  0.00    +0.000 C 
BRANCH  13  14
ATOM     14  C   UNL     1       6.093   4.766  15.299  0.00  0.00    +0.000 C 
ATOM     15  C   UNL     1       5.338   6.105  15.232  0.00  0.00    +0.000 C 
ATOM     16  C   UNL     1       5.110   3.659  15.715  0.00  0.00    +0.000 C 
BRANCH  14  18
ATOM     17  C   UNL     1       5.899   3.611  12.960  0.00  0.00    +0.000 C 
ATOM     18  C   UNL     1       6.742   4.436  13.924  0.00  0.00    +0.000 C 
ENDBRANCH  14  18
ENDBRANCH  13  14
ENDBRANCH  12  13
ENDBRANCH   1  12
TORSDOF 6
ENDMDL
MODEL 4
REMARK VINA RESULT:      -6.0      0.682      1.208
REMARK  Name = 
REMARK  10 active torsions:
REMARK  status: ('A' for Active; 'I' for Inactive)
REMARK    1  A    between atoms: C_1  and  C_2
REMARK    2  A    between atoms: C_2  and  C_3
REMARK    3  A    between atoms: C_3  and  C_4
REMARK    4  A    between atoms: C_3  and  C_5
REMARK    5  A    between atoms: C_3  and  C_6
REMARK    6  A    between atoms: C_6  and  O_7
REMARK    7  A    between atoms: O_7  and  C_8
REMARK    8  A    between atoms: C_8  and  C_10
REMARK    9  A    between atoms: C_13  and  C_14
REMARK   10  A    between atoms: C_16  and  C_17
REMARK                            x       y       z     vdW  Elec       q    Type
REMARK                         _______ _______ _______ _____ _____    ______ ____
ROOT
ATOM      1  C   UNL     1       2.625   6.412  18.984  0.00  0.00    +0.000 C 
ATOM      2  O   UNL     1       2.440   7.545  19.395  0.00  0.00    +0.000 OA
ENDROOT
BRANCH   1   3
ATOM      3  C   UNL     1       3.780   6.030  18.112  0.00  0.00    +0.000 A 
ATOM      4  C   UNL     1       3.659   4.933  17.269  0.00  0.00    +0.000 A 
ATOM      5  C   UNL     1       4.696   4.669  16.374  0.00  0.00    +0.000 A 
ATOM      6  C   UNL     1       5.823   5.500  16.340  0.00  0.00    +0.000 A 
ATOM      7  C   UNL     1       5.883   6.569  17.238  0.00  0.00    +0.000 A 
ATOM      8  C   UNL     1       7.057   7.503  17.332  0.00  0.00    +0.000 C 
ATOM      9  N   UNL     1       4.875   6.839  18.112  0.00  0.00    +0.000 NA
BRANCH   6  10
ATOM     10  C   UNL     1       6.862   5.234  15.391  0.00  0.00    +0.000 C 
ATOM     11  N   UNL     1       7.699   5.023  14.618  0.00  0.00    +0.000 NA
ENDBRANCH   6  10
ENDBRANCH   1   3
BRANCH   1  12
ATOM     12  O   UNL     1       1.892   5.310  19.297  0.00  0.00    +0.000 OA
BRANCH  12  13
ATOM     13  C   UNL     1       2.174   4.692  20.560  0.00  0.00    +0.000 C 
BRANCH  13  14
ATOM     14  C   UNL     1       2.187   3.141  20.523  0.00  0.00    +0.000 C 
ATOM     15  C   UNL     1       1.666   2.581  21.859  0.00  0.00    +0.000 C 
ATOM     16  C   UNL     1       3.621   2.636  20.294  0.00  0.00    +0.000 C 
BRANCH  14  18
ATOM     17  C   UNL     1       1.926   1.968  18.199  0.00  0.00    +0.000 C 
ATOM     18  C   UNL     1       1.258   2.709  19.351  0.00  0.00    +0.000 C 
ENDBRANCH  14  18
ENDBRANCH  13  14
ENDBRANCH  12  13
ENDBRANCH   1  12
TORSDOF 6
ENDMDL
MODEL 5
REMARK VINA RESULT:      -6.0      3.351      5.216
REMARK  Name = 
REMARK  10 active torsions:
REMARK  status: ('A' for Active; 'I' for Inactive)
REMARK    1  A    between atoms: C_1  and  C_2
REMARK    2  A    between atoms: C_2  and  C_3
REMARK    3  A    between atoms: C_3  and  C_4
REMARK    4  A    between atoms: C_3  and  C_5
REMARK    5  A    between atoms: C_3  and  C_6
REMARK    6  A    between atoms: C_6  and  O_7
REMARK    7  A    between atoms: O_7  and  C_8
REMARK    8  A    between atoms: C_8  and  C_10
REMARK    9  A    between atoms: C_13  and  C_14
REMARK   10  A    between atoms: C_16  and  C_17
REMARK                            x       y       z     vdW  Elec       q    Type
REMARK                         _______ _______ _______ _____ _____    ______ ____
ROOT
ATOM      1  C   UNL     1       3.265   6.108  18.668  0.00  0.00    +0.000 C 
ATOM      2  O   UNL     1       3.710   5.740  17.594  0.00  0.00    +0.000 OA
ENDROOT
BRANCH   1   3
ATOM      3  C   UNL     1       2.544   7.405  18.861  0.00  0.00    +0.000 A 
ATOM      4  C   UNL     1       2.392   8.263  17.780  0.00  0.00    +0.000 A 
ATOM      5  C   UNL     1       1.609   9.406  17.948  0.00  0.00    +0.000 A 
ATOM      6  C   UNL     1       0.998   9.663  19.182  0.00  0.00    +0.000 A 
ATOM      7  C   UNL     1       1.220   8.765  20.229  0.00  0.00    +0.000 A 
ATOM      8  C   UNL     1       0.659   8.954  21.611  0.00  0.00    +0.000 C 
ATOM      9  N   UNL     1       1.977   7.645  20.075  0.00  0.00    +0.000 NA
BRANCH   6  10
ATOM     10  C   UNL     1       0.169  10.822  19.326  0.00  0.00    +0.000 C 
ATOM     11  N   UNL     1      -0.498  11.762  19.448  0.00  0.00    +0.000 NA
ENDBRANCH   6  10
ENDBRANCH   1   3
BRANCH   1  12
ATOM     12  O   UNL     1       3.270   5.399  19.828  0.00  0.00    +0.000 OA
BRANCH  12  13
ATOM     13  C   UNL     1       3.359   3.972  19.706  0.00  0.00    +0.000 C 
BRANCH  13  14
ATOM     14  C   UNL     1       2.115   3.208  20.230  0.00  0.00    +0.000 C 
ATOM     15  C   UNL     1       0.919   4.171  20.346  0.00  0.00    +0.000 C 
ATOM     16  C   UNL     1       2.413   2.613  21.616  0.00  0.00    +0.000 C 
BRANCH  14  18
ATOM     17  C   UNL     1       2.495   2.199  17.846  0.00  0.00    +0.000 C 
ATOM     18  C   UNL     1       1.809   2.081  19.202  0.00  0.00    +0.000 C 
ENDBRANCH  14  18
ENDBRANCH  13  14
ENDBRANCH  12  13
ENDBRANCH   1  12
TORSDOF 6
ENDMDL
MODEL 6
REMARK VINA RESULT:      -6.0      2.601      5.857
REMARK  Name = 
REMARK  10 active torsions:
REMARK  status: ('A' for Active; 'I' for Inactive)
REMARK    1  A    between atoms: C_1  and  C_2
REMARK    2  A    between atoms: C_2  and  C_3
REMARK    3  A    between atoms: C_3  and  C_4
REMARK    4  A    between atoms: C_3  and  C_5
REMARK    5  A    between atoms: C_3  and  C_6
REMARK    6  A    between atoms: C_6  and  O_7
REMARK    7  A    between atoms: O_7  and  C_8
REMARK    8  A    between atoms: C_8  and  C_10
REMARK    9  A    between atoms: C_13  and  C_14
REMARK   10  A    between atoms: C_16  and  C_17
REMARK                            x       y       z     vdW  Elec       q    Type
REMARK                         _______ _______ _______ _____ _____    ______ ____
ROOT
ATOM      1  C   UNL     1       6.521   5.304  19.057  0.00  0.00    +0.000 C 
ATOM      2  O   UNL     1       7.222   5.392  20.050  0.00  0.00    +0.000 OA
ENDROOT
BRANCH   1   3
ATOM      3  C   UNL     1       5.157   4.687  19.062  0.00  0.00    +0.000 A 
ATOM      4  C   UNL     1       4.040   5.513  19.091  0.00  0.00    +0.000 A 
ATOM      5  C   UNL     1       2.780   4.926  18.968  0.00  0.00    +0.000 A 
ATOM      6  C   UNL     1       2.664   3.538  18.818  0.00  0.00    +0.000 A 
ATOM      7  C   UNL     1       3.833   2.773  18.824  0.00  0.00    +0.000 A 
ATOM      8  C   UNL     1       3.837   1.274  18.718  0.00  0.00    +0.000 C 
ATOM      9  N   UNL     1       5.067   3.334  18.939  0.00  0.00    +0.000 NA
BRANCH   6  10
ATOM     10  C   UNL     1       1.365   2.957  18.658  0.00  0.00    +0.000 C 
ATOM     11  N   UNL     1       0.315   2.483  18.534  0.00  0.00    +0.000 NA
ENDBRANCH   6  10
ENDBRANCH   1   3
BRANCH   1  12
ATOM     12  O   UNL     1       6.802   5.803  17.824  0.00  0.00    +0.000 OA
BRANCH  12  13
ATOM     13  C   UNL     1       7.071   4.843  16.792  0.00  0.00    +0.000 C 
BRANCH  13  14
ATOM     14  C   UNL     1       6.369   5.145  15.442  0.00  0.00    +0.000 C 
ATOM     15  C   UNL     1       7.407   5.615  14.406  0.00  0.00    +0.000 C 
ATOM     16  C   UNL     1       5.320   6.252  15.635  0.00  0.00    +0.000 C 
BRANCH  14  18
ATOM     17  C   UNL     1       5.691   3.559  13.475  0.00  0.00    +0.000 C 
ATOM     18  C   UNL     1       5.694   3.823  14.976  0.00  0.00    +0.000 C 
ENDBRANCH  14  18
ENDBRANCH  13  14
ENDBRANCH  12  13
ENDBRANCH   1  12
TORSDOF 6
ENDMDL
MODEL 7
REMARK VINA RESULT:      -6.0      1.876      2.723
REMARK  Name = 
REMARK  10 active torsions:
REMARK  status: ('A' for Active; 'I' for Inactive)
REMARK    1  A    between atoms: C_1  and  C_2
REMARK    2  A    between atoms: C_2  and  C_3
REMARK    3  A    between atoms: C_3  and  C_4
REMARK    4  A    between atoms: C_3  and  C_5
REMARK    5  A    between atoms: C_3  and  C_6
REMARK    6  A    between atoms: C_6  and  O_7
REMARK    7  A    between atoms: O_7  and  C_8
REMARK    8  A    between atoms: C_8  and  C_10
REMARK    9  A    between atoms: C_13  and  C_14
REMARK   10  A    between atoms: C_16  and  C_17
REMARK                            x       y       z     vdW  Elec       q    Type
REMARK                         _______ _______ _______ _____ _____    ______ ____
ROOT
ATOM      1  C   UNL     1       2.162   3.927  17.510  0.00  0.00    +0.000 C 
ATOM      2  O   UNL     1       1.067   4.165  17.029  0.00  0.00    +0.000 OA
ENDROOT
BRANCH   1   3
ATOM      3  C   UNL     1       3.349   4.823  17.342  0.00  0.00    +0.000 A 
ATOM      4  C   UNL     1       3.248   6.158  17.710  0.00  0.00    +0.000 A 
ATOM      5  C   UNL     1       4.399   6.946  17.665  0.00  0.00    +0.000 A 
ATOM      6  C   UNL     1       5.617   6.386  17.259  0.00  0.00    +0.000 A 
ATOM      7  C   UNL     1       5.632   5.041  16.880  0.00  0.00    +0.000 A 
ATOM      8  C   UNL     1       6.864   4.339  16.382  0.00  0.00    +0.000 C 
ATOM      9  N   UNL     1       4.517   4.263  16.924  0.00  0.00    +0.000 NA
BRANCH   6  10
ATOM     10  C   UNL     1       6.795   7.200  17.253  0.00  0.00    +0.000 C 
ATOM     11  N   UNL     1       7.746   7.862  17.242  0.00  0.00    +0.000 NA
ENDBRANCH   6  10
ENDBRANCH   1   3
BRANCH   1  12
ATOM     12  O   UNL     1       2.475   2.886  18.327  0.00  0.00    +0.000 OA
BRANCH  12  13
ATOM     13  C   UNL     1       1.669   2.731  19.503  0.00  0.00    +0.000 C 
BRANCH  13  14
ATOM     14  C   UNL     1       2.421   3.005  20.832  0.00  0.00    +0.000 C 
ATOM     15  C   UNL     1       3.839   2.409  20.764  0.00  0.00    +0.000 C 
ATOM     16  C   UNL     1       1.663   2.359  22.004  0.00  0.00    +0.000 C 
BRANCH  14  18
ATOM     17  C   UNL     1       1.229   5.325  20.636  0.00  0.00    +0.000 C 
ATOM     18  C   UNL     1       2.488   4.550  21.005  0.00  0.00    +0.000 C 
ENDBRANCH  14  18
ENDBRANCH  13  14
ENDBRANCH  12  13
ENDBRANCH   1  12
TORSDOF 6
ENDMDL
MODEL 8
REMARK VINA RESULT:      -5.9      3.503      5.571
REMARK  Name = 
REMARK  10 active torsions:
REMARK  status: ('A' for Active; 'I' for Inactive)
REMARK    1  A    between atoms: C_1  and  C_2
REMARK    2  A    between atoms: C_2  and  C_3
REMARK    3  A    between atoms: C_3  and  C_4
REMARK    4  A    between atoms: C_3  and  C_5
REMARK    5  A    between atoms: C_3  and  C_6
REMARK    6  A    between atoms: C_6  and  O_7
REMARK    7  A    between atoms: O_7  and  C_8
REMARK    8  A    between atoms: C_8  and  C_10
REMARK    9  A    between atoms: C_13  and  C_14
REMARK   10  A    between atoms: C_16  and  C_17
REMARK                            x       y       z     vdW  Elec       q    Type
REMARK                         _______ _______ _______ _____ _____    ______ ____
ROOT
ATOM      1  C   UNL     1       3.220   6.490  18.326  0.00  0.00    +0.000 C 
ATOM      2  O   UNL     1       4.064   6.531  17.447  0.00  0.00    +0.000 OA
ENDROOT
BRANCH   1   3
ATOM      3  C   UNL     1       2.397   7.672  18.734  0.00  0.00    +0.000 A 
ATOM      4  C   UNL     1       1.974   8.571  17.764  0.00  0.00    +0.000 A 
ATOM      5  C   UNL     1       1.104   9.594  18.144  0.00  0.00    +0.000 A 
ATOM      6  C   UNL     1       0.678   9.694  19.475  0.00  0.00    +0.000 A 
ATOM      7  C   UNL     1       1.167   8.767  20.397  0.00  0.00    +0.000 A 
ATOM      8  C   UNL     1       0.822   8.797  21.859  0.00  0.00    +0.000 C 
ATOM      9  N   UNL     1       2.012   7.763  20.037  0.00  0.00    +0.000 NA
BRANCH   6  10
ATOM     10  C   UNL     1      -0.243  10.729  19.839  0.00  0.00    +0.000 C 
ATOM     11  N   UNL     1      -0.985  11.566  20.141  0.00  0.00    +0.000 NA
ENDBRANCH   6  10
ENDBRANCH   1   3
BRANCH   1  12
ATOM     12  O   UNL     1       2.826   5.387  19.016  0.00  0.00    +0.000 OA
BRANCH  12  13
ATOM     13  C   UNL     1       1.985   4.460  18.314  0.00  0.00    +0.000 C 
BRANCH  13  14
ATOM     14  C   UNL     1       2.055   3.005  18.847  0.00  0.00    +0.000 C 
ATOM     15  C   UNL     1       3.009   2.172  17.972  0.00  0.00    +0.000 C 
ATOM     16  C   UNL     1       0.657   2.367  18.808  0.00  0.00    +0.000 C 
BRANCH  14  18
ATOM     17  C   UNL     1       1.556   2.855  21.410  0.00  0.00    +0.000 C 
ATOM     18  C   UNL     1       2.583   3.083  20.308  0.00  0.00    +0.000 C 
ENDBRANCH  14  18
ENDBRANCH  13  14
ENDBRANCH  12  13
ENDBRANCH   1  12
TORSDOF 6
ENDMDL
MODEL 9
REMARK VINA RESULT:      -5.8      2.113      2.916
REMARK  Name = 
REMARK  10 active torsions:
REMARK  status: ('A' for Active; 'I' for Inactive)
REMARK    1  A    between atoms: C_1  and  C_2
REMARK    2  A    between atoms: C_2  and  C_3
REMARK    3  A    between atoms: C_3  and  C_4
REMARK    4  A    between atoms: C_3  and  C_5
REMARK    5  A    between atoms: C_3  and  C_6
REMARK    6  A    between atoms: C_6  and  O_7
REMARK    7  A    between atoms: O_7  and  C_8
REMARK    8  A    between atoms: C_8  and  C_10
REMARK    9  A    between atoms: C_13  and  C_14
REMARK   10  A    between atoms: C_16  and  C_17
REMARK                            x       y       z     vdW  Elec       q    Type
REMARK                         _______ _______ _______ _____ _____    ______ ____
ROOT
ATOM      1  C   UNL     1       4.021   3.487  17.713  0.00  0.00    +0.000 C 
ATOM      2  O   UNL     1       3.268   3.183  16.803  0.00  0.00    +0.000 OA
ENDROOT
BRANCH   1   3
ATOM      3  C   UNL     1       5.012   4.605  17.625  0.00  0.00    +0.000 A 
ATOM      4  C   UNL     1       4.778   5.650  16.741  0.00  0.00    +0.000 A 
ATOM      5  C   UNL     1       5.645   6.743  16.763  0.00  0.00    +0.000 A 
ATOM      6  C   UNL     1       6.719   6.768  17.663  0.00  0.00    +0.000 A 
ATOM      7  C   UNL     1       6.903   5.667  18.504  0.00  0.00    +0.000 A 
ATOM      8  C   UNL     1       8.041   5.555  19.478  0.00  0.00    +0.000 C 
ATOM      9  N   UNL     1       6.061   4.599  18.493  0.00  0.00    +0.000 NA
BRANCH   6  10
ATOM     10  C   UNL     1       7.578   7.914  17.697  0.00  0.00    +0.000 C 
ATOM     11  N   UNL     1       8.278   8.836  17.728  0.00  0.00    +0.000 NA
ENDBRANCH   6  10
ENDBRANCH   1   3
BRANCH   1  12
ATOM     12  O   UNL     1       4.043   2.941  18.958  0.00  0.00    +0.000 OA
BRANCH  12  13
ATOM     13  C   UNL     1       3.405   3.696  19.998  0.00  0.00    +0.000 C 
BRANCH  13  14
ATOM     14  C   UNL     1       2.013   3.155  20.417  0.00  0.00    +0.000 C 
ATOM     15  C   UNL     1       2.084   2.568  21.838  0.00  0.00    +0.000 C 
ATOM     16  C   UNL     1       1.566   2.052  19.443  0.00  0.00    +0.000 C 
BRANCH  14  18
ATOM     17  C   UNL     1       1.632   5.736  20.610  0.00  0.00    +0.000 C 
ATOM     18  C   UNL     1       1.026   4.357  20.373  0.00  0.00    +0.000 C 
ENDBRANCH  14  18
ENDBRANCH  13  14
ENDBRANCH  12  13
ENDBRANCH   1  12
TORSDOF 6
ENDMDL
