MODEL 1
REMARK VINA RESULT:      -8.7      0.000      0.000
REMARK  Name = 
REMARK  4 active torsions:
REMARK  status: ('A' for Active; 'I' for Inactive)
REMARK    1  A    between atoms: C_12  and  C_13
REMARK    2  A    between atoms: N_18  and  C_19
REMARK    3  A    between atoms: C_19  and  C_20
REMARK    4  A    between atoms: C_20  and  C_21
REMARK                            x       y       z     vdW  Elec       q    Type
REMARK                         _______ _______ _______ _____ _____    ______ ____
ROOT
ATOM      1  O   UNL     1       1.432  11.233  19.087  0.00  0.00    +0.000 OA
ATOM      2  C   UNL     1       0.999  10.492  19.961  0.00  0.00    +0.000 A 
ATOM      3  C   UNL     1       0.161  11.056  21.022  0.00  0.00    +0.000 A 
ATOM      4  C   UNL     1      -0.162  12.418  21.025  0.00  0.00    +0.000 A 
ATOM      5  C   UNL     1      -0.965  12.936  22.040  0.00  0.00    +0.000 A 
ATOM      6  C   UNL     1      -1.445  12.091  23.042  0.00  0.00    +0.000 A 
ATOM      7  C   UNL     1      -1.118  10.729  23.032  0.00  0.00    +0.000 A 
ATOM      8  C   UNL     1      -0.310  10.213  22.020  0.00  0.00    +0.000 A 
ATOM      9  O   UNL     1      -0.008   8.876  22.060  0.00  0.00    +0.000 OA
ATOM     10  C   UNL     1       0.782   8.318  21.056  0.00  0.00    +0.000 A 
ATOM     11  N   UNL     1       1.002   6.973  21.192  0.00  0.00    +0.000 NA
ATOM     12  C   UNL     1       1.714   6.328  20.315  0.00  0.00    +0.000 A 
ATOM     13  N   UNL     1       2.252   6.961  19.196  0.00  0.00    +0.000 N 
ATOM     14  C   UNL     1       2.062   8.331  19.019  0.00  0.00    +0.000 A 
ATOM     15  O   UNL     1       2.522   8.939  18.054  0.00  0.00    +0.000 OA
ATOM     16  C   UNL     1       1.269   9.036  20.036  0.00  0.00    +0.000 A 
ENDROOT
BRANCH  12  17
ATOM     17  C   UNL     1       1.821   4.886  20.548  0.00  0.00    +0.000 A 
ATOM     18  C   UNL     1       2.584   4.269  21.532  0.00  0.00    +0.000 A 
ATOM     19  C   UNL     1       2.317   2.872  21.644  0.00  0.00    +0.000 A 
ATOM     20  C   UNL     1       1.434   2.446  20.679  0.00  0.00    +0.000 A 
ATOM     21  S   UNL     1       1.110   3.685  19.549  0.00  0.00    +0.000 S 
ENDBRANCH  12  17
BRANCH  13  22
ATOM     22  C   UNL     1       3.021   6.296  18.125  0.00  0.00    +0.000 C 
BRANCH  22  23
ATOM     23  C   UNL     1       4.476   5.952  18.492  0.00  0.00    +0.000 C 
BRANCH  23  24
ATOM     24  C   UNL     1       5.334   5.514  17.319  0.00  0.00    +0.000 A 
ATOM     25  C   UNL     1       6.523   4.810  17.569  0.00  0.00    +0.000 A 
ATOM     26  C   UNL     1       7.343   4.390  16.518  0.00  0.00    +0.000 A 
ATOM     27  C   UNL     1       6.982   4.656  15.200  0.00  0.00    +0.000 A 
ATOM     28  C   UNL     1       5.790   5.325  14.933  0.00  0.00    +0.000 A 
ATOM     29  C   UNL     1       4.967   5.743  15.984  0.00  0.00    +0.000 A 
ENDBRANCH  23  24
ENDBRANCH  22  23
ENDBRANCH  13  22
TORSDOF 4
ENDMDL
MODEL 2
REMARK VINA RESULT:      -8.7      1.155      1.290
REMARK  Name = 
REMARK  4 active torsions:
REMARK  status: ('A' for Active; 'I' for Inactive)
REMARK    1  A    between atoms: C_12  and  C_13
REMARK    2  A    between atoms: N_18  and  C_19
REMARK    3  A    between atoms: C_19  and  C_20
REMARK    4  A    between atoms: C_20  and  C_21
REMARK                            x       y       z     vdW  Elec       q    Type
REMARK                         _______ _______ _______ _____ _____    ______ ____
ROOT
ATOM      1  O   UNL     1       1.593  11.025  18.696  0.00  0.00    +0.000 OA
ATOM      2  C   UNL     1       1.189  10.353  19.638  0.00  0.00    +0.000 A 
ATOM      3  C   UNL     1       0.443  11.009  20.715  0.00  0.00    +0.000 A 
ATOM      4  C   UNL     1       0.172  12.381  20.658  0.00  0.00    +0.000 A 
ATOM      5  C   UNL     1      -0.543  12.987  21.689  0.00  0.00    +0.000 A 
ATOM      6  C   UNL     1      -0.990  12.221  22.767  0.00  0.00    +0.000 A 
ATOM      7  C   UNL     1      -0.715  10.848  22.816  0.00  0.00    +0.000 A 
ATOM      8  C   UNL     1       0.007  10.243  21.787  0.00  0.00    +0.000 A 
ATOM      9  O   UNL     1       0.260   8.899  21.887  0.00  0.00    +0.000 OA
ATOM     10  C   UNL     1       0.963   8.254  20.870  0.00  0.00    +0.000 A 
ATOM     11  N   UNL     1       1.141   6.911  21.070  0.00  0.00    +0.000 NA
ATOM     12  C   UNL     1       1.771   6.190  20.189  0.00  0.00    +0.000 A 
ATOM     13  N   UNL     1       2.258   6.736  19.004  0.00  0.00    +0.000 N 
ATOM     14  C   UNL     1       2.108   8.101  18.759  0.00  0.00    +0.000 A 
ATOM     15  O   UNL     1       2.527   8.634  17.733  0.00  0.00    +0.000 OA
ATOM     16  C   UNL     1       1.409   8.893  19.781  0.00  0.00    +0.000 A 
ENDROOT
BRANCH  12  17
ATOM     17  C   UNL     1       1.838   4.760  20.499  0.00  0.00    +0.000 A 
ATOM     18  C   UNL     1       2.650   4.166  21.458  0.00  0.00    +0.000 A 
ATOM     19  C   UNL     1       2.338   2.791  21.672  0.00  0.00    +0.000 A 
ATOM     20  C   UNL     1       1.367   2.351  20.804  0.00  0.00    +0.000 A 
ATOM     21  S   UNL     1       1.006   3.537  19.630  0.00  0.00    +0.000 S 
ENDBRANCH  12  17
BRANCH  13  22
ATOM     22  C   UNL     1       2.931   5.981  17.928  0.00  0.00    +0.000 C 
BRANCH  22  23
ATOM     23  C   UNL     1       4.121   5.120  18.388  0.00  0.00    +0.000 C 
BRANCH  23  24
ATOM     24  C   UNL     1       5.469   5.812  18.304  0.00  0.00    +0.000 A 
ATOM     25  C   UNL     1       6.498   5.409  19.170  0.00  0.00    +0.000 A 
ATOM     26  C   UNL     1       7.754   6.021  19.127  0.00  0.00    +0.000 A 
ATOM     27  C   UNL     1       8.005   7.037  18.209  0.00  0.00    +0.000 A 
ATOM     28  C   UNL     1       7.006   7.427  17.322  0.00  0.00    +0.000 A 
ATOM     29  C   UNL     1       5.750   6.813  17.361  0.00  0.00    +0.000 A 
ENDBRANCH  23  24
ENDBRANCH  22  23
ENDBRANCH  13  22
TORSDOF 4
ENDMDL
MODEL 3
REMARK VINA RESULT:      -8.5      1.203      1.570
REMARK  Name = 
REMARK  4 active torsions:
REMARK  status: ('A' for Active; 'I' for Inactive)
REMARK    1  A    between atoms: C_12  and  C_13
REMARK    2  A    between atoms: N_18  and  C_19
REMARK    3  A    between atoms: C_19  and  C_20
REMARK    4  A    between atoms: C_20  and  C_21
REMARK                            x       y       z     vdW  Elec       q    Type
REMARK                         _______ _______ _______ _____ _____    ______ ____
ROOT
ATOM      1  O   UNL     1       0.977  11.145  18.834  0.00  0.00    +0.000 OA
ATOM      2  C   UNL     1       0.867  10.257  19.671  0.00  0.00    +0.000 A 
ATOM      3  C   UNL     1       0.148  10.536  20.916  0.00  0.00    +0.000 A 
ATOM      4  C   UNL     1      -0.428  11.793  21.139  0.00  0.00    +0.000 A 
ATOM      5  C   UNL     1      -1.112  12.038  22.327  0.00  0.00    +0.000 A 
ATOM      6  C   UNL     1      -1.225  11.028  23.284  0.00  0.00    +0.000 A 
ATOM      7  C   UNL     1      -0.647   9.773  23.054  0.00  0.00    +0.000 A 
ATOM      8  C   UNL     1       0.044   9.529  21.867  0.00  0.00    +0.000 A 
ATOM      9  O   UNL     1       0.602   8.289  21.694  0.00  0.00    +0.000 OA
ATOM     10  C   UNL     1       1.285   8.001  20.513  0.00  0.00    +0.000 A 
ATOM     11  N   UNL     1       1.784   6.727  20.445  0.00  0.00    +0.000 NA
ATOM     12  C   UNL     1       2.432   6.326  19.391  0.00  0.00    +0.000 A 
ATOM     13  N   UNL     1       2.618   7.153  18.284  0.00  0.00    +0.000 N 
ATOM     14  C   UNL     1       2.136   8.461  18.309  0.00  0.00    +0.000 A 
ATOM     15  O   UNL     1       2.281   9.233  17.364  0.00  0.00    +0.000 OA
ATOM     16  C   UNL     1       1.424   8.890  19.522  0.00  0.00    +0.000 A 
ENDROOT
BRANCH  12  17
ATOM     17  C   UNL     1       2.858   4.926  19.425  0.00  0.00    +0.000 A 
ATOM     18  C   UNL     1       4.138   4.465  19.711  0.00  0.00    +0.000 A 
ATOM     19  C   UNL     1       4.192   3.050  19.876  0.00  0.00    +0.000 A 
ATOM     20  C   UNL     1       2.977   2.462  19.615  0.00  0.00    +0.000 A 
ATOM     21  S   UNL     1       1.866   3.597  18.986  0.00  0.00    +0.000 S 
ENDBRANCH  12  17
BRANCH  13  22
ATOM     22  C   UNL     1       3.289   6.761  17.028  0.00  0.00    +0.000 C 
BRANCH  22  23
ATOM     23  C   UNL     1       4.711   7.325  16.851  0.00  0.00    +0.000 C 
BRANCH  23  24
ATOM     24  C   UNL     1       5.822   6.333  17.137  0.00  0.00    +0.000 A 
ATOM     25  C   UNL     1       6.069   5.301  16.218  0.00  0.00    +0.000 A 
ATOM     26  C   UNL     1       7.082   4.365  16.444  0.00  0.00    +0.000 A 
ATOM     27  C   UNL     1       7.872   4.453  17.586  0.00  0.00    +0.000 A 
ATOM     28  C   UNL     1       7.662   5.488  18.492  0.00  0.00    +0.000 A 
ATOM     29  C   UNL     1       6.652   6.428  18.266  0.00  0.00    +0.000 A 
ENDBRANCH  23  24
ENDBRANCH  22  23
ENDBRANCH  13  22
TORSDOF 4
ENDMDL
MODEL 4
REMARK VINA RESULT:      -8.5      0.880      1.264
REMARK  Name = 
REMARK  4 active torsions:
REMARK  status: ('A' for Active; 'I' for Inactive)
REMARK    1  A    between atoms: C_12  and  C_13
REMARK    2  A    between atoms: N_18  and  C_19
REMARK    3  A    between atoms: C_19  and  C_20
REMARK    4  A    between atoms: C_20  and  C_21
REMARK                            x       y       z     vdW  Elec       q    Type
REMARK                         _______ _______ _______ _____ _____    ______ ____
ROOT
ATOM      1  O   UNL     1       1.015  11.466  18.767  0.00  0.00    +0.000 OA
ATOM      2  C   UNL     1       0.783  10.702  19.695  0.00  0.00    +0.000 A 
ATOM      3  C   UNL     1       0.053  11.199  20.863  0.00  0.00    +0.000 A 
ATOM      4  C   UNL     1      -0.397  12.524  20.909  0.00  0.00    +0.000 A 
ATOM      5  C   UNL     1      -1.095  12.979  22.027  0.00  0.00    +0.000 A 
ATOM      6  C   UNL     1      -1.346  12.108  23.088  0.00  0.00    +0.000 A 
ATOM      7  C   UNL     1      -0.893  10.784  23.035  0.00  0.00    +0.000 A 
ATOM      8  C   UNL     1      -0.189  10.331  21.919  0.00  0.00    +0.000 A 
ATOM      9  O   UNL     1       0.244   9.030  21.919  0.00  0.00    +0.000 OA
ATOM     10  C   UNL     1       0.935   8.535  20.814  0.00  0.00    +0.000 A 
ATOM     11  N   UNL     1       1.301   7.219  20.920  0.00  0.00    +0.000 NA
ATOM     12  C   UNL     1       1.942   6.632  19.953  0.00  0.00    +0.000 A 
ATOM     13  N   UNL     1       2.252   7.295  18.767  0.00  0.00    +0.000 N 
ATOM     14  C   UNL     1       1.908   8.638  18.616  0.00  0.00    +0.000 A 
ATOM     15  O   UNL     1       2.166   9.271  17.594  0.00  0.00    +0.000 OA
ATOM     16  C   UNL     1       1.201   9.279  19.734  0.00  0.00    +0.000 A 
ENDROOT
BRANCH  12  17
ATOM     17  C   UNL     1       2.220   5.210  20.171  0.00  0.00    +0.000 A 
ATOM     18  C   UNL     1       1.338   4.275  20.700  0.00  0.00    +0.000 A 
ATOM     19  C   UNL     1       1.821   2.937  20.592  0.00  0.00    +0.000 A 
ATOM     20  C   UNL     1       3.095   2.899  20.075  0.00  0.00    +0.000 A 
ATOM     21  S   UNL     1       3.748   4.470  19.926  0.00  0.00    +0.000 S 
ENDBRANCH  12  17
BRANCH  13  22
ATOM     22  C   UNL     1       2.924   6.690  17.599  0.00  0.00    +0.000 C 
BRANCH  22  23
ATOM     23  C   UNL     1       4.294   7.301  17.253  0.00  0.00    +0.000 C 
BRANCH  23  24
ATOM     24  C   UNL     1       5.372   6.284  16.924  0.00  0.00    +0.000 A 
ATOM     25  C   UNL     1       5.366   5.667  15.663  0.00  0.00    +0.000 A 
ATOM     26  C   UNL     1       6.339   4.724  15.321  0.00  0.00    +0.000 A 
ATOM     27  C   UNL     1       7.341   4.392  16.229  0.00  0.00    +0.000 A 
ATOM     28  C   UNL     1       7.380   5.018  17.471  0.00  0.00    +0.000 A 
ATOM     29  C   UNL     1       6.410   5.964  17.814  0.00  0.00    +0.000 A 
ENDBRANCH  23  24
ENDBRANCH  22  23
ENDBRANCH  13  22
TORSDOF 4
ENDMDL
MODEL 5
REMARK VINA RESULT:      -8.4      1.734      2.102
REMARK  Name = 
REMARK  4 active torsions:
REMARK  status: ('A' for Active; 'I' for Inactive)
REMARK    1  A    between atoms: C_12  and  C_13
REMARK    2  A    between atoms: N_18  and  C_19
REMARK    3  A    between atoms: C_19  and  C_20
REMARK    4  A    between atoms: C_20  and  C_21
REMARK                            x       y       z     vdW  Elec       q    Type
REMARK                         _______ _______ _______ _____ _____    ______ ____
ROOT
ATOM      1  O   UNL     1       1.649  10.514  18.640  0.00  0.00    +0.000 OA
ATOM      2  C   UNL     1       1.445   9.611  19.443  0.00  0.00    +0.000 A 
ATOM      3  C   UNL     1       0.690   9.899  20.664  0.00  0.00    +0.000 A 
ATOM      4  C   UNL     1       0.185  11.184  20.902  0.00  0.00    +0.000 A 
ATOM      5  C   UNL     1      -0.536  11.438  22.066  0.00  0.00    +0.000 A 
ATOM      6  C   UNL     1      -0.754  10.410  22.985  0.00  0.00    +0.000 A 
ATOM      7  C   UNL     1      -0.246   9.128  22.741  0.00  0.00    +0.000 A 
ATOM      8  C   UNL     1       0.481   8.875  21.577  0.00  0.00    +0.000 A 
ATOM      9  O   UNL     1       0.967   7.607  21.389  0.00  0.00    +0.000 OA
ATOM     10  C   UNL     1       1.683   7.310  20.230  0.00  0.00    +0.000 A 
ATOM     11  N   UNL     1       2.103   6.009  20.144  0.00  0.00    +0.000 NA
ATOM     12  C   UNL     1       2.772   5.598  19.107  0.00  0.00    +0.000 A 
ATOM     13  N   UNL     1       3.059   6.442  18.036  0.00  0.00    +0.000 N 
ATOM     14  C   UNL     1       2.659   7.777  18.082  0.00  0.00    +0.000 A 
ATOM     15  O   UNL     1       2.895   8.565  17.168  0.00  0.00    +0.000 OA
ATOM     16  C   UNL     1       1.922   8.216  19.275  0.00  0.00    +0.000 A 
ENDROOT
BRANCH  12  17
ATOM     17  C   UNL     1       3.108   4.172  19.115  0.00  0.00    +0.000 A 
ATOM     18  C   UNL     1       4.174   3.585  19.785  0.00  0.00    +0.000 A 
ATOM     19  C   UNL     1       4.115   2.160  19.778  0.00  0.00    +0.000 A 
ATOM     20  C   UNL     1       3.063   1.701  19.020  0.00  0.00    +0.000 A 
ATOM     21  S   UNL     1       2.304   2.979  18.180  0.00  0.00    +0.000 S 
ENDBRANCH  12  17
BRANCH  13  22
ATOM     22  C   UNL     1       3.761   6.045  16.798  0.00  0.00    +0.000 C 
BRANCH  22  23
ATOM     23  C   UNL     1       5.064   5.256  17.018  0.00  0.00    +0.000 C 
BRANCH  23  24
ATOM     24  C   UNL     1       6.215   6.081  17.563  0.00  0.00    +0.000 A 
ATOM     25  C   UNL     1       7.027   5.538  18.571  0.00  0.00    +0.000 A 
ATOM     26  C   UNL     1       8.097   6.265  19.101  0.00  0.00    +0.000 A 
ATOM     27  C   UNL     1       8.379   7.541  18.624  0.00  0.00    +0.000 A 
ATOM     28  C   UNL     1       7.604   8.082  17.602  0.00  0.00    +0.000 A 
ATOM     29  C   UNL     1       6.536   7.355  17.068  0.00  0.00    +0.000 A 
ENDBRANCH  23  24
ENDBRANCH  22  23
ENDBRANCH  13  22
TORSDOF 4
ENDMDL
MODEL 6
REMARK VINA RESULT:      -8.4      1.773      2.351
REMARK  Name = 
REMARK  4 active torsions:
REMARK  status: ('A' for Active; 'I' for Inactive)
REMARK    1  A    between atoms: C_12  and  C_13
REMARK    2  A    between atoms: N_18  and  C_19
REMARK    3  A    between atoms: C_19  and  C_20
REMARK    4  A    between atoms: C_20  and  C_21
REMARK                            x       y       z     vdW  Elec       q    Type
REMARK                         _______ _______ _______ _____ _____    ______ ____
ROOT
ATOM      1  O   UNL     1       1.744  10.409  18.634  0.00  0.00    +0.000 OA
ATOM      2  C   UNL     1       1.488   9.524  19.441  0.00  0.00    +0.000 A 
ATOM      3  C   UNL     1       0.725   9.857  20.647  0.00  0.00    +0.000 A 
ATOM      4  C   UNL     1       0.272  11.164  20.864  0.00  0.00    +0.000 A 
ATOM      5  C   UNL     1      -0.457  11.460  22.013  0.00  0.00    +0.000 A 
ATOM      6  C   UNL     1      -0.735  10.452  22.937  0.00  0.00    +0.000 A 
ATOM      7  C   UNL     1      -0.279   9.147  22.714  0.00  0.00    +0.000 A 
ATOM      8  C   UNL     1       0.456   8.851  21.565  0.00  0.00    +0.000 A 
ATOM      9  O   UNL     1       0.891   7.561  21.397  0.00  0.00    +0.000 OA
ATOM     10  C   UNL     1       1.613   7.222  20.254  0.00  0.00    +0.000 A 
ATOM     11  N   UNL     1       1.978   5.904  20.187  0.00  0.00    +0.000 NA
ATOM     12  C   UNL     1       2.646   5.455  19.165  0.00  0.00    +0.000 A 
ATOM     13  N   UNL     1       2.988   6.275  18.092  0.00  0.00    +0.000 N 
ATOM     14  C   UNL     1       2.645   7.626  18.118  0.00  0.00    +0.000 A 
ATOM     15  O   UNL     1       2.930   8.395  17.201  0.00  0.00    +0.000 OA
ATOM     16  C   UNL     1       1.907   8.109  19.294  0.00  0.00    +0.000 A 
ENDROOT
BRANCH  12  17
ATOM     17  C   UNL     1       2.920   4.016  19.192  0.00  0.00    +0.000 A 
ATOM     18  C   UNL     1       2.198   3.031  18.529  0.00  0.00    +0.000 A 
ATOM     19  C   UNL     1       2.831   1.755  18.576  0.00  0.00    +0.000 A 
ATOM     20  C   UNL     1       3.964   1.780  19.354  0.00  0.00    +0.000 A 
ATOM     21  S   UNL     1       4.122   3.274  20.166  0.00  0.00    +0.000 S 
ENDBRANCH  12  17
BRANCH  13  22
ATOM     22  C   UNL     1       3.692   5.836  16.870  0.00  0.00    +0.000 C 
BRANCH  22  23
ATOM     23  C   UNL     1       4.978   5.027  17.120  0.00  0.00    +0.000 C 
BRANCH  23  24
ATOM     24  C   UNL     1       6.146   5.845  17.638  0.00  0.00    +0.000 A 
ATOM     25  C   UNL     1       6.397   7.107  17.077  0.00  0.00    +0.000 A 
ATOM     26  C   UNL     1       7.463   7.893  17.525  0.00  0.00    +0.000 A 
ATOM     27  C   UNL     1       8.287   7.434  18.549  0.00  0.00    +0.000 A 
ATOM     28  C   UNL     1       8.033   6.199  19.138  0.00  0.00    +0.000 A 
ATOM     29  C   UNL     1       6.964   5.414  18.694  0.00  0.00    +0.000 A 
ENDBRANCH  23  24
ENDBRANCH  22  23
ENDBRANCH  13  22
TORSDOF 4
ENDMDL
MODEL 7
REMARK VINA RESULT:      -8.3      1.378      1.942
REMARK  Name = 
REMARK  4 active torsions:
REMARK  status: ('A' for Active; 'I' for Inactive)
REMARK    1  A    between atoms: C_12  and  C_13
REMARK    2  A    between atoms: N_18  and  C_19
REMARK    3  A    between atoms: C_19  and  C_20
REMARK    4  A    between atoms: C_20  and  C_21
REMARK                            x       y       z     vdW  Elec       q    Type
REMARK                         _______ _______ _______ _____ _____    ______ ____
ROOT
ATOM      1  O   UNL     1       2.265  10.671  17.535  0.00  0.00    +0.000 OA
ATOM      2  C   UNL     1       1.793  10.208  18.567  0.00  0.00    +0.000 A 
ATOM      3  C   UNL     1       1.102  11.102  19.499  0.00  0.00    +0.000 A 
ATOM      4  C   UNL     1       0.959  12.463  19.205  0.00  0.00    +0.000 A 
ATOM      5  C   UNL     1       0.294  13.298  20.101  0.00  0.00    +0.000 A 
ATOM      6  C   UNL     1      -0.230  12.769  21.282  0.00  0.00    +0.000 A 
ATOM      7  C   UNL     1      -0.083  11.406  21.570  0.00  0.00    +0.000 A 
ATOM      8  C   UNL     1       0.589  10.572  20.675  0.00  0.00    +0.000 A 
ATOM      9  O   UNL     1       0.717   9.248  21.007  0.00  0.00    +0.000 OA
ATOM     10  C   UNL     1       1.365   8.379  20.131  0.00  0.00    +0.000 A 
ATOM     11  N   UNL     1       1.417   7.079  20.560  0.00  0.00    +0.000 NA
ATOM     12  C   UNL     1       1.985   6.165  19.829  0.00  0.00    +0.000 A 
ATOM     13  N   UNL     1       2.530   6.455  18.580  0.00  0.00    +0.000 N 
ATOM     14  C   UNL     1       2.509   7.766  18.104  0.00  0.00    +0.000 A 
ATOM     15  O   UNL     1       2.983   8.077  17.013  0.00  0.00    +0.000 OA
ATOM     16  C   UNL     1       1.877   8.780  18.960  0.00  0.00    +0.000 A 
ENDROOT
BRANCH  12  17
ATOM     17  C   UNL     1       1.918   4.808  20.378  0.00  0.00    +0.000 A 
ATOM     18  C   UNL     1       2.667   4.316  21.440  0.00  0.00    +0.000 A 
ATOM     19  C   UNL     1       2.228   3.032  21.878  0.00  0.00    +0.000 A 
ATOM     20  C   UNL     1       1.225   2.539  21.077  0.00  0.00    +0.000 A 
ATOM     21  S   UNL     1       0.980   3.535  19.711  0.00  0.00    +0.000 S 
ENDBRANCH  12  17
BRANCH  13  22
ATOM     22  C   UNL     1       3.140   5.471  17.663  0.00  0.00    +0.000 C 
BRANCH  22  23
ATOM     23  C   UNL     1       4.353   4.716  18.238  0.00  0.00    +0.000 C 
BRANCH  23  24
ATOM     24  C   UNL     1       5.640   5.518  18.262  0.00  0.00    +0.000 A 
ATOM     25  C   UNL     1       5.841   6.515  17.294  0.00  0.00    +0.000 A 
ATOM     26  C   UNL     1       7.013   7.275  17.279  0.00  0.00    +0.000 A 
ATOM     27  C   UNL     1       7.998   7.061  18.239  0.00  0.00    +0.000 A 
ATOM     28  C   UNL     1       7.801   6.099  19.225  0.00  0.00    +0.000 A 
ATOM     29  C   UNL     1       6.627   5.339  19.244  0.00  0.00    +0.000 A 
ENDBRANCH  23  24
ENDBRANCH  22  23
ENDBRANCH  13  22
TORSDOF 4
ENDMDL
MODEL 8
REMARK VINA RESULT:      -8.2      2.566      8.761
REMARK  Name = 
REMARK  4 active torsions:
REMARK  status: ('A' for Active; 'I' for Inactive)
REMARK    1  A    between atoms: C_12  and  C_13
REMARK    2  A    between atoms: N_18  and  C_19
REMARK    3  A    between atoms: C_19  and  C_20
REMARK    4  A    between atoms: C_20  and  C_21
REMARK                            x       y       z     vdW  Elec       q    Type
REMARK                         _______ _______ _______ _____ _____    ______ ____
ROOT
ATOM      1  O   UNL     1       3.340   5.136  20.096  0.00  0.00    +0.000 OA
ATOM      2  C   UNL     1       3.381   5.948  19.178  0.00  0.00    +0.000 A 
ATOM      3  C   UNL     1       4.268   5.693  18.040  0.00  0.00    +0.000 A 
ATOM      4  C   UNL     1       5.039   4.526  17.987  0.00  0.00    +0.000 A 
ATOM      5  C   UNL     1       5.872   4.298  16.894  0.00  0.00    +0.000 A 
ATOM      6  C   UNL     1       5.927   5.231  15.857  0.00  0.00    +0.000 A 
ATOM      7  C   UNL     1       5.152   6.396  15.918  0.00  0.00    +0.000 A 
ATOM      8  C   UNL     1       4.323   6.627  17.015  0.00  0.00    +0.000 A 
ATOM      9  O   UNL     1       3.593   7.788  17.033  0.00  0.00    +0.000 OA
ATOM     10  C   UNL     1       2.739   8.046  18.104  0.00  0.00    +0.000 A 
ATOM     11  N   UNL     1       2.049   9.226  18.005  0.00  0.00    +0.000 NA
ATOM     12  C   UNL     1       1.209   9.581  18.933  0.00  0.00    +0.000 A 
ATOM     13  N   UNL     1       0.953   8.773  20.039  0.00  0.00    +0.000 N 
ATOM     14  C   UNL     1       1.636   7.567  20.188  0.00  0.00    +0.000 A 
ATOM     15  O   UNL     1       1.453   6.823  21.150  0.00  0.00    +0.000 OA
ATOM     16  C   UNL     1       2.592   7.203  19.133  0.00  0.00    +0.000 A 
ENDROOT
BRANCH  12  17
ATOM     17  C   UNL     1       0.497  10.834  18.673  0.00  0.00    +0.000 A 
ATOM     18  C   UNL     1      -0.846  10.959  18.339  0.00  0.00    +0.000 A 
ATOM     19  C   UNL     1      -1.297  12.312  18.357  0.00  0.00    +0.000 A 
ATOM     20  C   UNL     1      -0.265  13.186  18.606  0.00  0.00    +0.000 A 
ATOM     21  S   UNL     1       1.240  12.379  18.609  0.00  0.00    +0.000 S 
ENDBRANCH  12  17
BRANCH  13  22
ATOM     22  C   UNL     1      -0.024   9.071  21.107  0.00  0.00    +0.000 C 
BRANCH  22  23
ATOM     23  C   UNL     1       0.460  10.082  22.162  0.00  0.00    +0.000 C 
BRANCH  23  24
ATOM     24  C   UNL     1      -0.492  11.237  22.411  0.00  0.00    +0.000 A 
ATOM     25  C   UNL     1      -1.662  11.009  23.153  0.00  0.00    +0.000 A 
ATOM     26  C   UNL     1      -2.567  12.045  23.403  0.00  0.00    +0.000 A 
ATOM     27  C   UNL     1      -2.310  13.327  22.927  0.00  0.00    +0.000 A 
ATOM     28  C   UNL     1      -1.139  13.578  22.218  0.00  0.00    +0.000 A 
ATOM     29  C   UNL     1      -0.231  12.544  21.969  0.00  0.00    +0.000 A 
ENDBRANCH  23  24
ENDBRANCH  22  23
ENDBRANCH  13  22
TORSDOF 4
ENDMDL
MODEL 9
REMARK VINA RESULT:      -8.0      2.473      8.816
REMARK  Name = 
REMARK  4 active torsions:
REMARK  status: ('A' for Active; 'I' for Inactive)
REMARK    1  A    between atoms: C_12  and  C_13
REMARK    2  A    between atoms: N_18  and  C_19
REMARK    3  A    between atoms: C_19  and  C_20
REMARK    4  A    between atoms: C_20  and  C_21
REMARK                            x       y       z     vdW  Elec       q    Type
REMARK                         _______ _______ _______ _____ _____    ______ ____
ROOT
ATOM      1  O   UNL     1       3.012   5.148  20.100  0.00  0.00    +0.000 OA
ATOM      2  C   UNL     1       3.136   5.988  19.217  0.00  0.00    +0.000 A 
ATOM      3  C   UNL     1       4.033   5.712  18.091  0.00  0.00    +0.000 A 
ATOM      4  C   UNL     1       4.720   4.495  18.011  0.00  0.00    +0.000 A 
ATOM      5  C   UNL     1       5.564   4.248  16.930  0.00  0.00    +0.000 A 
ATOM      6  C   UNL     1       5.714   5.213  15.933  0.00  0.00    +0.000 A 
ATOM      7  C   UNL     1       5.023   6.429  16.020  0.00  0.00    +0.000 A 
ATOM      8  C   UNL     1       4.183   6.678  17.105  0.00  0.00    +0.000 A 
ATOM      9  O   UNL     1       3.538   7.887  17.152  0.00  0.00    +0.000 OA
ATOM     10  C   UNL     1       2.676   8.167  18.211  0.00  0.00    +0.000 A 
ATOM     11  N   UNL     1       2.076   9.396  18.141  0.00  0.00    +0.000 NA
ATOM     12  C   UNL     1       1.239   9.776  19.062  0.00  0.00    +0.000 A 
ATOM     13  N   UNL     1       0.895   8.949  20.129  0.00  0.00    +0.000 N 
ATOM     14  C   UNL     1       1.485   7.691  20.247  0.00  0.00    +0.000 A 
ATOM     15  O   UNL     1       1.223   6.926  21.173  0.00  0.00    +0.000 OA
ATOM     16  C   UNL     1       2.441   7.298  19.202  0.00  0.00    +0.000 A 
ENDROOT
BRANCH  12  17
ATOM     17  C   UNL     1       0.626  11.087  18.834  0.00  0.00    +0.000 A 
ATOM     18  C   UNL     1       1.262  12.318  18.938  0.00  0.00    +0.000 A 
ATOM     19  C   UNL     1       0.463  13.395  18.451  0.00  0.00    +0.000 A 
ATOM     20  C   UNL     1      -0.791  12.970  18.083  0.00  0.00    +0.000 A 
ATOM     21  S   UNL     1      -1.042  11.338  18.520  0.00  0.00    +0.000 S 
ENDBRANCH  12  17
BRANCH  13  22
ATOM     22  C   UNL     1      -0.087   9.277  21.183  0.00  0.00    +0.000 C 
BRANCH  22  23
ATOM     23  C   UNL     1       0.388  10.325  22.205  0.00  0.00    +0.000 C 
BRANCH  23  24
ATOM     24  C   UNL     1      -0.627  11.412  22.509  0.00  0.00    +0.000 A 
ATOM     25  C   UNL     1      -0.371  12.724  22.080  0.00  0.00    +0.000 A 
ATOM     26  C   UNL     1      -1.278  13.754  22.341  0.00  0.00    +0.000 A 
ATOM     27  C   UNL     1      -2.462  13.487  23.024  0.00  0.00    +0.000 A 
ATOM     28  C   UNL     1      -2.746  12.186  23.428  0.00  0.00    +0.000 A 
ATOM     29  C   UNL     1      -1.841  11.153  23.165  0.00  0.00    +0.000 A 
ENDBRANCH  23  24
ENDBRANCH  22  23
ENDBRANCH  13  22
TORSDOF 4
ENDMDL
