MODEL 1
REMARK VINA RESULT:      -7.5      0.000      0.000
REMARK  Name = 
REMARK  6 active torsions:
REMARK  status: ('A' for Active; 'I' for Inactive)
REMARK    1  A    between atoms: C_1  and  C_2
REMARK    2  A    between atoms: C_5  and  C_6
REMARK    3  A    between atoms: N_7  and  N_8
REMARK    4  A    between atoms: C_9  and  C_11
REMARK    5  A    between atoms: C_11  and  N_12
REMARK    6  A    between atoms: C_15  and  C_16
REMARK                            x       y       z     vdW  Elec       q    Type
REMARK                         _______ _______ _______ _____ _____    ______ ____
ROOT
ATOM      1  N   UNL     1       7.236   6.322  17.740  0.00  0.00    +0.000 N 
ATOM      2  C   UNL     1       6.818   5.426  18.722  0.00  0.00    +0.000 C 
ATOM      3  O   UNL     1       7.106   5.545  19.915  0.00  0.00    +0.000 OA
ATOM      4  H   UNL     1       6.993   6.228  16.759  0.00  0.00    +0.000 HD
ENDROOT
BRANCH   1   6
ATOM      5  C   UNL     1       7.698   8.581  17.736  0.00  0.00    +0.000 C 
ATOM      6  N   UNL     1       7.967   7.392  18.165  0.00  0.00    +0.000 NA
BRANCH   5  11
ATOM      7  C   UNL     1       9.561  13.058  17.779  0.00  0.00    +0.000 C 
ATOM      8  C   UNL     1       9.360  11.691  18.296  0.00  0.00    +0.000 A 
ATOM      9  C   UNL     1       9.842  11.035  19.408  0.00  0.00    +0.000 A 
ATOM     10  C   UNL     1       9.291   9.738  19.373  0.00  0.00    +0.000 A 
ATOM     11  C   UNL     1       8.498   9.667  18.243  0.00  0.00    +0.000 A 
ATOM     12  O   UNL     1       8.539  10.862  17.577  0.00  0.00    +0.000 OA
ENDBRANCH   5  11
ENDBRANCH   1   6
BRANCH   2  13
ATOM     13  C   UNL     1       6.002   4.255  18.229  0.00  0.00    +0.000 C 
BRANCH  13  14
ATOM     14  N   UNL     1       4.586   4.416  18.511  0.00  0.00    +0.000 N 
ATOM     15  C   UNL     1       3.707   5.246  17.882  0.00  0.00    +0.000 A 
ATOM     16  C   UNL     1       2.505   5.104  18.529  0.00  0.00    +0.000 A 
ATOM     17  C   UNL     1       2.751   4.184  19.583  0.00  0.00    +0.000 A 
ATOM     18  N   UNL     1       4.040   3.776  19.570  0.00  0.00    +0.000 NA
BRANCH  17  19
ATOM     19  C   UNL     1       1.742   3.708  20.595  0.00  0.00    +0.000 C 
ATOM     20  F   UNL     1       2.164   3.928  21.873  0.00  0.00    +0.000 F 
ATOM     21  F   UNL     1       0.545   4.342  20.477  0.00  0.00    +0.000 F 
ATOM     22  F   UNL     1       1.497   2.374  20.501  0.00  0.00    +0.000 F 
ENDBRANCH  17  19
ENDBRANCH  13  14
ENDBRANCH   2  13
TORSDOF 5
ENDMDL
MODEL 2
REMARK VINA RESULT:      -7.2      5.485      8.519
REMARK  Name = 
REMARK  6 active torsions:
REMARK  status: ('A' for Active; 'I' for Inactive)
REMARK    1  A    between atoms: C_1  and  C_2
REMARK    2  A    between atoms: C_5  and  C_6
REMARK    3  A    between atoms: N_7  and  N_8
REMARK    4  A    between atoms: C_9  and  C_11
REMARK    5  A    between atoms: C_11  and  N_12
REMARK    6  A    between atoms: C_15  and  C_16
REMARK                            x       y       z     vdW  Elec       q    Type
REMARK                         _______ _______ _______ _____ _____    ______ ____
ROOT
ATOM      1  N   UNL     1       5.829   3.857  17.026  0.00  0.00    +0.000 N 
ATOM      2  C   UNL     1       6.035   5.019  16.284  0.00  0.00    +0.000 C 
ATOM      3  O   UNL     1       5.255   5.974  16.290  0.00  0.00    +0.000 OA
ATOM      4  H   UNL     1       6.475   3.075  17.027  0.00  0.00    +0.000 HD
ENDROOT
BRANCH   1   6
ATOM      5  C   UNL     1       3.858   2.870  17.701  0.00  0.00    +0.000 C 
ATOM      6  N   UNL     1       4.718   3.828  17.815  0.00  0.00    +0.000 NA
BRANCH   5  11
ATOM      7  C   UNL     1       1.531   2.455  21.935  0.00  0.00    +0.000 C 
ATOM      8  C   UNL     1       1.631   2.716  20.487  0.00  0.00    +0.000 A 
ATOM      9  C   UNL     1       0.696   3.073  19.539  0.00  0.00    +0.000 A 
ATOM     10  C   UNL     1       1.393   3.185  18.318  0.00  0.00    +0.000 A 
ATOM     11  C   UNL     1       2.718   2.892  18.582  0.00  0.00    +0.000 A 
ATOM     12  O   UNL     1       2.868   2.601  19.911  0.00  0.00    +0.000 OA
ENDBRANCH   5  11
ENDBRANCH   1   6
BRANCH   2  13
ATOM     13  C   UNL     1       7.276   5.031  15.425  0.00  0.00    +0.000 C 
BRANCH  13  14
ATOM     14  N   UNL     1       7.000   4.632  14.055  0.00  0.00    +0.000 N 
ATOM     15  C   UNL     1       7.731   4.931  12.944  0.00  0.00    +0.000 A 
ATOM     16  C   UNL     1       7.053   4.398  11.876  0.00  0.00    +0.000 A 
ATOM     17  C   UNL     1       5.879   3.818  12.427  0.00  0.00    +0.000 A 
ATOM     18  N   UNL     1       5.851   3.978  13.769  0.00  0.00    +0.000 NA
BRANCH  17  19
ATOM     19  C   UNL     1       4.794   3.115  11.655  0.00  0.00    +0.000 C 
ATOM     20  F   UNL     1       5.191   1.881  11.230  0.00  0.00    +0.000 F 
ATOM     21  F   UNL     1       3.670   2.918  12.395  0.00  0.00    +0.000 F 
ATOM     22  F   UNL     1       4.421   3.797  10.539  0.00  0.00    +0.000 F 
ENDBRANCH  17  19
ENDBRANCH  13  14
ENDBRANCH   2  13
TORSDOF 5
ENDMDL
MODEL 3
REMARK VINA RESULT:      -7.2      1.873      2.656
REMARK  Name = 
REMARK  6 active torsions:
REMARK  status: ('A' for Active; 'I' for Inactive)
REMARK    1  A    between atoms: C_1  and  C_2
REMARK    2  A    between atoms: C_5  and  C_6
REMARK    3  A    between atoms: N_7  and  N_8
REMARK    4  A    between atoms: C_9  and  C_11
REMARK    5  A    between atoms: C_11  and  N_12
REMARK    6  A    between atoms: C_15  and  C_16
REMARK                            x       y       z     vdW  Elec       q    Type
REMARK                         _______ _______ _______ _____ _____    ______ ____
ROOT
ATOM      1  N   UNL     1       8.431   7.943  18.732  0.00  0.00    +0.000 N 
ATOM      2  C   UNL     1       7.673   7.154  17.868  0.00  0.00    +0.000 C 
ATOM      3  O   UNL     1       7.232   7.560  16.791  0.00  0.00    +0.000 OA
ATOM      4  H   UNL     1       8.800   7.607  19.615  0.00  0.00    +0.000 HD
ENDROOT
BRANCH   1   6
ATOM      5  C   UNL     1       9.205  10.078  19.131  0.00  0.00    +0.000 C 
ATOM      6  N   UNL     1       8.707   9.211  18.312  0.00  0.00    +0.000 NA
BRANCH   5  11
ATOM      7  C   UNL     1      11.601  13.367  16.495  0.00  0.00    +0.000 C 
ATOM      8  C   UNL     1      10.554  12.910  17.427  0.00  0.00    +0.000 A 
ATOM      9  C   UNL     1       9.529  13.569  18.072  0.00  0.00    +0.000 A 
ATOM     10  C   UNL     1       8.849  12.596  18.833  0.00  0.00    +0.000 A 
ATOM     11  C   UNL     1       9.491  11.392  18.614  0.00  0.00    +0.000 A 
ATOM     12  O   UNL     1      10.540  11.580  17.754  0.00  0.00    +0.000 OA
ENDBRANCH   5  11
ENDBRANCH   1   6
BRANCH   2  13
ATOM     13  C   UNL     1       7.388   5.752  18.350  0.00  0.00    +0.000 C 
BRANCH  13  14
ATOM     14  N   UNL     1       6.089   5.273  17.908  0.00  0.00    +0.000 N 
ATOM     15  C   UNL     1       5.830   4.429  16.869  0.00  0.00    +0.000 A 
ATOM     16  C   UNL     1       4.464   4.316  16.791  0.00  0.00    +0.000 A 
ATOM     17  C   UNL     1       3.956   5.168  17.808  0.00  0.00    +0.000 A 
ATOM     18  N   UNL     1       4.967   5.763  18.481  0.00  0.00    +0.000 NA
BRANCH  17  19
ATOM     19  C   UNL     1       2.502   5.404  18.119  0.00  0.00    +0.000 C 
ATOM     20  F   UNL     1       2.214   5.143  19.426  0.00  0.00    +0.000 F 
ATOM     21  F   UNL     1       2.122   6.691  17.897  0.00  0.00    +0.000 F 
ATOM     22  F   UNL     1       1.675   4.613  17.385  0.00  0.00    +0.000 F 
ENDBRANCH  17  19
ENDBRANCH  13  14
ENDBRANCH   2  13
TORSDOF 5
ENDMDL
MODEL 4
REMARK VINA RESULT:      -7.2      1.963      2.623
REMARK  Name = 
REMARK  6 active torsions:
REMARK  status: ('A' for Active; 'I' for Inactive)
REMARK    1  A    between atoms: C_1  and  C_2
REMARK    2  A    between atoms: C_5  and  C_6
REMARK    3  A    between atoms: N_7  and  N_8
REMARK    4  A    between atoms: C_9  and  C_11
REMARK    5  A    between atoms: C_11  and  N_12
REMARK    6  A    between atoms: C_15  and  C_16
REMARK                            x       y       z     vdW  Elec       q    Type
REMARK                         _______ _______ _______ _____ _____    ______ ____
ROOT
ATOM      1  N   UNL     1       7.737   8.186  17.437  0.00  0.00    +0.000 N 
ATOM      2  C   UNL     1       7.472   6.870  17.811  0.00  0.00    +0.000 C 
ATOM      3  O   UNL     1       7.864   6.374  18.869  0.00  0.00    +0.000 OA
ATOM      4  H   UNL     1       7.408   8.596  16.569  0.00  0.00    +0.000 HD
ENDROOT
BRANCH   1   6
ATOM      5  C   UNL     1       8.796  10.147  18.028  0.00  0.00    +0.000 C 
ATOM      6  N   UNL     1       8.436   8.943  18.330  0.00  0.00    +0.000 NA
BRANCH   5  11
ATOM      7  C   UNL     1       9.372  12.481  22.239  0.00  0.00    +0.000 C 
ATOM      8  C   UNL     1       9.811  11.959  20.932  0.00  0.00    +0.000 A 
ATOM      9  C   UNL     1      11.020  12.002  20.270  0.00  0.00    +0.000 A 
ATOM     10  C   UNL     1      10.828  11.322  19.051  0.00  0.00    +0.000 A 
ATOM     11  C   UNL     1       9.514  10.896  19.028  0.00  0.00    +0.000 A 
ATOM     12  O   UNL     1       8.885  11.287  20.179  0.00  0.00    +0.000 OA
ENDBRANCH   5  11
ENDBRANCH   1   6
BRANCH   2  13
ATOM     13  C   UNL     1       6.689   6.055  16.810  0.00  0.00    +0.000 C 
BRANCH  13  14
ATOM     14  N   UNL     1       5.277   5.981  17.147  0.00  0.00    +0.000 N 
ATOM     15  C   UNL     1       4.476   6.998  17.575  0.00  0.00    +0.000 A 
ATOM     16  C   UNL     1       3.246   6.444  17.828  0.00  0.00    +0.000 A 
ATOM     17  C   UNL     1       3.396   5.056  17.565  0.00  0.00    +0.000 A 
ATOM     18  N   UNL     1       4.656   4.781  17.157  0.00  0.00    +0.000 NA
BRANCH  17  19
ATOM     19  C   UNL     1       2.325   4.007  17.711  0.00  0.00    +0.000 C 
ATOM     20  F   UNL     1       1.092   4.494  17.393  0.00  0.00    +0.000 F 
ATOM     21  F   UNL     1       2.530   2.935  16.900  0.00  0.00    +0.000 F 
ATOM     22  F   UNL     1       2.229   3.532  18.981  0.00  0.00    +0.000 F 
ENDBRANCH  17  19
ENDBRANCH  13  14
ENDBRANCH   2  13
TORSDOF 5
ENDMDL
MODEL 5
REMARK VINA RESULT:      -7.1      1.825      2.684
REMARK  Name = 
REMARK  6 active torsions:
REMARK  status: ('A' for Active; 'I' for Inactive)
REMARK    1  A    between atoms: C_1  and  C_2
REMARK    2  A    between atoms: C_5  and  C_6
REMARK    3  A    between atoms: N_7  and  N_8
REMARK    4  A    between atoms: C_9  and  C_11
REMARK    5  A    between atoms: C_11  and  N_12
REMARK    6  A    between atoms: C_15  and  C_16
REMARK                            x       y       z     vdW  Elec       q    Type
REMARK                         _______ _______ _______ _____ _____    ______ ____
ROOT
ATOM      1  N   UNL     1       8.358   7.844  18.753  0.00  0.00    +0.000 N 
ATOM      2  C   UNL     1       7.645   7.018  17.886  0.00  0.00    +0.000 C 
ATOM      3  O   UNL     1       7.292   7.364  16.757  0.00  0.00    +0.000 OA
ATOM      4  H   UNL     1       8.654   7.556  19.680  0.00  0.00    +0.000 HD
ENDROOT
BRANCH   1   6
ATOM      5  C   UNL     1       9.188   9.972  19.070  0.00  0.00    +0.000 C 
ATOM      6  N   UNL     1       8.696   9.077  18.278  0.00  0.00    +0.000 NA
BRANCH   5  11
ATOM      7  C   UNL     1       8.664  14.700  18.134  0.00  0.00    +0.000 C 
ATOM      8  C   UNL     1       9.337  13.390  18.053  0.00  0.00    +0.000 A 
ATOM      9  C   UNL     1      10.498  12.976  17.435  0.00  0.00    +0.000 A 
ATOM     10  C   UNL     1      10.627  11.601  17.718  0.00  0.00    +0.000 A 
ATOM     11  C   UNL     1       9.542  11.245  18.495  0.00  0.00    +0.000 A 
ATOM     12  O   UNL     1       8.746  12.339  18.701  0.00  0.00    +0.000 OA
ENDBRANCH   5  11
ENDBRANCH   1   6
BRANCH   2  13
ATOM     13  C   UNL     1       7.290   5.655  18.431  0.00  0.00    +0.000 C 
BRANCH  13  14
ATOM     14  N   UNL     1       5.981   5.209  17.984  0.00  0.00    +0.000 N 
ATOM     15  C   UNL     1       5.705   4.355  16.958  0.00  0.00    +0.000 A 
ATOM     16  C   UNL     1       4.337   4.283  16.869  0.00  0.00    +0.000 A 
ATOM     17  C   UNL     1       3.847   5.169  17.865  0.00  0.00    +0.000 A 
ATOM     18  N   UNL     1       4.869   5.744  18.538  0.00  0.00    +0.000 NA
BRANCH  17  19
ATOM     19  C   UNL     1       2.398   5.456  18.158  0.00  0.00    +0.000 C 
ATOM     20  F   UNL     1       1.565   4.680  17.407  0.00  0.00    +0.000 F 
ATOM     21  F   UNL     1       2.070   5.218  19.456  0.00  0.00    +0.000 F 
ATOM     22  F   UNL     1       2.056   6.745  17.892  0.00  0.00    +0.000 F 
ENDBRANCH  17  19
ENDBRANCH  13  14
ENDBRANCH   2  13
TORSDOF 5
ENDMDL
MODEL 6
REMARK VINA RESULT:      -7.1      5.166      6.833
REMARK  Name = 
REMARK  6 active torsions:
REMARK  status: ('A' for Active; 'I' for Inactive)
REMARK    1  A    between atoms: C_1  and  C_2
REMARK    2  A    between atoms: C_5  and  C_6
REMARK    3  A    between atoms: N_7  and  N_8
REMARK    4  A    between atoms: C_9  and  C_11
REMARK    5  A    between atoms: C_11  and  N_12
REMARK    6  A    between atoms: C_15  and  C_16
REMARK                            x       y       z     vdW  Elec       q    Type
REMARK                         _______ _______ _______ _____ _____    ______ ____
ROOT
ATOM      1  N   UNL     1       2.702   5.369  19.749  0.00  0.00    +0.000 N 
ATOM      2  C   UNL     1       2.733   4.195  20.499  0.00  0.00    +0.000 C 
ATOM      3  O   UNL     1       2.137   4.058  21.569  0.00  0.00    +0.000 OA
ATOM      4  H   UNL     1       3.187   5.479  18.865  0.00  0.00    +0.000 HD
ENDROOT
BRANCH   1   6
ATOM      5  C   UNL     1       2.109   7.596  19.829  0.00  0.00    +0.000 C 
ATOM      6  N   UNL     1       1.932   6.383  20.239  0.00  0.00    +0.000 NA
BRANCH   5  11
ATOM      7  C   UNL     1      -0.458   9.836  23.280  0.00  0.00    +0.000 C 
ATOM      8  C   UNL     1       0.073   9.657  21.916  0.00  0.00    +0.000 A 
ATOM      9  C   UNL     1      -0.065  10.393  20.759  0.00  0.00    +0.000 A 
ATOM     10  C   UNL     1       0.685   9.723  19.771  0.00  0.00    +0.000 A 
ATOM     11  C   UNL     1       1.246   8.613  20.374  0.00  0.00    +0.000 A 
ATOM     12  O   UNL     1       0.871   8.567  21.690  0.00  0.00    +0.000 OA
ENDBRANCH   5  11
ENDBRANCH   1   6
BRANCH   2  13
ATOM     13  C   UNL     1       3.584   3.084  19.932  0.00  0.00    +0.000 C 
BRANCH  13  14
ATOM     14  N   UNL     1       4.312   3.502  18.745  0.00  0.00    +0.000 N 
ATOM     15  C   UNL     1       3.950   3.310  17.445  0.00  0.00    +0.000 A 
ATOM     16  C   UNL     1       4.972   3.813  16.678  0.00  0.00    +0.000 A 
ATOM     17  C   UNL     1       5.951   4.263  17.604  0.00  0.00    +0.000 A 
ATOM     18  N   UNL     1       5.539   4.055  18.874  0.00  0.00    +0.000 NA
BRANCH  17  19
ATOM     19  C   UNL     1       7.276   4.888  17.255  0.00  0.00    +0.000 C 
ATOM     20  F   UNL     1       7.406   6.135  17.791  0.00  0.00    +0.000 F 
ATOM     21  F   UNL     1       8.332   4.165  17.717  0.00  0.00    +0.000 F 
ATOM     22  F   UNL     1       7.449   5.032  15.914  0.00  0.00    +0.000 F 
ENDBRANCH  17  19
ENDBRANCH  13  14
ENDBRANCH   2  13
TORSDOF 5
ENDMDL
MODEL 7
REMARK VINA RESULT:      -7.1      1.223      1.382
REMARK  Name = 
REMARK  6 active torsions:
REMARK  status: ('A' for Active; 'I' for Inactive)
REMARK    1  A    between atoms: C_1  and  C_2
REMARK    2  A    between atoms: C_5  and  C_6
REMARK    3  A    between atoms: N_7  and  N_8
REMARK    4  A    between atoms: C_9  and  C_11
REMARK    5  A    between atoms: C_11  and  N_12
REMARK    6  A    between atoms: C_15  and  C_16
REMARK                            x       y       z     vdW  Elec       q    Type
REMARK                         _______ _______ _______ _____ _____    ______ ____
ROOT
ATOM      1  N   UNL     1       7.326   7.514  17.357  0.00  0.00    +0.000 N 
ATOM      2  C   UNL     1       7.117   6.267  17.943  0.00  0.00    +0.000 C 
ATOM      3  O   UNL     1       7.732   5.872  18.936  0.00  0.00    +0.000 OA
ATOM      4  H   UNL     1       6.815   7.841  16.544  0.00  0.00    +0.000 HD
ENDROOT
BRANCH   1   6
ATOM      5  C   UNL     1       8.183   9.607  17.808  0.00  0.00    +0.000 C 
ATOM      6  N   UNL     1       8.240   8.325  17.963  0.00  0.00    +0.000 NA
BRANCH   5  11
ATOM      7  C   UNL     1      11.951  12.637  18.170  0.00  0.00    +0.000 C 
ATOM      8  C   UNL     1      10.873  11.779  18.696  0.00  0.00    +0.000 A 
ATOM      9  C   UNL     1      10.459  11.485  19.978  0.00  0.00    +0.000 A 
ATOM     10  C   UNL     1       9.368  10.602  19.848  0.00  0.00    +0.000 A 
ATOM     11  C   UNL     1       9.168  10.403  18.495  0.00  0.00    +0.000 A 
ATOM     12  O   UNL     1      10.091  11.121  17.784  0.00  0.00    +0.000 OA
ENDBRANCH   5  11
ENDBRANCH   1   6
BRANCH   2  13
ATOM     13  C   UNL     1       6.095   5.391  17.259  0.00  0.00    +0.000 C 
BRANCH  13  14
ATOM     14  N   UNL     1       4.795   5.456  17.907  0.00  0.00    +0.000 N 
ATOM     15  C   UNL     1       3.850   6.429  17.767  0.00  0.00    +0.000 A 
ATOM     16  C   UNL     1       2.824   6.100  18.617  0.00  0.00    +0.000 A 
ATOM     17  C   UNL     1       3.247   4.917  19.279  0.00  0.00    +0.000 A 
ATOM     18  N   UNL     1       4.468   4.536  18.842  0.00  0.00    +0.000 NA
BRANCH  17  19
ATOM     19  C   UNL     1       2.471   4.165  20.328  0.00  0.00    +0.000 C 
ATOM     20  F   UNL     1       3.084   2.996  20.671  0.00  0.00    +0.000 F 
ATOM     21  F   UNL     1       2.331   4.872  21.481  0.00  0.00    +0.000 F 
ATOM     22  F   UNL     1       1.221   3.829  19.912  0.00  0.00    +0.000 F 
ENDBRANCH  17  19
ENDBRANCH  13  14
ENDBRANCH   2  13
TORSDOF 5
ENDMDL
MODEL 8
REMARK VINA RESULT:      -7.1      4.080      5.923
REMARK  Name = 
REMARK  6 active torsions:
REMARK  status: ('A' for Active; 'I' for Inactive)
REMARK    1  A    between atoms: C_1  and  C_2
REMARK    2  A    between atoms: C_5  and  C_6
REMARK    3  A    between atoms: N_7  and  N_8
REMARK    4  A    between atoms: C_9  and  C_11
REMARK    5  A    between atoms: C_11  and  N_12
REMARK    6  A    between atoms: C_15  and  C_16
REMARK                            x       y       z     vdW  Elec       q    Type
REMARK                         _______ _______ _______ _____ _____    ______ ____
ROOT
ATOM      1  N   UNL     1       5.517   4.091  17.182  0.00  0.00    +0.000 N 
ATOM      2  C   UNL     1       6.403   4.723  18.053  0.00  0.00    +0.000 C 
ATOM      3  O   UNL     1       7.576   4.968  17.766  0.00  0.00    +0.000 OA
ATOM      4  H   UNL     1       4.549   3.895  17.416  0.00  0.00    +0.000 HD
ENDROOT
BRANCH   1   6
ATOM      5  C   UNL     1       5.621   4.445  14.906  0.00  0.00    +0.000 C 
ATOM      6  N   UNL     1       5.999   3.777  15.946  0.00  0.00    +0.000 NA
BRANCH   5  11
ATOM      7  C   UNL     1       6.294   1.623  11.021  0.00  0.00    +0.000 C 
ATOM      8  C   UNL     1       6.514   2.818  11.857  0.00  0.00    +0.000 A 
ATOM      9  C   UNL     1       7.296   3.941  11.688  0.00  0.00    +0.000 A 
ATOM     10  C   UNL     1       7.087   4.743  12.828  0.00  0.00    +0.000 A 
ATOM     11  C   UNL     1       6.187   4.073  13.635  0.00  0.00    +0.000 A 
ATOM     12  O   UNL     1       5.834   2.889  13.044  0.00  0.00    +0.000 OA
ENDBRANCH   5  11
ENDBRANCH   1   6
BRANCH   2  13
ATOM     13  C   UNL     1       5.843   5.068  19.412  0.00  0.00    +0.000 C 
BRANCH  13  14
ATOM     14  N   UNL     1       4.406   4.861  19.482  0.00  0.00    +0.000 N 
ATOM     15  C   UNL     1       3.431   5.813  19.439  0.00  0.00    +0.000 A 
ATOM     16  C   UNL     1       2.237   5.156  19.604  0.00  0.00    +0.000 A 
ATOM     17  C   UNL     1       2.581   3.789  19.785  0.00  0.00    +0.000 A 
ATOM     18  N   UNL     1       3.921   3.621  19.720  0.00  0.00    +0.000 NA
BRANCH  17  19
ATOM     19  C   UNL     1       1.615   2.658  20.022  0.00  0.00    +0.000 C 
ATOM     20  F   UNL     1       1.639   2.234  21.318  0.00  0.00    +0.000 F 
ATOM     21  F   UNL     1       0.327   3.008  19.761  0.00  0.00    +0.000 F 
ATOM     22  F   UNL     1       1.893   1.567  19.261  0.00  0.00    +0.000 F 
ENDBRANCH  17  19
ENDBRANCH  13  14
ENDBRANCH   2  13
TORSDOF 5
ENDMDL
MODEL 9
REMARK VINA RESULT:      -7.1      1.947      2.824
REMARK  Name = 
REMARK  6 active torsions:
REMARK  status: ('A' for Active; 'I' for Inactive)
REMARK    1  A    between atoms: C_1  and  C_2
REMARK    2  A    between atoms: C_5  and  C_6
REMARK    3  A    between atoms: N_7  and  N_8
REMARK    4  A    between atoms: C_9  and  C_11
REMARK    5  A    between atoms: C_11  and  N_12
REMARK    6  A    between atoms: C_15  and  C_16
REMARK                            x       y       z     vdW  Elec       q    Type
REMARK                         _______ _______ _______ _____ _____    ______ ____
ROOT
ATOM      1  N   UNL     1       8.448   7.889  18.695  0.00  0.00    +0.000 N 
ATOM      2  C   UNL     1       7.654   7.072  17.892  0.00  0.00    +0.000 C 
ATOM      3  O   UNL     1       7.145   7.449  16.835  0.00  0.00    +0.000 OA
ATOM      4  H   UNL     1       8.873   7.576  19.562  0.00  0.00    +0.000 HD
ENDROOT
BRANCH   1   6
ATOM      5  C   UNL     1       9.244  10.032  18.996  0.00  0.00    +0.000 C 
ATOM      6  N   UNL     1       8.679   9.152  18.237  0.00  0.00    +0.000 NA
BRANCH   5  11
ATOM      7  C   UNL     1      11.686  13.421  16.534  0.00  0.00    +0.000 C 
ATOM      8  C   UNL     1      10.556  12.901  17.326  0.00  0.00    +0.000 A 
ATOM      9  C   UNL     1       9.380  13.477  17.760  0.00  0.00    +0.000 A 
ATOM     10  C   UNL     1       8.690  12.476  18.474  0.00  0.00    +0.000 A 
ATOM     11  C   UNL     1       9.476  11.340  18.439  0.00  0.00    +0.000 A 
ATOM     12  O   UNL     1      10.623  11.597  17.737  0.00  0.00    +0.000 OA
ENDBRANCH   5  11
ENDBRANCH   1   6
BRANCH   2  13
ATOM     13  C   UNL     1       7.421   5.675  18.416  0.00  0.00    +0.000 C 
BRANCH  13  14
ATOM     14  N   UNL     1       6.291   5.029  17.770  0.00  0.00    +0.000 N 
ATOM     15  C   UNL     1       6.266   4.448  16.536  0.00  0.00    +0.000 A 
ATOM     16  C   UNL     1       4.975   4.031  16.328  0.00  0.00    +0.000 A 
ATOM     17  C   UNL     1       4.256   4.440  17.483  0.00  0.00    +0.000 A 
ATOM     18  N   UNL     1       5.075   5.064  18.359  0.00  0.00    +0.000 NA
BRANCH  17  19
ATOM     19  C   UNL     1       2.786   4.227  17.730  0.00  0.00    +0.000 C 
ATOM     20  F   UNL     1       2.245   3.345  16.842  0.00  0.00    +0.000 F 
ATOM     21  F   UNL     1       2.533   3.722  18.967  0.00  0.00    +0.000 F 
ATOM     22  F   UNL     1       2.065   5.373  17.613  0.00  0.00    +0.000 F 
ENDBRANCH  17  19
ENDBRANCH  13  14
ENDBRANCH   2  13
TORSDOF 5
ENDMDL
