MODEL 1
REMARK VINA RESULT:      -7.1      0.000      0.000
REMARK  Name = 
REMARK  6 active torsions:
REMARK  status: ('A' for Active; 'I' for Inactive)
REMARK    1  A    between atoms: O_1  and  C_2
REMARK    2  A    between atoms: C_2  and  C_3
REMARK    3  A    between atoms: C_3  and  N_4
REMARK    4  A    between atoms: N_7  and  C_8
REMARK    5  A    between atoms: C_10  and  C_11
REMARK    6  A    between atoms: C_19  and  N_20
REMARK                            x       y       z     vdW  Elec       q    Type
REMARK                         _______ _______ _______ _____ _____    ______ ____
ROOT
ATOM      1  C   UNL     1       3.500   5.753  19.293  0.00  0.00    +0.000 A 
ATOM      2  N   UNL     1       3.011   6.997  19.582  0.00  0.00    +0.000 NA
ATOM      3  C   UNL     1       1.871   7.089  20.315  0.00  0.00    +0.000 A 
ATOM      4  C   UNL     1       1.243   5.941  20.763  0.00  0.00    +0.000 A 
ATOM      5  N   UNL     1       1.715   4.692  20.546  0.00  0.00    +0.000 NA
ATOM      6  C   UNL     1       2.863   4.579  19.826  0.00  0.00    +0.000 A 
ENDROOT
BRANCH   1  10
ATOM      7  N   UNL     1       6.736   6.253  16.487  0.00  0.00    +0.000 NA
ATOM      8  C   UNL     1       5.348   6.691  16.216  0.00  0.00    +0.000 C 
ATOM      9  C   UNL     1       4.276   5.848  16.926  0.00  0.00    +0.000 C 
ATOM     10  N   UNL     1       4.526   5.740  18.360  0.00  0.00    +0.000 N 
ATOM     11  C   UNL     1       5.900   5.511  18.813  0.00  0.00    +0.000 C 
ATOM     12  C   UNL     1       6.921   6.311  17.963  0.00  0.00    +0.000 C 
BRANCH   7  13
ATOM     13  C   UNL     1       7.042   4.898  15.979  0.00  0.00    +0.000 C 
BRANCH  13  14
ATOM     14  C   UNL     1       6.956   4.739  14.452  0.00  0.00    +0.000 C 
BRANCH  14  15
ATOM     15  O   UNL     1       7.947   5.557  13.827  0.00  0.00    +0.000 OA
ATOM     16  H   UNL     1       7.474   6.294  13.403  0.00  0.00    +0.000 HD
ENDBRANCH  14  15
ENDBRANCH  13  14
ENDBRANCH   7  13
ENDBRANCH   1  10
BRANCH   3  17
ATOM     17  C   UNL     1       1.330   8.454  20.514  0.00  0.00    +0.000 A 
ATOM     18  C   UNL     1       1.195   9.341  19.435  0.00  0.00    +0.000 A 
ATOM     19  C   UNL     1       0.650  10.598  19.649  0.00  0.00    +0.000 A 
ATOM     20  N   UNL     1       0.234  11.040  20.854  0.00  0.00    +0.000 NA
ATOM     21  C   UNL     1       0.381  10.192  21.888  0.00  0.00    +0.000 A 
ATOM     22  C   UNL     1       0.912   8.915  21.772  0.00  0.00    +0.000 A 
ENDBRANCH   3  17
BRANCH   6  23
ATOM     23  N   UNL     1       3.310   3.299  19.608  0.00  0.00    +0.000 N 
ATOM     24  C   UNL     1       3.792   2.394  20.633  0.00  0.00    +0.000 C 
ATOM     25  C   UNL     1       4.616   1.451  19.754  0.00  0.00    +0.000 C 
ATOM     26  C   UNL     1       3.683   1.228  18.562  0.00  0.00    +0.000 C 
ATOM     27  C   UNL     1       2.857   2.525  18.462  0.00  0.00    +0.000 C 
ENDBRANCH   6  23
TORSDOF 6
ENDMDL
MODEL 2
REMARK VINA RESULT:      -6.8      0.278      1.237
REMARK  Name = 
REMARK  6 active torsions:
REMARK  status: ('A' for Active; 'I' for Inactive)
REMARK    1  A    between atoms: O_1  and  C_2
REMARK    2  A    between atoms: C_2  and  C_3
REMARK    3  A    between atoms: C_3  and  N_4
REMARK    4  A    between atoms: N_7  and  C_8
REMARK    5  A    between atoms: C_10  and  C_11
REMARK    6  A    between atoms: C_19  and  N_20
REMARK                            x       y       z     vdW  Elec       q    Type
REMARK                         _______ _______ _______ _____ _____    ______ ____
ROOT
ATOM      1  C   UNL     1       3.610   5.662  19.201  0.00  0.00    +0.000 A 
ATOM      2  N   UNL     1       3.097   6.887  19.525  0.00  0.00    +0.000 NA
ATOM      3  C   UNL     1       1.963   6.938  20.270  0.00  0.00    +0.000 A 
ATOM      4  C   UNL     1       1.364   5.766  20.697  0.00  0.00    +0.000 A 
ATOM      5  N   UNL     1       1.860   4.533  20.445  0.00  0.00    +0.000 NA
ATOM      6  C   UNL     1       3.002   4.461  19.711  0.00  0.00    +0.000 A 
ENDROOT
BRANCH   1  10
ATOM      7  N   UNL     1       6.798   6.300  16.369  0.00  0.00    +0.000 NA
ATOM      8  C   UNL     1       5.392   6.689  16.115  0.00  0.00    +0.000 C 
ATOM      9  C   UNL     1       4.359   5.802  16.827  0.00  0.00    +0.000 C 
ATOM     10  N   UNL     1       4.626   5.693  18.258  0.00  0.00    +0.000 N 
ATOM     11  C   UNL     1       6.012   5.510  18.696  0.00  0.00    +0.000 C 
ATOM     12  C   UNL     1       6.995   6.353  17.843  0.00  0.00    +0.000 C 
BRANCH   7  13
ATOM     13  C   UNL     1       7.148   4.960  15.847  0.00  0.00    +0.000 C 
BRANCH  13  14
ATOM     14  C   UNL     1       7.020   4.800  14.323  0.00  0.00    +0.000 C 
BRANCH  14  15
ATOM     15  O   UNL     1       7.993   5.617  13.671  0.00  0.00    +0.000 OA
ATOM     16  H   UNL     1       8.108   5.253  12.776  0.00  0.00    +0.000 HD
ENDBRANCH  14  15
ENDBRANCH  13  14
ENDBRANCH   7  13
ENDBRANCH   1  10
BRANCH   3  17
ATOM     17  C   UNL     1       1.395   8.286  20.508  0.00  0.00    +0.000 A 
ATOM     18  C   UNL     1       1.020   8.692  21.797  0.00  0.00    +0.000 A 
ATOM     19  C   UNL     1       0.527   9.974  21.992  0.00  0.00    +0.000 A 
ATOM     20  N   UNL     1       0.376  10.878  21.003  0.00  0.00    +0.000 NA
ATOM     21  C   UNL     1       0.722  10.478  19.765  0.00  0.00    +0.000 A 
ATOM     22  C   UNL     1       1.226   9.218  19.473  0.00  0.00    +0.000 A 
ENDBRANCH   3  17
BRANCH   6  23
ATOM     23  N   UNL     1       3.474   3.197  19.458  0.00  0.00    +0.000 N 
ATOM     24  C   UNL     1       3.534   2.571  18.151  0.00  0.00    +0.000 C 
ATOM     25  C   UNL     1       3.586   1.105  18.588  0.00  0.00    +0.000 C 
ATOM     26  C   UNL     1       4.594   1.150  19.738  0.00  0.00    +0.000 C 
ATOM     27  C   UNL     1       4.445   2.562  20.336  0.00  0.00    +0.000 C 
ENDBRANCH   6  23
TORSDOF 6
ENDMDL
MODEL 3
REMARK VINA RESULT:      -6.7      3.500      8.121
REMARK  Name = 
REMARK  6 active torsions:
REMARK  status: ('A' for Active; 'I' for Inactive)
REMARK    1  A    between atoms: O_1  and  C_2
REMARK    2  A    between atoms: C_2  and  C_3
REMARK    3  A    between atoms: C_3  and  N_4
REMARK    4  A    between atoms: N_7  and  C_8
REMARK    5  A    between atoms: C_10  and  C_11
REMARK    6  A    between atoms: C_19  and  N_20
REMARK                            x       y       z     vdW  Elec       q    Type
REMARK                         _______ _______ _______ _____ _____    ______ ____
ROOT
ATOM      1  C   UNL     1       5.687   4.527  16.127  0.00  0.00    +0.000 A 
ATOM      2  N   UNL     1       5.321   3.851  14.997  0.00  0.00    +0.000 NA
ATOM      3  C   UNL     1       6.066   4.016  13.874  0.00  0.00    +0.000 A 
ATOM      4  C   UNL     1       7.176   4.841  13.897  0.00  0.00    +0.000 A 
ATOM      5  N   UNL     1       7.607   5.491  15.002  0.00  0.00    +0.000 NA
ATOM      6  C   UNL     1       6.882   5.329  16.140  0.00  0.00    +0.000 A 
ENDROOT
BRANCH   1  10
ATOM      7  N   UNL     1       3.188   4.584  19.641  0.00  0.00    +0.000 NA
ATOM      8  C   UNL     1       4.233   3.563  19.400  0.00  0.00    +0.000 C 
ATOM      9  C   UNL     1       4.489   3.267  17.914  0.00  0.00    +0.000 C 
ATOM     10  N   UNL     1       4.755   4.484  17.152  0.00  0.00    +0.000 N 
ATOM     11  C   UNL     1       3.933   5.667  17.421  0.00  0.00    +0.000 C 
ATOM     12  C   UNL     1       3.627   5.818  18.933  0.00  0.00    +0.000 C 
BRANCH   7  13
ATOM     13  C   UNL     1       1.842   4.176  19.184  0.00  0.00    +0.000 C 
BRANCH  13  14
ATOM     14  C   UNL     1       1.332   2.847  19.764  0.00  0.00    +0.000 C 
BRANCH  14  15
ATOM     15  O   UNL     1       1.259   1.867  18.728  0.00  0.00    +0.000 OA
ATOM     16  H   UNL     1       0.317   1.653  18.611  0.00  0.00    +0.000 HD
ENDBRANCH  14  15
ENDBRANCH  13  14
ENDBRANCH   7  13
ENDBRANCH   1  10
BRANCH   3  17
ATOM     17  C   UNL     1       5.569   3.340  12.653  0.00  0.00    +0.000 A 
ATOM     18  C   UNL     1       6.284   2.281  12.074  0.00  0.00    +0.000 A 
ATOM     19  C   UNL     1       5.772   1.644  10.953  0.00  0.00    +0.000 A 
ATOM     20  N   UNL     1       4.607   1.984  10.364  0.00  0.00    +0.000 NA
ATOM     21  C   UNL     1       3.933   3.011  10.912  0.00  0.00    +0.000 A 
ATOM     22  C   UNL     1       4.364   3.707  12.034  0.00  0.00    +0.000 A 
ENDBRANCH   3  17
BRANCH   6  23
ATOM     23  N   UNL     1       7.334   6.012  17.241  0.00  0.00    +0.000 N 
ATOM     24  C   UNL     1       7.107   7.420  17.505  0.00  0.00    +0.000 C 
ATOM     25  C   UNL     1       8.259   7.672  18.481  0.00  0.00    +0.000 C 
ATOM     26  C   UNL     1       8.181   6.444  19.390  0.00  0.00    +0.000 C 
ATOM     27  C   UNL     1       7.604   5.329  18.497  0.00  0.00    +0.000 C 
ENDBRANCH   6  23
TORSDOF 6
ENDMDL
MODEL 4
REMARK VINA RESULT:      -6.5      3.663      8.182
REMARK  Name = 
REMARK  6 active torsions:
REMARK  status: ('A' for Active; 'I' for Inactive)
REMARK    1  A    between atoms: O_1  and  C_2
REMARK    2  A    between atoms: C_2  and  C_3
REMARK    3  A    between atoms: C_3  and  N_4
REMARK    4  A    between atoms: N_7  and  C_8
REMARK    5  A    between atoms: C_10  and  C_11
REMARK    6  A    between atoms: C_19  and  N_20
REMARK                            x       y       z     vdW  Elec       q    Type
REMARK                         _______ _______ _______ _____ _____    ______ ____
ROOT
ATOM      1  C   UNL     1       5.660   4.535  16.116  0.00  0.00    +0.000 A 
ATOM      2  N   UNL     1       5.293   3.865  14.983  0.00  0.00    +0.000 NA
ATOM      3  C   UNL     1       6.057   4.010  13.870  0.00  0.00    +0.000 A 
ATOM      4  C   UNL     1       7.186   4.808  13.906  0.00  0.00    +0.000 A 
ATOM      5  N   UNL     1       7.618   5.450  15.015  0.00  0.00    +0.000 NA
ATOM      6  C   UNL     1       6.873   5.308  16.144  0.00  0.00    +0.000 A 
ENDROOT
BRANCH   1  10
ATOM      7  N   UNL     1       2.343   4.383  18.868  0.00  0.00    +0.000 NA
ATOM      8  C   UNL     1       2.610   5.535  17.977  0.00  0.00    +0.000 C 
ATOM      9  C   UNL     1       4.097   5.737  17.643  0.00  0.00    +0.000 C 
ATOM     10  N   UNL     1       4.713   4.517  17.129  0.00  0.00    +0.000 N 
ATOM     11  C   UNL     1       4.386   3.245  17.778  0.00  0.00    +0.000 C 
ATOM     12  C   UNL     1       2.892   3.179  18.186  0.00  0.00    +0.000 C 
BRANCH   7  13
ATOM     13  C   UNL     1       2.933   4.527  20.217  0.00  0.00    +0.000 C 
BRANCH  13  14
ATOM     14  C   UNL     1       2.066   3.987  21.368  0.00  0.00    +0.000 C 
BRANCH  14  15
ATOM     15  O   UNL     1       2.717   2.871  21.977  0.00  0.00    +0.000 OA
ATOM     16  H   UNL     1       2.432   2.856  22.907  0.00  0.00    +0.000 HD
ENDBRANCH  14  15
ENDBRANCH  13  14
ENDBRANCH   7  13
ENDBRANCH   1  10
BRANCH   3  17
ATOM     17  C   UNL     1       5.560   3.343  12.643  0.00  0.00    +0.000 A 
ATOM     18  C   UNL     1       6.268   2.277  12.066  0.00  0.00    +0.000 A 
ATOM     19  C   UNL     1       5.756   1.649  10.939  0.00  0.00    +0.000 A 
ATOM     20  N   UNL     1       4.600   2.004  10.344  0.00  0.00    +0.000 NA
ATOM     21  C   UNL     1       3.933   3.037  10.891  0.00  0.00    +0.000 A 
ATOM     22  C   UNL     1       4.364   3.725  12.017  0.00  0.00    +0.000 A 
ENDBRANCH   3  17
BRANCH   6  23
ATOM     23  N   UNL     1       7.326   5.983  17.250  0.00  0.00    +0.000 N 
ATOM     24  C   UNL     1       7.104   7.390  17.522  0.00  0.00    +0.000 C 
ATOM     25  C   UNL     1       8.255   7.632  18.501  0.00  0.00    +0.000 C 
ATOM     26  C   UNL     1       8.171   6.399  19.403  0.00  0.00    +0.000 C 
ATOM     27  C   UNL     1       7.592   5.291  18.502  0.00  0.00    +0.000 C 
ENDBRANCH   6  23
TORSDOF 6
ENDMDL
MODEL 5
REMARK VINA RESULT:      -6.3      3.701      8.199
REMARK  Name = 
REMARK  6 active torsions:
REMARK  status: ('A' for Active; 'I' for Inactive)
REMARK    1  A    between atoms: O_1  and  C_2
REMARK    2  A    between atoms: C_2  and  C_3
REMARK    3  A    between atoms: C_3  and  N_4
REMARK    4  A    between atoms: N_7  and  C_8
REMARK    5  A    between atoms: C_10  and  C_11
REMARK    6  A    between atoms: C_19  and  N_20
REMARK                            x       y       z     vdW  Elec       q    Type
REMARK                         _______ _______ _______ _____ _____    ______ ____
ROOT
ATOM      1  C   UNL     1       5.642   4.488  16.107  0.00  0.00    +0.000 A 
ATOM      2  N   UNL     1       5.278   3.810  14.977  0.00  0.00    +0.000 NA
ATOM      3  C   UNL     1       6.041   3.954  13.862  0.00  0.00    +0.000 A 
ATOM      4  C   UNL     1       7.165   4.758  13.894  0.00  0.00    +0.000 A 
ATOM      5  N   UNL     1       7.594   5.409  15.000  0.00  0.00    +0.000 NA
ATOM      6  C   UNL     1       6.851   5.268  16.130  0.00  0.00    +0.000 A 
ENDROOT
BRANCH   1  10
ATOM      7  N   UNL     1       2.342   4.261  18.873  0.00  0.00    +0.000 NA
ATOM      8  C   UNL     1       2.497   5.345  17.877  0.00  0.00    +0.000 C 
ATOM      9  C   UNL     1       3.958   5.663  17.520  0.00  0.00    +0.000 C 
ATOM     10  N   UNL     1       4.696   4.469  17.120  0.00  0.00    +0.000 N 
ATOM     11  C   UNL     1       4.496   3.237  17.887  0.00  0.00    +0.000 C 
ATOM     12  C   UNL     1       3.013   3.060  18.305  0.00  0.00    +0.000 C 
BRANCH   7  13
ATOM     13  C   UNL     1       2.907   4.588  20.201  0.00  0.00    +0.000 C 
BRANCH  13  14
ATOM     14  C   UNL     1       2.115   4.037  21.399  0.00  0.00    +0.000 C 
BRANCH  14  15
ATOM     15  O   UNL     1       0.896   3.451  20.941  0.00  0.00    +0.000 OA
ATOM     16  H   UNL     1       0.293   4.185  20.734  0.00  0.00    +0.000 HD
ENDBRANCH  14  15
ENDBRANCH  13  14
ENDBRANCH   7  13
ENDBRANCH   1  10
BRANCH   3  17
ATOM     17  C   UNL     1       5.547   3.277  12.639  0.00  0.00    +0.000 A 
ATOM     18  C   UNL     1       4.364   3.697  12.012  0.00  0.00    +0.000 A 
ATOM     19  C   UNL     1       3.949   3.067  10.848  0.00  0.00    +0.000 A 
ATOM     20  N   UNL     1       4.619   2.052  10.265  0.00  0.00    +0.000 NA
ATOM     21  C   UNL     1       5.744   1.642  10.879  0.00  0.00    +0.000 A 
ATOM     22  C   UNL     1       6.239   2.212  12.045  0.00  0.00    +0.000 A 
ENDBRANCH   3  17
BRANCH   6  23
ATOM     23  N   UNL     1       7.301   5.951  17.232  0.00  0.00    +0.000 N 
ATOM     24  C   UNL     1       7.072   7.359  17.496  0.00  0.00    +0.000 C 
ATOM     25  C   UNL     1       8.222   7.611  18.473  0.00  0.00    +0.000 C 
ATOM     26  C   UNL     1       8.144   6.383  19.382  0.00  0.00    +0.000 C 
ATOM     27  C   UNL     1       7.570   5.268  18.488  0.00  0.00    +0.000 C 
ENDBRANCH   6  23
TORSDOF 6
ENDMDL
MODEL 6
REMARK VINA RESULT:      -6.3      3.199      8.124
REMARK  Name = 
REMARK  6 active torsions:
REMARK  status: ('A' for Active; 'I' for Inactive)
REMARK    1  A    between atoms: O_1  and  C_2
REMARK    2  A    between atoms: C_2  and  C_3
REMARK    3  A    between atoms: C_3  and  N_4
REMARK    4  A    between atoms: N_7  and  C_8
REMARK    5  A    between atoms: C_10  and  C_11
REMARK    6  A    between atoms: C_19  and  N_20
REMARK                            x       y       z     vdW  Elec       q    Type
REMARK                         _______ _______ _______ _____ _____    ______ ____
ROOT
ATOM      1  C   UNL     1       5.680   4.591  16.136  0.00  0.00    +0.000 A 
ATOM      2  N   UNL     1       5.314   3.901  15.013  0.00  0.00    +0.000 NA
ATOM      3  C   UNL     1       6.079   4.027  13.899  0.00  0.00    +0.000 A 
ATOM      4  C   UNL     1       7.209   4.825  13.922  0.00  0.00    +0.000 A 
ATOM      5  N   UNL     1       7.639   5.487  15.021  0.00  0.00    +0.000 NA
ATOM      6  C   UNL     1       6.893   5.364  16.151  0.00  0.00    +0.000 A 
ENDROOT
BRANCH   1  10
ATOM      7  N   UNL     1       2.414   4.298  18.936  0.00  0.00    +0.000 NA
ATOM      8  C   UNL     1       2.402   5.200  17.762  0.00  0.00    +0.000 C 
ATOM      9  C   UNL     1       3.795   5.694  17.338  0.00  0.00    +0.000 C 
ATOM     10  N   UNL     1       4.731   4.590  17.147  0.00  0.00    +0.000 N 
ATOM     11  C   UNL     1       4.728   3.497  18.122  0.00  0.00    +0.000 C 
ATOM     12  C   UNL     1       3.288   3.147  18.581  0.00  0.00    +0.000 C 
BRANCH   7  13
ATOM     13  C   UNL     1       2.889   4.945  20.179  0.00  0.00    +0.000 C 
BRANCH  13  14
ATOM     14  C   UNL     1       1.866   5.863  20.868  0.00  0.00    +0.000 C 
BRANCH  14  15
ATOM     15  O   UNL     1       2.198   7.229  20.615  0.00  0.00    +0.000 OA
ATOM     16  H   UNL     1       2.331   7.649  21.482  0.00  0.00    +0.000 HD
ENDBRANCH  14  15
ENDBRANCH  13  14
ENDBRANCH   7  13
ENDBRANCH   1  10
BRANCH   3  17
ATOM     17  C   UNL     1       5.584   3.338  12.683  0.00  0.00    +0.000 A 
ATOM     18  C   UNL     1       6.302   2.275  12.115  0.00  0.00    +0.000 A 
ATOM     19  C   UNL     1       5.792   1.627  10.999  0.00  0.00    +0.000 A 
ATOM     20  N   UNL     1       4.627   1.959  10.406  0.00  0.00    +0.000 NA
ATOM     21  C   UNL     1       3.951   2.990  10.945  0.00  0.00    +0.000 A 
ATOM     22  C   UNL     1       4.379   3.697  12.061  0.00  0.00    +0.000 A 
ENDBRANCH   3  17
BRANCH   6  23
ATOM     23  N   UNL     1       7.345   6.059  17.246  0.00  0.00    +0.000 N 
ATOM     24  C   UNL     1       7.073   7.456  17.522  0.00  0.00    +0.000 C 
ATOM     25  C   UNL     1       8.237   7.745  18.473  0.00  0.00    +0.000 C 
ATOM     26  C   UNL     1       8.223   6.511  19.378  0.00  0.00    +0.000 C 
ATOM     27  C   UNL     1       7.667   5.380  18.492  0.00  0.00    +0.000 C 
ENDBRANCH   6  23
TORSDOF 6
ENDMDL
MODEL 7
REMARK VINA RESULT:      -6.2      1.056      1.754
REMARK  Name = 
REMARK  6 active torsions:
REMARK  status: ('A' for Active; 'I' for Inactive)
REMARK    1  A    between atoms: O_1  and  C_2
REMARK    2  A    between atoms: C_2  and  C_3
REMARK    3  A    between atoms: C_3  and  N_4
REMARK    4  A    between atoms: N_7  and  C_8
REMARK    5  A    between atoms: C_10  and  C_11
REMARK    6  A    between atoms: C_19  and  N_20
REMARK                            x       y       z     vdW  Elec       q    Type
REMARK                         _______ _______ _______ _____ _____    ______ ____
ROOT
ATOM      1  C   UNL     1       3.796   5.504  18.699  0.00  0.00    +0.000 A 
ATOM      2  N   UNL     1       3.352   6.796  18.741  0.00  0.00    +0.000 NA
ATOM      3  C   UNL     1       2.256   7.080  19.491  0.00  0.00    +0.000 A 
ATOM      4  C   UNL     1       1.627   6.074  20.203  0.00  0.00    +0.000 A 
ATOM      5  N   UNL     1       2.058   4.792  20.233  0.00  0.00    +0.000 NA
ATOM      6  C   UNL     1       3.161   4.490  19.499  0.00  0.00    +0.000 A 
ENDROOT
BRANCH   1  10
ATOM      7  N   UNL     1       6.887   4.255  15.964  0.00  0.00    +0.000 NA
ATOM      8  C   UNL     1       7.155   4.684  17.355  0.00  0.00    +0.000 C 
ATOM      9  C   UNL     1       6.148   5.710  17.899  0.00  0.00    +0.000 C 
ATOM     10  N   UNL     1       4.769   5.260  17.741  0.00  0.00    +0.000 N 
ATOM     11  C   UNL     1       4.385   4.617  16.482  0.00  0.00    +0.000 C 
ATOM     12  C   UNL     1       5.509   3.691  15.949  0.00  0.00    +0.000 C 
BRANCH   7  13
ATOM     13  C   UNL     1       7.011   5.345  14.971  0.00  0.00    +0.000 C 
BRANCH  13  14
ATOM     14  C   UNL     1       7.299   4.885  13.532  0.00  0.00    +0.000 C 
BRANCH  14  15
ATOM     15  O   UNL     1       8.223   5.784  12.917  0.00  0.00    +0.000 OA
ATOM     16  H   UNL     1       7.811   6.084  12.088  0.00  0.00    +0.000 HD
ENDBRANCH  14  15
ENDBRANCH  13  14
ENDBRANCH   7  13
ENDBRANCH   1  10
BRANCH   3  17
ATOM     17  C   UNL     1       1.758   8.474  19.423  0.00  0.00    +0.000 A 
ATOM     18  C   UNL     1       1.074   9.048  20.505  0.00  0.00    +0.000 A 
ATOM     19  C   UNL     1       0.654  10.368  20.424  0.00  0.00    +0.000 A 
ATOM     20  N   UNL     1       0.860  11.155  19.348  0.00  0.00    +0.000 NA
ATOM     21  C   UNL     1       1.503  10.595  18.307  0.00  0.00    +0.000 A 
ATOM     22  C   UNL     1       1.962   9.285  18.296  0.00  0.00    +0.000 A 
ENDBRANCH   3  17
BRANCH   6  23
ATOM     23  N   UNL     1       3.566   3.179  19.536  0.00  0.00    +0.000 N 
ATOM     24  C   UNL     1       4.076   2.492  20.707  0.00  0.00    +0.000 C 
ATOM     25  C   UNL     1       4.833   1.358  20.011  0.00  0.00    +0.000 C 
ATOM     26  C   UNL     1       3.837   0.924  18.933  0.00  0.00    +0.000 C 
ATOM     27  C   UNL     1       3.039   2.198  18.599  0.00  0.00    +0.000 C 
ENDBRANCH   6  23
TORSDOF 6
ENDMDL
MODEL 8
REMARK VINA RESULT:      -6.2      0.541      1.064
REMARK  Name = 
REMARK  6 active torsions:
REMARK  status: ('A' for Active; 'I' for Inactive)
REMARK    1  A    between atoms: O_1  and  C_2
REMARK    2  A    between atoms: C_2  and  C_3
REMARK    3  A    between atoms: C_3  and  N_4
REMARK    4  A    between atoms: N_7  and  C_8
REMARK    5  A    between atoms: C_10  and  C_11
REMARK    6  A    between atoms: C_19  and  N_20
REMARK                            x       y       z     vdW  Elec       q    Type
REMARK                         _______ _______ _______ _____ _____    ______ ____
ROOT
ATOM      1  C   UNL     1       3.190   5.970  19.275  0.00  0.00    +0.000 A 
ATOM      2  N   UNL     1       2.706   7.202  19.618  0.00  0.00    +0.000 NA
ATOM      3  C   UNL     1       1.661   7.268  20.482  0.00  0.00    +0.000 A 
ATOM      4  C   UNL     1       1.121   6.107  21.005  0.00  0.00    +0.000 A 
ATOM      5  N   UNL     1       1.596   4.869  20.734  0.00  0.00    +0.000 NA
ATOM      6  C   UNL     1       2.651   4.782  19.881  0.00  0.00    +0.000 A 
ENDROOT
BRANCH   1  10
ATOM      7  N   UNL     1       6.266   6.401  16.284  0.00  0.00    +0.000 NA
ATOM      8  C   UNL     1       5.154   7.363  16.453  0.00  0.00    +0.000 C 
ATOM      9  C   UNL     1       3.861   6.736  16.999  0.00  0.00    +0.000 C 
ATOM     10  N   UNL     1       4.096   5.979  18.225  0.00  0.00    +0.000 N 
ATOM     11  C   UNL     1       5.283   5.124  18.299  0.00  0.00    +0.000 C 
ATOM     12  C   UNL     1       6.508   5.789  17.619  0.00  0.00    +0.000 C 
BRANCH   7  13
ATOM     13  C   UNL     1       5.997   5.352  15.275  0.00  0.00    +0.000 C 
BRANCH  13  14
ATOM     14  C   UNL     1       7.248   4.683  14.682  0.00  0.00    +0.000 C 
BRANCH  14  15
ATOM     15  O   UNL     1       7.993   5.639  13.927  0.00  0.00    +0.000 OA
ATOM     16  H   UNL     1       7.445   6.441  13.873  0.00  0.00    +0.000 HD
ENDBRANCH  14  15
ENDBRANCH  13  14
ENDBRANCH   7  13
ENDBRANCH   1  10
BRANCH   3  17
ATOM     17  C   UNL     1       1.112   8.620  20.743  0.00  0.00    +0.000 A 
ATOM     18  C   UNL     1       0.648   8.975  22.019  0.00  0.00    +0.000 A 
ATOM     19  C   UNL     1       0.175  10.260  22.240  0.00  0.00    +0.000 A 
ATOM     20  N   UNL     1       0.127  11.215  21.289  0.00  0.00    +0.000 NA
ATOM     21  C   UNL     1       0.557  10.865  20.063  0.00  0.00    +0.000 A 
ATOM     22  C   UNL     1       1.049   9.606  19.747  0.00  0.00    +0.000 A 
ENDBRANCH   3  17
BRANCH   6  23
ATOM     23  N   UNL     1       3.102   3.513  19.613  0.00  0.00    +0.000 N 
ATOM     24  C   UNL     1       3.651   2.594  20.592  0.00  0.00    +0.000 C 
ATOM     25  C   UNL     1       4.438   1.681  19.650  0.00  0.00    +0.000 C 
ATOM     26  C   UNL     1       3.444   1.469  18.506  0.00  0.00    +0.000 C 
ATOM     27  C   UNL     1       2.598   2.756  18.478  0.00  0.00    +0.000 C 
ENDBRANCH   6  23
TORSDOF 6
ENDMDL
MODEL 9
REMARK VINA RESULT:      -6.1      2.560      4.703
REMARK  Name = 
REMARK  6 active torsions:
REMARK  status: ('A' for Active; 'I' for Inactive)
REMARK    1  A    between atoms: O_1  and  C_2
REMARK    2  A    between atoms: C_2  and  C_3
REMARK    3  A    between atoms: C_3  and  N_4
REMARK    4  A    between atoms: N_7  and  C_8
REMARK    5  A    between atoms: C_10  and  C_11
REMARK    6  A    between atoms: C_19  and  N_20
REMARK                            x       y       z     vdW  Elec       q    Type
REMARK                         _______ _______ _______ _____ _____    ______ ____
ROOT
ATOM      1  C   UNL     1       3.132   5.971  17.943  0.00  0.00    +0.000 A 
ATOM      2  N   UNL     1       2.157   6.808  18.410  0.00  0.00    +0.000 NA
ATOM      3  C   UNL     1       2.310   8.145  18.230  0.00  0.00    +0.000 A 
ATOM      4  C   UNL     1       3.426   8.629  17.571  0.00  0.00    +0.000 A 
ATOM      5  N   UNL     1       4.392   7.840  17.047  0.00  0.00    +0.000 NA
ATOM      6  C   UNL     1       4.250   6.498  17.206  0.00  0.00    +0.000 A 
ENDROOT
BRANCH   1  10
ATOM      7  N   UNL     1       3.267   1.805  19.048  0.00  0.00    +0.000 NA
ATOM      8  C   UNL     1       3.058   2.274  17.659  0.00  0.00    +0.000 C 
ATOM      9  C   UNL     1       2.352   3.635  17.557  0.00  0.00    +0.000 C 
ATOM     10  N   UNL     1       3.013   4.656  18.365  0.00  0.00    +0.000 N 
ATOM     11  C   UNL     1       3.474   4.292  19.707  0.00  0.00    +0.000 C 
ATOM     12  C   UNL     1       4.063   2.858  19.738  0.00  0.00    +0.000 C 
BRANCH   7  13
ATOM     13  C   UNL     1       2.010   1.542  19.783  0.00  0.00    +0.000 C 
BRANCH  13  14
ATOM     14  C   UNL     1       1.835   2.347  21.082  0.00  0.00    +0.000 C 
BRANCH  14  15
ATOM     15  O   UNL     1       0.634   3.117  21.011  0.00  0.00    +0.000 OA
ATOM     16  H   UNL     1       0.448   3.427  21.914  0.00  0.00    +0.000 HD
ENDBRANCH  14  15
ENDBRANCH  13  14
ENDBRANCH   7  13
ENDBRANCH   1  10
BRANCH   3  17
ATOM     17  C   UNL     1       1.275   9.012  18.842  0.00  0.00    +0.000 A 
ATOM     18  C   UNL     1       0.455   9.825  18.046  0.00  0.00    +0.000 A 
ATOM     19  C   UNL     1      -0.529  10.596  18.647  0.00  0.00    +0.000 A 
ATOM     20  N   UNL     1      -0.755  10.621  19.976  0.00  0.00    +0.000 NA
ATOM     21  C   UNL     1       0.046   9.852  20.737  0.00  0.00    +0.000 A 
ATOM     22  C   UNL     1       1.054   9.046  20.227  0.00  0.00    +0.000 A 
ENDBRANCH   3  17
BRANCH   6  23
ATOM     23  N   UNL     1       5.253   5.722  16.679  0.00  0.00    +0.000 N 
ATOM     24  C   UNL     1       5.505   5.527  15.264  0.00  0.00    +0.000 C 
ATOM     25  C   UNL     1       6.294   4.218  15.338  0.00  0.00    +0.000 C 
ATOM     26  C   UNL     1       7.241   4.481  16.511  0.00  0.00    +0.000 C 
ATOM     27  C   UNL     1       6.475   5.458  17.423  0.00  0.00    +0.000 C 
ENDBRANCH   6  23
TORSDOF 6
ENDMDL
