MODEL 1
REMARK VINA RESULT:      -7.0      0.000      0.000
REMARK  Name = 
REMARK  8 active torsions:
REMARK  status: ('A' for Active; 'I' for Inactive)
REMARK    1  A    between atoms: C_1  and  C_2
REMARK    2  A    between atoms: C_2  and  C_3
REMARK    3  A    between atoms: C_3  and  C_4
REMARK    4  A    between atoms: C_3  and  C_6
REMARK    5  A    between atoms: C_4  and  C_5
REMARK    6  A    between atoms: C_8  and  N_9
REMARK    7  A    between atoms: N_12  and  C_13
REMARK    8  A    between atoms: C_13  and  C_14
REMARK                            x       y       z     vdW  Elec       q    Type
REMARK                         _______ _______ _______ _____ _____    ______ ____
ROOT
ATOM      1  N   UNL     1       4.362   3.131  17.370  0.00  0.00    +0.000 N 
ATOM      2  C   UNL     1       4.373   2.964  18.722  0.00  0.00    +0.000 C 
ATOM      3  O   UNL     1       5.209   3.472  19.467  0.00  0.00    +0.000 OA
ATOM      4  N   UNL     1       3.312   2.217  19.181  0.00  0.00    +0.000 N 
ATOM      5  H   UNL     1       4.084   2.302  16.854  0.00  0.00    +0.000 HD
ATOM      6  H   UNL     1       2.486   2.293  18.624  0.00  0.00    +0.000 HD
ENDROOT
BRANCH   1   9
ATOM      7  C   UNL     1       6.010   6.367  16.153  0.00  0.00    +0.000 C 
ATOM      8  C   UNL     1       4.932   5.461  16.750  0.00  0.00    +0.000 C 
ATOM      9  C   UNL     1       5.373   4.001  16.771  0.00  0.00    +0.000 C 
ATOM     10  C   UNL     1       5.775   3.547  15.370  0.00  0.00    +0.000 C 
ATOM     11  C   UNL     1       6.705   4.544  14.681  0.00  0.00    +0.000 C 
ATOM     12  O   UNL     1       6.311   5.906  14.825  0.00  0.00    +0.000 OA
BRANCH   7  13
ATOM     13  C   UNL     1       7.275   6.651  17.031  0.00  0.00    +0.000 C 
BRANCH  13  15
ATOM     14  C   UNL     1       8.271   8.913  17.844  0.00  0.00    +0.000 C 
ATOM     15  C   UNL     1       7.065   7.985  17.795  0.00  0.00    +0.000 C 
ENDBRANCH  13  15
BRANCH  13  16
ATOM     16  C   UNL     1       7.665   5.495  18.000  0.00  0.00    +0.000 C 
ATOM     17  C   UNL     1       7.746   5.813  19.489  0.00  0.00    +0.000 C 
ENDBRANCH  13  16
ENDBRANCH   7  13
ENDBRANCH   1   9
BRANCH   4  18
ATOM     18  C   UNL     1       3.165   1.991  20.617  0.00  0.00    +0.000 C 
BRANCH  18  19
ATOM     19  C   UNL     1       1.842   2.543  21.185  0.00  0.00    +0.000 C 
ATOM     20  C   UNL     1       0.952   3.155  20.121  0.00  0.00    +0.000 C 
ATOM     21  O   UNL     1       1.502   4.454  19.907  0.00  0.00    +0.000 OA
ATOM     22  C   UNL     1       2.104   4.801  21.159  0.00  0.00    +0.000 C 
ATOM     23  O   UNL     1       2.099   3.669  22.037  0.00  0.00    +0.000 OA
ENDBRANCH  18  19
ENDBRANCH   4  18
TORSDOF 6
ENDMDL
MODEL 2
REMARK VINA RESULT:      -6.8      1.198      1.326
REMARK  Name = 
REMARK  8 active torsions:
REMARK  status: ('A' for Active; 'I' for Inactive)
REMARK    1  A    between atoms: C_1  and  C_2
REMARK    2  A    between atoms: C_2  and  C_3
REMARK    3  A    between atoms: C_3  and  C_4
REMARK    4  A    between atoms: C_3  and  C_6
REMARK    5  A    between atoms: C_4  and  C_5
REMARK    6  A    between atoms: C_8  and  N_9
REMARK    7  A    between atoms: N_12  and  C_13
REMARK    8  A    between atoms: C_13  and  C_14
REMARK                            x       y       z     vdW  Elec       q    Type
REMARK                         _______ _______ _______ _____ _____    ______ ____
ROOT
ATOM      1  N   UNL     1       3.623   4.568  17.003  0.00  0.00    +0.000 N 
ATOM      2  C   UNL     1       3.316   3.587  17.898  0.00  0.00    +0.000 C 
ATOM      3  O   UNL     1       4.159   2.941  18.519  0.00  0.00    +0.000 OA
ATOM      4  N   UNL     1       1.962   3.432  18.084  0.00  0.00    +0.000 N 
ATOM      5  H   UNL     1       3.009   4.597  16.196  0.00  0.00    +0.000 HD
ATOM      6  H   UNL     1       1.432   4.270  17.956  0.00  0.00    +0.000 HD
ENDROOT
BRANCH   1   9
ATOM      7  C   UNL     1       6.687   6.691  16.121  0.00  0.00    +0.000 C 
ATOM      8  C   UNL     1       5.210   6.335  16.295  0.00  0.00    +0.000 C 
ATOM      9  C   UNL     1       5.031   4.908  16.803  0.00  0.00    +0.000 C 
ATOM     10  C   UNL     1       5.741   3.922  15.880  0.00  0.00    +0.000 C 
ATOM     11  C   UNL     1       7.163   4.365  15.539  0.00  0.00    +0.000 C 
ATOM     12  O   UNL     1       7.281   5.748  15.213  0.00  0.00    +0.000 OA
BRANCH   7  13
ATOM     13  C   UNL     1       7.523   6.936  17.422  0.00  0.00    +0.000 C 
BRANCH  13  15
ATOM     14  C   UNL     1       8.714   8.902  18.642  0.00  0.00    +0.000 C 
ATOM     15  C   UNL     1       7.627   8.464  17.669  0.00  0.00    +0.000 C 
ENDBRANCH  13  15
BRANCH  13  16
ATOM     16  C   UNL     1       6.995   6.190  18.683  0.00  0.00    +0.000 C 
ATOM     17  C   UNL     1       8.005   5.424  19.531  0.00  0.00    +0.000 C 
ENDBRANCH  13  16
ENDBRANCH   7  13
ENDBRANCH   1   9
BRANCH   4  18
ATOM     18  C   UNL     1       1.481   2.447  19.050  0.00  0.00    +0.000 C 
BRANCH  18  19
ATOM     19  C   UNL     1       0.744   3.080  20.246  0.00  0.00    +0.000 C 
ATOM     20  C   UNL     1       1.047   4.555  20.413  0.00  0.00    +0.000 C 
ATOM     21  O   UNL     1       2.314   4.581  21.070  0.00  0.00    +0.000 OA
ATOM     22  C   UNL     1       2.352   3.366  21.826  0.00  0.00    +0.000 C 
ATOM     23  O   UNL     1       1.237   2.536  21.479  0.00  0.00    +0.000 OA
ENDBRANCH  18  19
ENDBRANCH   4  18
TORSDOF 6
ENDMDL
MODEL 3
REMARK VINA RESULT:      -6.6      3.930      7.410
REMARK  Name = 
REMARK  8 active torsions:
REMARK  status: ('A' for Active; 'I' for Inactive)
REMARK    1  A    between atoms: C_1  and  C_2
REMARK    2  A    between atoms: C_2  and  C_3
REMARK    3  A    between atoms: C_3  and  C_4
REMARK    4  A    between atoms: C_3  and  C_6
REMARK    5  A    between atoms: C_4  and  C_5
REMARK    6  A    between atoms: C_8  and  N_9
REMARK    7  A    between atoms: N_12  and  C_13
REMARK    8  A    between atoms: C_13  and  C_14
REMARK                            x       y       z     vdW  Elec       q    Type
REMARK                         _______ _______ _______ _____ _____    ______ ____
ROOT
ATOM      1  N   UNL     1       7.633   6.531  18.278  0.00  0.00    +0.000 N 
ATOM      2  C   UNL     1       7.762   7.855  17.981  0.00  0.00    +0.000 C 
ATOM      3  O   UNL     1       7.051   8.445  17.168  0.00  0.00    +0.000 OA
ATOM      4  N   UNL     1       8.730   8.483  18.730  0.00  0.00    +0.000 N 
ATOM      5  H   UNL     1       8.516   6.057  18.439  0.00  0.00    +0.000 HD
ATOM      6  H   UNL     1       8.866   8.089  19.637  0.00  0.00    +0.000 HD
ENDROOT
BRANCH   1   9
ATOM      7  C   UNL     1       4.694   4.099  17.932  0.00  0.00    +0.000 C 
ATOM      8  C   UNL     1       5.836   4.859  18.611  0.00  0.00    +0.000 C 
ATOM      9  C   UNL     1       6.560   5.777  17.632  0.00  0.00    +0.000 C 
ATOM     10  C   UNL     1       7.054   4.984  16.424  0.00  0.00    +0.000 C 
ATOM     11  C   UNL     1       5.973   4.069  15.849  0.00  0.00    +0.000 C 
ATOM     12  O   UNL     1       5.235   3.347  16.832  0.00  0.00    +0.000 OA
BRANCH   7  13
ATOM     13  C   UNL     1       3.405   4.913  17.576  0.00  0.00    +0.000 C 
BRANCH  13  15
ATOM     14  C   UNL     1       1.345   3.786  18.697  0.00  0.00    +0.000 C 
ATOM     15  C   UNL     1       2.211   3.930  17.453  0.00  0.00    +0.000 C 
ENDBRANCH  13  15
BRANCH  13  16
ATOM     16  C   UNL     1       3.083   6.080  18.555  0.00  0.00    +0.000 C 
ATOM     17  C   UNL     1       2.951   7.483  17.970  0.00  0.00    +0.000 C 
ENDBRANCH  13  16
ENDBRANCH   7  13
ENDBRANCH   1   9
BRANCH   4  18
ATOM     18  C   UNL     1       8.951   9.917  18.553  0.00  0.00    +0.000 C 
BRANCH  18  19
ATOM     19  C   UNL     1       9.909  10.516  19.602  0.00  0.00    +0.000 C 
ATOM     20  C   UNL     1       9.205  11.418  20.597  0.00  0.00    +0.000 C 
ATOM     21  O   UNL     1       9.054  12.655  19.903  0.00  0.00    +0.000 OA
ATOM     22  C   UNL     1      10.151  12.690  18.984  0.00  0.00    +0.000 C 
ATOM     23  O   UNL     1      10.825  11.426  18.976  0.00  0.00    +0.000 OA
ENDBRANCH  18  19
ENDBRANCH   4  18
TORSDOF 6
ENDMDL
MODEL 4
REMARK VINA RESULT:      -6.4      1.693      3.184
REMARK  Name = 
REMARK  8 active torsions:
REMARK  status: ('A' for Active; 'I' for Inactive)
REMARK    1  A    between atoms: C_1  and  C_2
REMARK    2  A    between atoms: C_2  and  C_3
REMARK    3  A    between atoms: C_3  and  C_4
REMARK    4  A    between atoms: C_3  and  C_6
REMARK    5  A    between atoms: C_4  and  C_5
REMARK    6  A    between atoms: C_8  and  N_9
REMARK    7  A    between atoms: N_12  and  C_13
REMARK    8  A    between atoms: C_13  and  C_14
REMARK                            x       y       z     vdW  Elec       q    Type
REMARK                         _______ _______ _______ _____ _____    ______ ____
ROOT
ATOM      1  N   UNL     1       4.301   3.102  17.229  0.00  0.00    +0.000 N 
ATOM      2  C   UNL     1       4.391   3.264  18.579  0.00  0.00    +0.000 C 
ATOM      3  O   UNL     1       4.976   4.202  19.118  0.00  0.00    +0.000 OA
ATOM      4  N   UNL     1       3.703   2.302  19.284  0.00  0.00    +0.000 N 
ATOM      5  H   UNL     1       4.358   2.135  16.925  0.00  0.00    +0.000 HD
ATOM      6  H   UNL     1       2.905   1.937  18.807  0.00  0.00    +0.000 HD
ENDROOT
BRANCH   1   9
ATOM      7  C   UNL     1       7.009   5.012  15.307  0.00  0.00    +0.000 C 
ATOM      8  C   UNL     1       6.404   3.958  16.236  0.00  0.00    +0.000 C 
ATOM      9  C   UNL     1       4.894   4.124  16.368  0.00  0.00    +0.000 C 
ATOM     10  C   UNL     1       4.552   5.540  16.827  0.00  0.00    +0.000 C 
ATOM     11  C   UNL     1       5.302   6.606  16.030  0.00  0.00    +0.000 C 
ATOM     12  O   UNL     1       6.682   6.315  15.819  0.00  0.00    +0.000 OA
BRANCH   7  13
ATOM     13  C   UNL     1       6.749   4.847  13.772  0.00  0.00    +0.000 C 
BRANCH  13  15
ATOM     14  C   UNL     1       7.865   6.079  11.770  0.00  0.00    +0.000 C 
ATOM     15  C   UNL     1       8.049   5.206  13.004  0.00  0.00    +0.000 C 
ENDBRANCH  13  15
BRANCH  13  16
ATOM     16  C   UNL     1       6.208   3.449  13.352  0.00  0.00    +0.000 C 
ATOM     17  C   UNL     1       5.307   3.375  12.123  0.00  0.00    +0.000 C 
ENDBRANCH  13  16
ENDBRANCH   7  13
ENDBRANCH   1   9
BRANCH   4  18
ATOM     18  C   UNL     1       3.670   2.372  20.743  0.00  0.00    +0.000 C 
BRANCH  18  19
ATOM     19  C   UNL     1       2.265   2.665  21.304  0.00  0.00    +0.000 C 
ATOM     20  C   UNL     1       1.206   2.762  20.224  0.00  0.00    +0.000 C 
ATOM     21  O   UNL     1       1.363   4.079  19.696  0.00  0.00    +0.000 OA
ATOM     22  C   UNL     1       1.883   4.845  20.788  0.00  0.00    +0.000 C 
ATOM     23  O   UNL     1       2.222   3.979  21.878  0.00  0.00    +0.000 OA
ENDBRANCH  18  19
ENDBRANCH   4  18
TORSDOF 6
ENDMDL
MODEL 5
REMARK VINA RESULT:      -6.4      1.165      1.888
REMARK  Name = 
REMARK  8 active torsions:
REMARK  status: ('A' for Active; 'I' for Inactive)
REMARK    1  A    between atoms: C_1  and  C_2
REMARK    2  A    between atoms: C_2  and  C_3
REMARK    3  A    between atoms: C_3  and  C_4
REMARK    4  A    between atoms: C_3  and  C_6
REMARK    5  A    between atoms: C_4  and  C_5
REMARK    6  A    between atoms: C_8  and  N_9
REMARK    7  A    between atoms: N_12  and  C_13
REMARK    8  A    between atoms: C_13  and  C_14
REMARK                            x       y       z     vdW  Elec       q    Type
REMARK                         _______ _______ _______ _____ _____    ______ ____
ROOT
ATOM      1  N   UNL     1       3.592   4.250  17.047  0.00  0.00    +0.000 N 
ATOM      2  C   UNL     1       3.305   3.371  18.048  0.00  0.00    +0.000 C 
ATOM      3  O   UNL     1       4.139   2.952  18.850  0.00  0.00    +0.000 OA
ATOM      4  N   UNL     1       1.970   3.045  18.113  0.00  0.00    +0.000 N 
ATOM      5  H   UNL     1       3.086   4.072  16.185  0.00  0.00    +0.000 HD
ATOM      6  H   UNL     1       1.356   3.768  17.798  0.00  0.00    +0.000 HD
ENDROOT
BRANCH   1   9
ATOM      7  C   UNL     1       6.419   6.776  16.501  0.00  0.00    +0.000 C 
ATOM      8  C   UNL     1       4.988   6.241  16.572  0.00  0.00    +0.000 C 
ATOM      9  C   UNL     1       4.957   4.763  16.945  0.00  0.00    +0.000 C 
ATOM     10  C   UNL     1       5.812   3.952  15.974  0.00  0.00    +0.000 C 
ATOM     11  C   UNL     1       7.184   4.582  15.742  0.00  0.00    +0.000 C 
ATOM     12  O   UNL     1       7.153   5.993  15.543  0.00  0.00    +0.000 OA
BRANCH   7  13
ATOM     13  C   UNL     1       7.171   6.993  17.857  0.00  0.00    +0.000 C 
BRANCH  13  15
ATOM     14  C   UNL     1       8.020   5.545  19.846  0.00  0.00    +0.000 C 
ATOM     15  C   UNL     1       7.703   5.624  18.358  0.00  0.00    +0.000 C 
ENDBRANCH  13  15
BRANCH  13  16
ATOM     16  C   UNL     1       8.303   8.061  17.808  0.00  0.00    +0.000 C 
ATOM     17  C   UNL     1       7.899   9.530  17.869  0.00  0.00    +0.000 C 
ENDBRANCH  13  16
ENDBRANCH   7  13
ENDBRANCH   1   9
BRANCH   4  18
ATOM     18  C   UNL     1       1.504   2.147  19.166  0.00  0.00    +0.000 C 
BRANCH  18  19
ATOM     19  C   UNL     1       0.715   2.870  20.275  0.00  0.00    +0.000 C 
ATOM     20  C   UNL     1       0.921   4.372  20.263  0.00  0.00    +0.000 C 
ATOM     21  O   UNL     1       2.177   4.559  20.916  0.00  0.00    +0.000 OA
ATOM     22  C   UNL     1       2.285   3.449  21.813  0.00  0.00    +0.000 C 
ATOM     23  O   UNL     1       1.229   2.512  21.566  0.00  0.00    +0.000 OA
ENDBRANCH  18  19
ENDBRANCH   4  18
TORSDOF 6
ENDMDL
MODEL 6
REMARK VINA RESULT:      -6.3      0.585      1.483
REMARK  Name = 
REMARK  8 active torsions:
REMARK  status: ('A' for Active; 'I' for Inactive)
REMARK    1  A    between atoms: C_1  and  C_2
REMARK    2  A    between atoms: C_2  and  C_3
REMARK    3  A    between atoms: C_3  and  C_4
REMARK    4  A    between atoms: C_3  and  C_6
REMARK    5  A    between atoms: C_4  and  C_5
REMARK    6  A    between atoms: C_8  and  N_9
REMARK    7  A    between atoms: N_12  and  C_13
REMARK    8  A    between atoms: C_13  and  C_14
REMARK                            x       y       z     vdW  Elec       q    Type
REMARK                         _______ _______ _______ _____ _____    ______ ____
ROOT
ATOM      1  N   UNL     1       4.416   3.091  17.306  0.00  0.00    +0.000 N 
ATOM      2  C   UNL     1       4.124   2.945  18.629  0.00  0.00    +0.000 C 
ATOM      3  O   UNL     1       4.664   3.593  19.524  0.00  0.00    +0.000 OA
ATOM      4  N   UNL     1       3.115   2.039  18.861  0.00  0.00    +0.000 N 
ATOM      5  H   UNL     1       4.406   2.221  16.784  0.00  0.00    +0.000 HD
ATOM      6  H   UNL     1       2.447   1.971  18.121  0.00  0.00    +0.000 HD
ENDROOT
BRANCH   1   9
ATOM      7  C   UNL     1       5.816   6.565  16.506  0.00  0.00    +0.000 C 
ATOM      8  C   UNL     1       4.779   5.504  16.878  0.00  0.00    +0.000 C 
ATOM      9  C   UNL     1       5.393   4.108  16.921  0.00  0.00    +0.000 C 
ATOM     10  C   UNL     1       6.074   3.786  15.593  0.00  0.00    +0.000 C 
ATOM     11  C   UNL     1       6.970   4.925  15.109  0.00  0.00    +0.000 C 
ATOM     12  O   UNL     1       6.388   6.220  15.232  0.00  0.00    +0.000 OA
BRANCH   7  13
ATOM     13  C   UNL     1       6.873   6.947  17.596  0.00  0.00    +0.000 C 
BRANCH  13  15
ATOM     14  C   UNL     1       7.870   5.618  19.599  0.00  0.00    +0.000 C 
ATOM     15  C   UNL     1       7.552   5.650  18.110  0.00  0.00    +0.000 C 
ENDBRANCH  13  15
BRANCH  13  16
ATOM     16  C   UNL     1       7.927   7.998  17.139  0.00  0.00    +0.000 C 
ATOM     17  C   UNL     1       8.224   9.162  18.079  0.00  0.00    +0.000 C 
ENDBRANCH  13  16
ENDBRANCH   7  13
ENDBRANCH   1   9
BRANCH   4  18
ATOM     18  C   UNL     1       2.660   1.810  20.231  0.00  0.00    +0.000 C 
BRANCH  18  19
ATOM     19  C   UNL     1       1.258   2.387  20.509  0.00  0.00    +0.000 C 
ATOM     20  C   UNL     1       0.700   3.172  19.339  0.00  0.00    +0.000 C 
ATOM     21  O   UNL     1       1.337   4.446  19.435  0.00  0.00    +0.000 OA
ATOM     22  C   UNL     1       1.605   4.609  20.832  0.00  0.00    +0.000 C 
ATOM     23  O   UNL     1       1.327   3.391  21.532  0.00  0.00    +0.000 OA
ENDBRANCH  18  19
ENDBRANCH   4  18
TORSDOF 6
ENDMDL
MODEL 7
REMARK VINA RESULT:      -6.3      3.877      5.473
REMARK  Name = 
REMARK  8 active torsions:
REMARK  status: ('A' for Active; 'I' for Inactive)
REMARK    1  A    between atoms: C_1  and  C_2
REMARK    2  A    between atoms: C_2  and  C_3
REMARK    3  A    between atoms: C_3  and  C_4
REMARK    4  A    between atoms: C_3  and  C_6
REMARK    5  A    between atoms: C_4  and  C_5
REMARK    6  A    between atoms: C_8  and  N_9
REMARK    7  A    between atoms: N_12  and  C_13
REMARK    8  A    between atoms: C_13  and  C_14
REMARK                            x       y       z     vdW  Elec       q    Type
REMARK                         _______ _______ _______ _____ _____    ______ ____
ROOT
ATOM      1  N   UNL     1       2.132   5.548  20.592  0.00  0.00    +0.000 N 
ATOM      2  C   UNL     1       1.980   6.876  20.325  0.00  0.00    +0.000 C 
ATOM      3  O   UNL     1       2.614   7.477  19.459  0.00  0.00    +0.000 OA
ATOM      4  N   UNL     1       0.995   7.468  21.083  0.00  0.00    +0.000 N 
ATOM      5  H   UNL     1       2.062   5.315  21.577  0.00  0.00    +0.000 HD
ATOM      6  H   UNL     1       0.254   6.852  21.344  0.00  0.00    +0.000 HD
ENDROOT
BRANCH   1   9
ATOM      7  C   UNL     1       3.698   4.034  17.441  0.00  0.00    +0.000 C 
ATOM      8  C   UNL     1       2.695   4.813  18.293  0.00  0.00    +0.000 C 
ATOM      9  C   UNL     1       3.068   4.780  19.772  0.00  0.00    +0.000 C 
ATOM     10  C   UNL     1       3.212   3.338  20.252  0.00  0.00    +0.000 C 
ATOM     11  C   UNL     1       4.059   2.492  19.303  0.00  0.00    +0.000 C 
ATOM     12  O   UNL     1       3.755   2.681  17.923  0.00  0.00    +0.000 OA
BRANCH   7  13
ATOM     13  C   UNL     1       5.102   4.688  17.211  0.00  0.00    +0.000 C 
BRANCH  13  15
ATOM     14  C   UNL     1       5.471   4.405  14.651  0.00  0.00    +0.000 C 
ATOM     15  C   UNL     1       5.820   3.939  16.058  0.00  0.00    +0.000 C 
ENDBRANCH  13  15
BRANCH  13  16
ATOM     16  C   UNL     1       5.069   6.224  16.958  0.00  0.00    +0.000 C 
ATOM     17  C   UNL     1       6.343   7.018  17.228  0.00  0.00    +0.000 C 
ENDBRANCH  13  16
ENDBRANCH   7  13
ENDBRANCH   1   9
BRANCH   4  18
ATOM     18  C   UNL     1       0.686   8.881  20.876  0.00  0.00    +0.000 C 
BRANCH  18  19
ATOM     19  C   UNL     1       1.035   9.762  22.091  0.00  0.00    +0.000 C 
ATOM     20  C   UNL     1       0.159   9.481  23.296  0.00  0.00    +0.000 C 
ATOM     21  O   UNL     1      -1.051  10.186  23.023  0.00  0.00    +0.000 OA
ATOM     22  C   UNL     1      -0.648  11.285  22.199  0.00  0.00    +0.000 C 
ATOM     23  O   UNL     1       0.724  11.136  21.815  0.00  0.00    +0.000 OA
ENDBRANCH  18  19
ENDBRANCH   4  18
TORSDOF 6
ENDMDL
MODEL 8
REMARK VINA RESULT:      -6.3      5.129      8.295
REMARK  Name = 
REMARK  8 active torsions:
REMARK  status: ('A' for Active; 'I' for Inactive)
REMARK    1  A    between atoms: C_1  and  C_2
REMARK    2  A    between atoms: C_2  and  C_3
REMARK    3  A    between atoms: C_3  and  C_4
REMARK    4  A    between atoms: C_3  and  C_6
REMARK    5  A    between atoms: C_4  and  C_5
REMARK    6  A    between atoms: C_8  and  N_9
REMARK    7  A    between atoms: N_12  and  C_13
REMARK    8  A    between atoms: C_13  and  C_14
REMARK                            x       y       z     vdW  Elec       q    Type
REMARK                         _______ _______ _______ _____ _____    ______ ____
ROOT
ATOM      1  N   UNL     1       9.335   9.722  19.567  0.00  0.00    +0.000 N 
ATOM      2  C   UNL     1       8.518   9.285  18.568  0.00  0.00    +0.000 C 
ATOM      3  O   UNL     1       7.975  10.030  17.753  0.00  0.00    +0.000 OA
ATOM      4  N   UNL     1       8.409   7.914  18.522  0.00  0.00    +0.000 N 
ATOM      5  H   UNL     1       9.236   9.207  20.436  0.00  0.00    +0.000 HD
ATOM      6  H   UNL     1       9.219   7.428  18.847  0.00  0.00    +0.000 HD
ENDROOT
BRANCH   1   9
ATOM      7  C   UNL     1      11.219  13.015  19.038  0.00  0.00    +0.000 C 
ATOM      8  C   UNL     1      10.943  11.512  18.974  0.00  0.00    +0.000 C 
ATOM      9  C   UNL     1       9.624  11.153  19.650  0.00  0.00    +0.000 C 
ATOM     10  C   UNL     1       9.605  11.667  21.087  0.00  0.00    +0.000 C 
ATOM     11  C   UNL     1      10.066  13.120  21.191  0.00  0.00    +0.000 C 
ATOM     12  O   UNL     1      11.225  13.422  20.417  0.00  0.00    +0.000 OA
BRANCH   7  13
ATOM     13  C   UNL     1      10.366  13.940  18.104  0.00  0.00    +0.000 C 
BRANCH  13  15
ATOM     14  C   UNL     1      11.081  16.045  16.753  0.00  0.00    +0.000 C 
ATOM     15  C   UNL     1      11.298  14.564  17.032  0.00  0.00    +0.000 C 
ENDBRANCH  13  15
BRANCH  13  16
ATOM     16  C   UNL     1       9.134  13.245  17.453  0.00  0.00    +0.000 C 
ATOM     17  C   UNL     1       7.748  13.770  17.813  0.00  0.00    +0.000 C 
ENDBRANCH  13  16
ENDBRANCH   7  13
ENDBRANCH   1   9
BRANCH   4  18
ATOM     18  C   UNL     1       7.601   7.295  17.474  0.00  0.00    +0.000 C 
BRANCH  18  19
ATOM     19  C   UNL     1       6.833   6.050  17.956  0.00  0.00    +0.000 C 
ATOM     20  C   UNL     1       7.736   4.859  18.208  0.00  0.00    +0.000 C 
ATOM     21  O   UNL     1       7.972   4.316  16.910  0.00  0.00    +0.000 OA
ATOM     22  C   UNL     1       6.804   4.661  16.158  0.00  0.00    +0.000 C 
ATOM     23  O   UNL     1       5.980   5.557  16.912  0.00  0.00    +0.000 OA
ENDBRANCH  18  19
ENDBRANCH   4  18
TORSDOF 6
ENDMDL
MODEL 9
REMARK VINA RESULT:      -6.2      2.319      6.282
REMARK  Name = 
REMARK  8 active torsions:
REMARK  status: ('A' for Active; 'I' for Inactive)
REMARK    1  A    between atoms: C_1  and  C_2
REMARK    2  A    between atoms: C_2  and  C_3
REMARK    3  A    between atoms: C_3  and  C_4
REMARK    4  A    between atoms: C_3  and  C_6
REMARK    5  A    between atoms: C_4  and  C_5
REMARK    6  A    between atoms: C_8  and  N_9
REMARK    7  A    between atoms: N_12  and  C_13
REMARK    8  A    between atoms: C_13  and  C_14
REMARK                            x       y       z     vdW  Elec       q    Type
REMARK                         _______ _______ _______ _____ _____    ______ ____
ROOT
ATOM      1  N   UNL     1       3.738   3.523  17.957  0.00  0.00    +0.000 N 
ATOM      2  C   UNL     1       4.387   4.254  17.008  0.00  0.00    +0.000 C 
ATOM      3  O   UNL     1       4.136   5.433  16.763  0.00  0.00    +0.000 OA
ATOM      4  N   UNL     1       5.400   3.556  16.390  0.00  0.00    +0.000 N 
ATOM      5  H   UNL     1       3.580   2.555  17.696  0.00  0.00    +0.000 HD
ATOM      6  H   UNL     1       5.830   2.863  16.967  0.00  0.00    +0.000 HD
ENDROOT
BRANCH   1   9
ATOM      7  C   UNL     1       2.248   5.690  20.742  0.00  0.00    +0.000 C 
ATOM      8  C   UNL     1       3.322   4.972  19.924  0.00  0.00    +0.000 C 
ATOM      9  C   UNL     1       2.716   4.188  18.765  0.00  0.00    +0.000 C 
ATOM     10  C   UNL     1       1.656   3.215  19.277  0.00  0.00    +0.000 C 
ATOM     11  C   UNL     1       0.684   3.877  20.252  0.00  0.00    +0.000 C 
ATOM     12  O   UNL     1       1.309   4.713  21.223  0.00  0.00    +0.000 OA
BRANCH   7  13
ATOM     13  C   UNL     1       1.581   6.952  20.098  0.00  0.00    +0.000 C 
BRANCH  13  15
ATOM     14  C   UNL     1      -0.118   8.369  21.467  0.00  0.00    +0.000 C 
ATOM     15  C   UNL     1       1.339   8.010  21.206  0.00  0.00    +0.000 C 
ENDBRANCH  13  15
BRANCH  13  16
ATOM     16  C   UNL     1       2.363   7.557  18.895  0.00  0.00    +0.000 C 
ATOM     17  C   UNL     1       1.798   8.811  18.237  0.00  0.00    +0.000 C 
ENDBRANCH  13  16
ENDBRANCH   7  13
ENDBRANCH   1   9
BRANCH   4  18
ATOM     18  C   UNL     1       6.216   4.226  15.380  0.00  0.00    +0.000 C 
BRANCH  18  19
ATOM     19  C   UNL     1       7.588   4.681  15.915  0.00  0.00    +0.000 C 
ATOM     20  C   UNL     1       7.739   4.476  17.409  0.00  0.00    +0.000 C 
ATOM     21  O   UNL     1       7.050   5.584  17.987  0.00  0.00    +0.000 OA
ATOM     22  C   UNL     1       7.162   6.625  17.011  0.00  0.00    +0.000 C 
ATOM     23  O   UNL     1       7.719   6.106  15.799  0.00  0.00    +0.000 OA
ENDBRANCH  18  19
ENDBRANCH   4  18
TORSDOF 6
ENDMDL
