MODEL 1
REMARK VINA RESULT:      -5.7      0.000      0.000
REMARK  Name = 
REMARK  5 active torsions:
REMARK  status: ('A' for Active; 'I' for Inactive)
REMARK    1  A    between atoms: C_1  and  C_2
REMARK    2  A    between atoms: C_7  and  C_8
REMARK    3  A    between atoms: C_8  and  C_9
REMARK    4  A    between atoms: C_9  and  C_10
REMARK    5  A    between atoms: C_10  and  O_12
REMARK                            x       y       z     vdW  Elec       q    Type
REMARK                         _______ _______ _______ _____ _____    ______ ____
ROOT
ATOM      1  C   UNL     1       2.513   6.513  18.381  0.00  0.00    +0.000 C 
ATOM      2  C   UNL     1       2.522   5.026  18.185  0.00  0.00    +0.000 A 
ATOM      3  C   UNL     1       1.512   4.251  18.770  0.00  0.00    +0.000 A 
ATOM      4  C   UNL     1       1.506   2.872  18.609  0.00  0.00    +0.000 A 
ATOM      5  C   UNL     1       2.501   2.305  17.839  0.00  0.00    +0.000 A 
ATOM      6  N   UNL     1       3.477   3.017  17.229  0.00  0.00    +0.000 NA
ATOM      7  C   UNL     1       3.501   4.362  17.432  0.00  0.00    +0.000 A 
ENDROOT
BRANCH   7   8
ATOM      8  C   UNL     1       4.685   5.076  16.819  0.00  0.00    +0.000 C 
BRANCH   8   9
ATOM      9  C   UNL     1       5.780   4.122  16.361  0.00  0.00    +0.000 C 
BRANCH   9  10
ATOM     10  C   UNL     1       7.127   4.791  16.398  0.00  0.00    +0.000 C 
ATOM     11  O   UNL     1       7.398   5.804  15.773  0.00  0.00    +0.000 OA
BRANCH  10  12
ATOM     12  O   UNL     1       8.027   4.141  17.164  0.00  0.00    +0.000 OA
ATOM     13  H   UNL     1       8.130   4.542  18.053  0.00  0.00    +0.000 HD
ENDBRANCH  10  12
ENDBRANCH   9  10
ENDBRANCH   8   9
ENDBRANCH   7   8
TORSDOF 4
ENDMDL
MODEL 2
REMARK VINA RESULT:      -5.5      3.129      4.855
REMARK  Name = 
REMARK  5 active torsions:
REMARK  status: ('A' for Active; 'I' for Inactive)
REMARK    1  A    between atoms: C_1  and  C_2
REMARK    2  A    between atoms: C_7  and  C_8
REMARK    3  A    between atoms: C_8  and  C_9
REMARK    4  A    between atoms: C_9  and  C_10
REMARK    5  A    between atoms: C_10  and  O_12
REMARK                            x       y       z     vdW  Elec       q    Type
REMARK                         _______ _______ _______ _____ _____    ______ ____
ROOT
ATOM      1  C   UNL     1       4.833   6.821  16.460  0.00  0.00    +0.000 C 
ATOM      2  C   UNL     1       5.774   6.393  17.548  0.00  0.00    +0.000 A 
ATOM      3  C   UNL     1       7.079   6.904  17.565  0.00  0.00    +0.000 A 
ATOM      4  C   UNL     1       7.970   6.516  18.556  0.00  0.00    +0.000 A 
ATOM      5  C   UNL     1       7.519   5.642  19.525  0.00  0.00    +0.000 A 
ATOM      6  N   UNL     1       6.260   5.150  19.567  0.00  0.00    +0.000 NA
ATOM      7  C   UNL     1       5.410   5.500  18.564  0.00  0.00    +0.000 A 
ENDROOT
BRANCH   7   8
ATOM      8  C   UNL     1       4.059   4.820  18.610  0.00  0.00    +0.000 C 
BRANCH   8   9
ATOM      9  C   UNL     1       4.086   3.410  18.035  0.00  0.00    +0.000 C 
BRANCH   9  10
ATOM     10  C   UNL     1       3.887   2.384  19.117  0.00  0.00    +0.000 C 
ATOM     11  O   UNL     1       2.801   1.914  19.415  0.00  0.00    +0.000 OA
BRANCH  10  12
ATOM     12  O   UNL     1       5.028   2.056  19.760  0.00  0.00    +0.000 OA
ATOM     13  H   UNL     1       5.260   1.108  19.662  0.00  0.00    +0.000 HD
ENDBRANCH  10  12
ENDBRANCH   9  10
ENDBRANCH   8   9
ENDBRANCH   7   8
TORSDOF 4
ENDMDL
MODEL 3
REMARK VINA RESULT:      -5.5      1.971      2.276
REMARK  Name = 
REMARK  5 active torsions:
REMARK  status: ('A' for Active; 'I' for Inactive)
REMARK    1  A    between atoms: C_1  and  C_2
REMARK    2  A    between atoms: C_7  and  C_8
REMARK    3  A    between atoms: C_8  and  C_9
REMARK    4  A    between atoms: C_9  and  C_10
REMARK    5  A    between atoms: C_10  and  O_12
REMARK                            x       y       z     vdW  Elec       q    Type
REMARK                         _______ _______ _______ _____ _____    ______ ____
ROOT
ATOM      1  C   UNL     1       1.448   4.400  17.731  0.00  0.00    +0.000 C 
ATOM      2  C   UNL     1       1.894   3.771  19.018  0.00  0.00    +0.000 A 
ATOM      3  C   UNL     1       0.984   3.655  20.077  0.00  0.00    +0.000 A 
ATOM      4  C   UNL     1       1.378   3.084  21.279  0.00  0.00    +0.000 A 
ATOM      5  C   UNL     1       2.673   2.617  21.381  0.00  0.00    +0.000 A 
ATOM      6  N   UNL     1       3.575   2.679  20.375  0.00  0.00    +0.000 NA
ATOM      7  C   UNL     1       3.193   3.283  19.217  0.00  0.00    +0.000 A 
ENDROOT
BRANCH   7   8
ATOM      8  C   UNL     1       4.287   3.421  18.182  0.00  0.00    +0.000 C 
BRANCH   8   9
ATOM      9  C   UNL     1       5.422   4.328  18.637  0.00  0.00    +0.000 C 
BRANCH   9  10
ATOM     10  C   UNL     1       6.527   4.362  17.616  0.00  0.00    +0.000 C 
ATOM     11  O   UNL     1       6.336   4.382  16.411  0.00  0.00    +0.000 OA
BRANCH  10  12
ATOM     12  O   UNL     1       7.761   4.330  18.162  0.00  0.00    +0.000 OA
ATOM     13  H   UNL     1       8.147   5.224  18.280  0.00  0.00    +0.000 HD
ENDBRANCH  10  12
ENDBRANCH   9  10
ENDBRANCH   8   9
ENDBRANCH   7   8
TORSDOF 4
ENDMDL
MODEL 4
REMARK VINA RESULT:      -5.4      1.446      1.670
REMARK  Name = 
REMARK  5 active torsions:
REMARK  status: ('A' for Active; 'I' for Inactive)
REMARK    1  A    between atoms: C_1  and  C_2
REMARK    2  A    between atoms: C_7  and  C_8
REMARK    3  A    between atoms: C_8  and  C_9
REMARK    4  A    between atoms: C_9  and  C_10
REMARK    5  A    between atoms: C_10  and  O_12
REMARK                            x       y       z     vdW  Elec       q    Type
REMARK                         _______ _______ _______ _____ _____    ______ ____
ROOT
ATOM      1  C   UNL     1       5.676   4.950  19.216  0.00  0.00    +0.000 C 
ATOM      2  C   UNL     1       4.556   4.077  18.732  0.00  0.00    +0.000 A 
ATOM      3  C   UNL     1       3.908   3.228  19.638  0.00  0.00    +0.000 A 
ATOM      4  C   UNL     1       2.875   2.405  19.211  0.00  0.00    +0.000 A 
ATOM      5  C   UNL     1       2.497   2.475  17.885  0.00  0.00    +0.000 A 
ATOM      6  N   UNL     1       3.072   3.303  16.983  0.00  0.00    +0.000 NA
ATOM      7  C   UNL     1       4.115   4.070  17.402  0.00  0.00    +0.000 A 
ENDROOT
BRANCH   7   8
ATOM      8  C   UNL     1       4.784   4.881  16.314  0.00  0.00    +0.000 C 
BRANCH   8   9
ATOM      9  C   UNL     1       5.755   4.061  15.475  0.00  0.00    +0.000 C 
BRANCH   9  10
ATOM     10  C   UNL     1       7.119   4.693  15.457  0.00  0.00    +0.000 C 
ATOM     11  O   UNL     1       7.534   5.385  14.541  0.00  0.00    +0.000 OA
BRANCH  10  12
ATOM     12  O   UNL     1       7.863   4.391  16.542  0.00  0.00    +0.000 OA
ATOM     13  H   UNL     1       8.029   5.168  17.117  0.00  0.00    +0.000 HD
ENDBRANCH  10  12
ENDBRANCH   9  10
ENDBRANCH   8   9
ENDBRANCH   7   8
TORSDOF 4
ENDMDL
MODEL 5
REMARK VINA RESULT:      -5.4      0.582      1.096
REMARK  Name = 
REMARK  5 active torsions:
REMARK  status: ('A' for Active; 'I' for Inactive)
REMARK    1  A    between atoms: C_1  and  C_2
REMARK    2  A    between atoms: C_7  and  C_8
REMARK    3  A    between atoms: C_8  and  C_9
REMARK    4  A    between atoms: C_9  and  C_10
REMARK    5  A    between atoms: C_10  and  O_12
REMARK                            x       y       z     vdW  Elec       q    Type
REMARK                         _______ _______ _______ _____ _____    ______ ____
ROOT
ATOM      1  C   UNL     1       2.535   6.291  18.130  0.00  0.00    +0.000 C 
ATOM      2  C   UNL     1       2.579   4.792  18.070  0.00  0.00    +0.000 A 
ATOM      3  C   UNL     1       1.571   4.052  18.702  0.00  0.00    +0.000 A 
ATOM      4  C   UNL     1       1.596   2.664  18.668  0.00  0.00    +0.000 A 
ATOM      5  C   UNL     1       2.620   2.052  17.973  0.00  0.00    +0.000 A 
ATOM      6  N   UNL     1       3.595   2.727  17.321  0.00  0.00    +0.000 NA
ATOM      7  C   UNL     1       3.587   4.085  17.402  0.00  0.00    +0.000 A 
ENDROOT
BRANCH   7   8
ATOM      8  C   UNL     1       4.770   4.766  16.750  0.00  0.00    +0.000 C 
BRANCH   8   9
ATOM      9  C   UNL     1       5.874   5.113  17.741  0.00  0.00    +0.000 C 
BRANCH   9  10
ATOM     10  C   UNL     1       7.218   5.125  17.066  0.00  0.00    +0.000 C 
ATOM     11  O   UNL     1       8.038   4.226  17.172  0.00  0.00    +0.000 OA
BRANCH  10  12
ATOM     12  O   UNL     1       7.452   6.249  16.357  0.00  0.00    +0.000 OA
ATOM     13  H   UNL     1       7.298   6.130  15.396  0.00  0.00    +0.000 HD
ENDBRANCH  10  12
ENDBRANCH   9  10
ENDBRANCH   8   9
ENDBRANCH   7   8
TORSDOF 4
ENDMDL
MODEL 6
REMARK VINA RESULT:      -5.4      1.523      1.662
REMARK  Name = 
REMARK  5 active torsions:
REMARK  status: ('A' for Active; 'I' for Inactive)
REMARK    1  A    between atoms: C_1  and  C_2
REMARK    2  A    between atoms: C_7  and  C_8
REMARK    3  A    between atoms: C_8  and  C_9
REMARK    4  A    between atoms: C_9  and  C_10
REMARK    5  A    between atoms: C_10  and  O_12
REMARK                            x       y       z     vdW  Elec       q    Type
REMARK                         _______ _______ _______ _____ _____    ______ ____
ROOT
ATOM      1  C   UNL     1       1.610   4.480  17.619  0.00  0.00    +0.000 C 
ATOM      2  C   UNL     1       2.649   3.847  18.498  0.00  0.00    +0.000 A 
ATOM      3  C   UNL     1       2.243   3.034  19.564  0.00  0.00    +0.000 A 
ATOM      4  C   UNL     1       3.187   2.446  20.394  0.00  0.00    +0.000 A 
ATOM      5  C   UNL     1       4.521   2.667  20.117  0.00  0.00    +0.000 A 
ATOM      6  N   UNL     1       4.959   3.417  19.080  0.00  0.00    +0.000 NA
ATOM      7  C   UNL     1       4.025   4.028  18.301  0.00  0.00    +0.000 A 
ENDROOT
BRANCH   7   8
ATOM      8  C   UNL     1       4.587   4.944  17.237  0.00  0.00    +0.000 C 
BRANCH   8   9
ATOM      9  C   UNL     1       5.468   4.215  16.232  0.00  0.00    +0.000 C 
BRANCH   9  10
ATOM     10  C   UNL     1       6.892   4.694  16.317  0.00  0.00    +0.000 C 
ATOM     11  O   UNL     1       7.419   5.404  15.476  0.00  0.00    +0.000 OA
BRANCH  10  12
ATOM     12  O   UNL     1       7.549   4.230  17.401  0.00  0.00    +0.000 OA
ATOM     13  H   UNL     1       7.751   4.935  18.052  0.00  0.00    +0.000 HD
ENDBRANCH  10  12
ENDBRANCH   9  10
ENDBRANCH   8   9
ENDBRANCH   7   8
TORSDOF 4
ENDMDL
MODEL 7
REMARK VINA RESULT:      -5.4      1.331      1.504
REMARK  Name = 
REMARK  5 active torsions:
REMARK  status: ('A' for Active; 'I' for Inactive)
REMARK    1  A    between atoms: C_1  and  C_2
REMARK    2  A    between atoms: C_7  and  C_8
REMARK    3  A    between atoms: C_8  and  C_9
REMARK    4  A    between atoms: C_9  and  C_10
REMARK    5  A    between atoms: C_10  and  O_12
REMARK                            x       y       z     vdW  Elec       q    Type
REMARK                         _______ _______ _______ _____ _____    ______ ____
ROOT
ATOM      1  C   UNL     1       3.399   7.181  17.858  0.00  0.00    +0.000 C 
ATOM      2  C   UNL     1       3.182   5.701  17.735  0.00  0.00    +0.000 A 
ATOM      3  C   UNL     1       2.010   5.135  18.252  0.00  0.00    +0.000 A 
ATOM      4  C   UNL     1       1.792   3.767  18.158  0.00  0.00    +0.000 A 
ATOM      5  C   UNL     1       2.748   3.002  17.520  0.00  0.00    +0.000 A 
ATOM      6  N   UNL     1       3.878   3.510  16.978  0.00  0.00    +0.000 NA
ATOM      7  C   UNL     1       4.103   4.845  17.118  0.00  0.00    +0.000 A 
ENDROOT
BRANCH   7   8
ATOM      8  C   UNL     1       5.440   5.321  16.593  0.00  0.00    +0.000 C 
BRANCH   8   9
ATOM      9  C   UNL     1       6.325   4.183  16.104  0.00  0.00    +0.000 C 
BRANCH   9  10
ATOM     10  C   UNL     1       6.825   4.450  14.711  0.00  0.00    +0.000 C 
ATOM     11  O   UNL     1       7.512   5.413  14.410  0.00  0.00    +0.000 OA
BRANCH  10  12
ATOM     12  O   UNL     1       6.408   3.537  13.808  0.00  0.00    +0.000 OA
ATOM     13  H   UNL     1       6.961   2.727  13.805  0.00  0.00    +0.000 HD
ENDBRANCH  10  12
ENDBRANCH   9  10
ENDBRANCH   8   9
ENDBRANCH   7   8
TORSDOF 4
ENDMDL
MODEL 8
REMARK VINA RESULT:      -5.4      3.259      5.094
REMARK  Name = 
REMARK  5 active torsions:
REMARK  status: ('A' for Active; 'I' for Inactive)
REMARK    1  A    between atoms: C_1  and  C_2
REMARK    2  A    between atoms: C_7  and  C_8
REMARK    3  A    between atoms: C_8  and  C_9
REMARK    4  A    between atoms: C_9  and  C_10
REMARK    5  A    between atoms: C_10  and  O_12
REMARK                            x       y       z     vdW  Elec       q    Type
REMARK                         _______ _______ _______ _____ _____    ______ ____
ROOT
ATOM      1  C   UNL     1       6.139   3.978  15.119  0.00  0.00    +0.000 C 
ATOM      2  C   UNL     1       6.199   4.434  16.547  0.00  0.00    +0.000 A 
ATOM      3  C   UNL     1       7.404   4.936  17.056  0.00  0.00    +0.000 A 
ATOM      4  C   UNL     1       7.485   5.356  18.377  0.00  0.00    +0.000 A 
ATOM      5  C   UNL     1       6.344   5.286  19.150  0.00  0.00    +0.000 A 
ATOM      6  N   UNL     1       5.152   4.839  18.692  0.00  0.00    +0.000 NA
ATOM      7  C   UNL     1       5.096   4.386  17.410  0.00  0.00    +0.000 A 
ENDROOT
BRANCH   7   8
ATOM      8  C   UNL     1       3.765   3.792  17.004  0.00  0.00    +0.000 C 
BRANCH   8   9
ATOM      9  C   UNL     1       3.407   2.543  17.797  0.00  0.00    +0.000 C 
BRANCH   9  10
ATOM     10  C   UNL     1       1.944   2.528  18.147  0.00  0.00    +0.000 C 
ATOM     11  O   UNL     1       1.165   3.417  17.843  0.00  0.00    +0.000 OA
BRANCH  10  12
ATOM     12  O   UNL     1       1.577   1.447  18.868  0.00  0.00    +0.000 OA
ATOM     13  H   UNL     1       1.801   0.601  18.425  0.00  0.00    +0.000 HD
ENDBRANCH  10  12
ENDBRANCH   9  10
ENDBRANCH   8   9
ENDBRANCH   7   8
TORSDOF 4
ENDMDL
MODEL 9
REMARK VINA RESULT:      -5.4      0.990      1.384
REMARK  Name = 
REMARK  5 active torsions:
REMARK  status: ('A' for Active; 'I' for Inactive)
REMARK    1  A    between atoms: C_1  and  C_2
REMARK    2  A    between atoms: C_7  and  C_8
REMARK    3  A    between atoms: C_8  and  C_9
REMARK    4  A    between atoms: C_9  and  C_10
REMARK    5  A    between atoms: C_10  and  O_12
REMARK                            x       y       z     vdW  Elec       q    Type
REMARK                         _______ _______ _______ _____ _____    ______ ____
ROOT
ATOM      1  C   UNL     1       2.676   6.181  18.077  0.00  0.00    +0.000 C 
ATOM      2  C   UNL     1       2.617   4.683  18.140  0.00  0.00    +0.000 A 
ATOM      3  C   UNL     1       1.434   4.060  18.556  0.00  0.00    +0.000 A 
ATOM      4  C   UNL     1       1.360   2.676  18.629  0.00  0.00    +0.000 A 
ATOM      5  C   UNL     1       2.472   1.947  18.256  0.00  0.00    +0.000 A 
ATOM      6  N   UNL     1       3.624   2.505  17.818  0.00  0.00    +0.000 NA
ATOM      7  C   UNL     1       3.700   3.864  17.795  0.00  0.00    +0.000 A 
ENDROOT
BRANCH   7   8
ATOM      8  C   UNL     1       5.054   4.416  17.408  0.00  0.00    +0.000 C 
BRANCH   8   9
ATOM      9  C   UNL     1       5.316   4.350  15.909  0.00  0.00    +0.000 C 
BRANCH   9  10
ATOM     10  C   UNL     1       6.124   5.533  15.451  0.00  0.00    +0.000 C 
ATOM     11  O   UNL     1       7.337   5.516  15.321  0.00  0.00    +0.000 OA
BRANCH  10  12
ATOM     12  O   UNL     1       5.379   6.636  15.230  0.00  0.00    +0.000 OA
ATOM     13  H   UNL     1       5.667   7.137  14.437  0.00  0.00    +0.000 HD
ENDBRANCH  10  12
ENDBRANCH   9  10
ENDBRANCH   8   9
ENDBRANCH   7   8
TORSDOF 4
ENDMDL
