MODEL 1
REMARK VINA RESULT:      -7.9      0.000      0.000
REMARK  Name = 
REMARK  4 active torsions:
REMARK  status: ('A' for Active; 'I' for Inactive)
REMARK    1  A    between atoms: C_5  and  C_6
REMARK    2  A    between atoms: C_6  and  N_7
REMARK    3  A    between atoms: C_13  and  C_14
REMARK    4  A    between atoms: C_14  and  N_15
REMARK                            x       y       z     vdW  Elec       q    Type
REMARK                         _______ _______ _______ _____ _____    ______ ____
ROOT
ATOM      1  N   UNL     1       5.202   6.038  17.442  0.00  0.00    +0.000 NA
ATOM      2  C   UNL     1       5.659   5.353  18.645  0.00  0.00    +0.000 C 
ATOM      3  C   UNL     1       7.040   4.709  18.574  0.00  0.00    +0.000 C 
ATOM      4  C   UNL     1       8.242   5.652  18.559  0.00  0.00    +0.000 C 
ATOM      5  N   UNL     1       7.999   7.064  18.367  0.00  0.00    +0.000 N 
ATOM      6  N   UNL     1       8.812   7.943  18.983  0.00  0.00    +0.000 NA
ATOM      7  C   UNL     1       8.450   9.138  18.496  0.00  0.00    +0.000 A 
ATOM      8  C   UNL     1       7.385   9.003  17.573  0.00  0.00    +0.000 A 
ATOM      9  C   UNL     1       7.096   7.653  17.535  0.00  0.00    +0.000 A 
ATOM     10  C   UNL     1       6.117   6.903  16.710  0.00  0.00    +0.000 C 
ENDROOT
BRANCH   1  11
ATOM     11  C   UNL     1       3.812   6.493  17.497  0.00  0.00    +0.000 C 
BRANCH  11  16
ATOM     12  F   UNL     1       0.496   3.605  21.051  0.00  0.00    +0.000 F 
ATOM     13  C   UNL     1       1.255   4.290  20.183  0.00  0.00    +0.000 A 
ATOM     14  C   UNL     1       1.739   5.537  20.561  0.00  0.00    +0.000 A 
ATOM     15  C   UNL     1       2.554   6.255  19.684  0.00  0.00    +0.000 A 
ATOM     16  C   UNL     1       2.885   5.732  18.421  0.00  0.00    +0.000 A 
ATOM     17  C   UNL     1       2.373   4.480  18.050  0.00  0.00    +0.000 A 
ATOM     18  C   UNL     1       1.568   3.759  18.934  0.00  0.00    +0.000 A 
ATOM     19 CL   UNL     1       0.995   2.200  18.481  0.00  0.00    +0.000 Cl
ENDBRANCH  11  16
ENDBRANCH   1  11
BRANCH   7  20
ATOM     20  C   UNL     1       9.181  10.379  18.943  0.00  0.00    +0.000 C 
BRANCH  20  21
ATOM     21  N   UNL     1       9.560  11.264  17.828  0.00  0.00    +0.000 NA
ATOM     22  C   UNL     1       8.750  12.488  17.739  0.00  0.00    +0.000 C 
ATOM     23  C   UNL     1       9.684  13.678  17.878  0.00  0.00    +0.000 C 
ATOM     24  C   UNL     1      11.036  13.131  17.496  0.00  0.00    +0.000 C 
ATOM     25  F   UNL     1      11.189  13.207  16.147  0.00  0.00    +0.000 F 
ATOM     26  C   UNL     1      10.975  11.672  17.927  0.00  0.00    +0.000 C 
ENDBRANCH  20  21
ENDBRANCH   7  20
TORSDOF 4
ENDMDL
MODEL 2
REMARK VINA RESULT:      -7.6      4.821      7.213
REMARK  Name = 
REMARK  4 active torsions:
REMARK  status: ('A' for Active; 'I' for Inactive)
REMARK    1  A    between atoms: C_5  and  C_6
REMARK    2  A    between atoms: C_6  and  N_7
REMARK    3  A    between atoms: C_13  and  C_14
REMARK    4  A    between atoms: C_14  and  N_15
REMARK                            x       y       z     vdW  Elec       q    Type
REMARK                         _______ _______ _______ _____ _____    ______ ____
ROOT
ATOM      1  N   UNL     1       3.694   2.731  18.192  0.00  0.00    +0.000 NA
ATOM      2  C   UNL     1       2.336   2.434  17.755  0.00  0.00    +0.000 C 
ATOM      3  C   UNL     1       1.388   1.883  18.814  0.00  0.00    +0.000 C 
ATOM      4  C   UNL     1       0.912   2.857  19.891  0.00  0.00    +0.000 C 
ATOM      5  N   UNL     1       1.566   4.144  19.983  0.00  0.00    +0.000 N 
ATOM      6  N   UNL     1       0.834   5.207  20.366  0.00  0.00    +0.000 NA
ATOM      7  C   UNL     1       1.725   6.196  20.513  0.00  0.00    +0.000 A 
ATOM      8  C   UNL     1       3.031   5.746  20.203  0.00  0.00    +0.000 A 
ATOM      9  C   UNL     1       2.890   4.423  19.834  0.00  0.00    +0.000 A 
ATOM     10  C   UNL     1       3.913   3.415  19.460  0.00  0.00    +0.000 C 
ENDROOT
BRANCH   1  11
ATOM     11  C   UNL     1       4.611   3.097  17.112  0.00  0.00    +0.000 C 
BRANCH  11  16
ATOM     12  F   UNL     1       7.122   8.160  17.298  0.00  0.00    +0.000 F 
ATOM     13  C   UNL     1       6.518   6.962  17.289  0.00  0.00    +0.000 A 
ATOM     14  C   UNL     1       5.453   6.760  16.419  0.00  0.00    +0.000 A 
ATOM     15  C   UNL     1       4.827   5.512  16.375  0.00  0.00    +0.000 A 
ATOM     16  C   UNL     1       5.260   4.462  17.205  0.00  0.00    +0.000 A 
ATOM     17  C   UNL     1       6.324   4.691  18.089  0.00  0.00    +0.000 A 
ATOM     18  C   UNL     1       6.956   5.936  18.123  0.00  0.00    +0.000 A 
ATOM     19 CL   UNL     1       8.296   6.179  19.176  0.00  0.00    +0.000 Cl
ENDBRANCH  11  16
ENDBRANCH   1  11
BRANCH   7  20
ATOM     20  C   UNL     1       1.263   7.555  20.976  0.00  0.00    +0.000 C 
BRANCH  20  21
ATOM     21  N   UNL     1       1.782   8.659  20.149  0.00  0.00    +0.000 NA
ATOM     22  C   UNL     1       1.942   8.312  18.729  0.00  0.00    +0.000 C 
ATOM     23  C   UNL     1       1.064   9.250  17.917  0.00  0.00    +0.000 C 
ATOM     24  C   UNL     1       0.859  10.438  18.823  0.00  0.00    +0.000 C 
ATOM     25  F   UNL     1       1.888  11.311  18.663  0.00  0.00    +0.000 F 
ATOM     26  C   UNL     1       0.901   9.841  20.223  0.00  0.00    +0.000 C 
ENDBRANCH  20  21
ENDBRANCH   7  20
TORSDOF 4
ENDMDL
MODEL 3
REMARK VINA RESULT:      -7.5      4.875      7.392
REMARK  Name = 
REMARK  4 active torsions:
REMARK  status: ('A' for Active; 'I' for Inactive)
REMARK    1  A    between atoms: C_5  and  C_6
REMARK    2  A    between atoms: C_6  and  N_7
REMARK    3  A    between atoms: C_13  and  C_14
REMARK    4  A    between atoms: C_14  and  N_15
REMARK                            x       y       z     vdW  Elec       q    Type
REMARK                         _______ _______ _______ _____ _____    ______ ____
ROOT
ATOM      1  N   UNL     1       3.505   2.833  18.175  0.00  0.00    +0.000 NA
ATOM      2  C   UNL     1       2.122   2.661  17.748  0.00  0.00    +0.000 C 
ATOM      3  C   UNL     1       1.144   2.160  18.805  0.00  0.00    +0.000 C 
ATOM      4  C   UNL     1       0.762   3.140  19.914  0.00  0.00    +0.000 C 
ATOM      5  N   UNL     1       1.521   4.365  20.031  0.00  0.00    +0.000 N 
ATOM      6  N   UNL     1       0.883   5.474  20.453  0.00  0.00    +0.000 NA
ATOM      7  C   UNL     1       1.855   6.382  20.614  0.00  0.00    +0.000 A 
ATOM      8  C   UNL     1       3.116   5.835  20.275  0.00  0.00    +0.000 A 
ATOM      9  C   UNL     1       2.862   4.539  19.872  0.00  0.00    +0.000 A 
ATOM     10  C   UNL     1       3.794   3.461  19.457  0.00  0.00    +0.000 C 
ENDROOT
BRANCH   1  11
ATOM     11  C   UNL     1       4.437   3.152  17.093  0.00  0.00    +0.000 C 
BRANCH  11  16
ATOM     12  F   UNL     1       7.181   8.094  17.258  0.00  0.00    +0.000 F 
ATOM     13  C   UNL     1       6.521   6.926  17.254  0.00  0.00    +0.000 A 
ATOM     14  C   UNL     1       5.457   6.764  16.374  0.00  0.00    +0.000 A 
ATOM     15  C   UNL     1       4.775   5.547  16.334  0.00  0.00    +0.000 A 
ATOM     16  C   UNL     1       5.148   4.486  17.180  0.00  0.00    +0.000 A 
ATOM     17  C   UNL     1       6.212   4.675  18.074  0.00  0.00    +0.000 A 
ATOM     18  C   UNL     1       6.900   5.889  18.103  0.00  0.00    +0.000 A 
ATOM     19 CL   UNL     1       8.238   6.080  19.170  0.00  0.00    +0.000 Cl
ENDBRANCH  11  16
ENDBRANCH   1  11
BRANCH   7  20
ATOM     20  C   UNL     1       1.512   7.761  21.119  0.00  0.00    +0.000 C 
BRANCH  20  21
ATOM     21  N   UNL     1       0.673   8.531  20.184  0.00  0.00    +0.000 NA
ATOM     22  C   UNL     1       0.022   9.700  20.794  0.00  0.00    +0.000 C 
ATOM     23  C   UNL     1       0.495  10.938  20.051  0.00  0.00    +0.000 C 
ATOM     24  C   UNL     1       0.957  10.412  18.716  0.00  0.00    +0.000 C 
ATOM     25  F   UNL     1      -0.101  10.343  17.866  0.00  0.00    +0.000 F 
ATOM     26  C   UNL     1       1.460   9.010  19.031  0.00  0.00    +0.000 C 
ENDBRANCH  20  21
ENDBRANCH   7  20
TORSDOF 4
ENDMDL
MODEL 4
REMARK VINA RESULT:      -7.3      4.418      6.338
REMARK  Name = 
REMARK  4 active torsions:
REMARK  status: ('A' for Active; 'I' for Inactive)
REMARK    1  A    between atoms: C_5  and  C_6
REMARK    2  A    between atoms: C_6  and  N_7
REMARK    3  A    between atoms: C_13  and  C_14
REMARK    4  A    between atoms: C_14  and  N_15
REMARK                            x       y       z     vdW  Elec       q    Type
REMARK                         _______ _______ _______ _____ _____    ______ ____
ROOT
ATOM      1  N   UNL     1       1.385   5.045  20.275  0.00  0.00    +0.000 NA
ATOM      2  C   UNL     1       1.685   3.725  20.816  0.00  0.00    +0.000 C 
ATOM      3  C   UNL     1       1.208   2.533  19.995  0.00  0.00    +0.000 C 
ATOM      4  C   UNL     1       1.948   2.252  18.688  0.00  0.00    +0.000 C 
ATOM      5  N   UNL     1       2.869   3.254  18.198  0.00  0.00    +0.000 N 
ATOM      6  N   UNL     1       3.965   2.843  17.532  0.00  0.00    +0.000 NA
ATOM      7  C   UNL     1       4.524   3.971  17.072  0.00  0.00    +0.000 A 
ATOM      8  C   UNL     1       3.772   5.102  17.470  0.00  0.00    +0.000 A 
ATOM      9  C   UNL     1       2.725   4.607  18.223  0.00  0.00    +0.000 A 
ATOM     10  C   UNL     1       1.581   5.308  18.856  0.00  0.00    +0.000 C 
ENDROOT
BRANCH   1  11
ATOM     11  C   UNL     1       1.710   6.155  21.173  0.00  0.00    +0.000 C 
BRANCH  11  16
ATOM     12  F   UNL     1      -0.194  11.215  19.517  0.00  0.00    +0.000 F 
ATOM     13  C   UNL     1       0.291  10.030  19.915  0.00  0.00    +0.000 A 
ATOM     14  C   UNL     1      -0.279   9.414  21.023  0.00  0.00    +0.000 A 
ATOM     15  C   UNL     1       0.192   8.167  21.438  0.00  0.00    +0.000 A 
ATOM     16  C   UNL     1       1.241   7.531  20.750  0.00  0.00    +0.000 A 
ATOM     17  C   UNL     1       1.816   8.176  19.645  0.00  0.00    +0.000 A 
ATOM     18  C   UNL     1       1.335   9.418  19.225  0.00  0.00    +0.000 A 
ATOM     19 CL   UNL     1       2.018  10.166  17.834  0.00  0.00    +0.000 Cl
ENDBRANCH  11  16
ENDBRANCH   1  11
BRANCH   7  20
ATOM     20  C   UNL     1       5.776   3.896  16.235  0.00  0.00    +0.000 C 
BRANCH  20  21
ATOM     21  N   UNL     1       6.934   4.560  16.860  0.00  0.00    +0.000 NA
ATOM     22  C   UNL     1       7.185   5.917  16.353  0.00  0.00    +0.000 C 
ATOM     23  C   UNL     1       7.083   6.879  17.525  0.00  0.00    +0.000 C 
ATOM     24  C   UNL     1       7.321   6.012  18.735  0.00  0.00    +0.000 C 
ATOM     25  F   UNL     1       8.656   5.917  18.968  0.00  0.00    +0.000 F 
ATOM     26  C   UNL     1       6.771   4.654  18.324  0.00  0.00    +0.000 C 
ENDBRANCH  20  21
ENDBRANCH   7  20
TORSDOF 4
ENDMDL
MODEL 5
REMARK VINA RESULT:      -7.3      5.215      6.898
REMARK  Name = 
REMARK  4 active torsions:
REMARK  status: ('A' for Active; 'I' for Inactive)
REMARK    1  A    between atoms: C_5  and  C_6
REMARK    2  A    between atoms: C_6  and  N_7
REMARK    3  A    between atoms: C_13  and  C_14
REMARK    4  A    between atoms: C_14  and  N_15
REMARK                            x       y       z     vdW  Elec       q    Type
REMARK                         _______ _______ _______ _____ _____    ______ ____
ROOT
ATOM      1  N   UNL     1       1.744   8.154  18.859  0.00  0.00    +0.000 NA
ATOM      2  C   UNL     1       2.017   7.709  20.220  0.00  0.00    +0.000 C 
ATOM      3  C   UNL     1       1.852   6.217  20.491  0.00  0.00    +0.000 C 
ATOM      4  C   UNL     1       2.904   5.285  19.891  0.00  0.00    +0.000 C 
ATOM      5  N   UNL     1       3.826   5.833  18.922  0.00  0.00    +0.000 N 
ATOM      6  N   UNL     1       5.080   5.343  18.885  0.00  0.00    +0.000 NA
ATOM      7  C   UNL     1       5.635   5.913  17.807  0.00  0.00    +0.000 A 
ATOM      8  C   UNL     1       4.717   6.783  17.171  0.00  0.00    +0.000 A 
ATOM      9  C   UNL     1       3.567   6.733  17.933  0.00  0.00    +0.000 A 
ATOM     10  C   UNL     1       2.250   7.385  17.730  0.00  0.00    +0.000 C 
ENDROOT
BRANCH   1  11
ATOM     11  C   UNL     1       1.751   9.607  18.686  0.00  0.00    +0.000 C 
BRANCH  11  16
ATOM     12  F   UNL     1      -3.306  12.116  19.015  0.00  0.00    +0.000 F 
ATOM     13  C   UNL     1      -2.104  11.531  18.902  0.00  0.00    +0.000 A 
ATOM     14  C   UNL     1      -1.069  11.969  19.720  0.00  0.00    +0.000 A 
ATOM     15  C   UNL     1       0.182  11.355  19.637  0.00  0.00    +0.000 A 
ATOM     16  C   UNL     1       0.407  10.303  18.731  0.00  0.00    +0.000 A 
ATOM     17  C   UNL     1      -0.645   9.886  17.901  0.00  0.00    +0.000 A 
ATOM     18  C   UNL     1      -1.898  10.494  17.994  0.00  0.00    +0.000 A 
ATOM     19 CL   UNL     1      -3.190   9.930  17.006  0.00  0.00    +0.000 Cl
ENDBRANCH  11  16
ENDBRANCH   1  11
BRANCH   7  20
ATOM     20  C   UNL     1       7.052   5.567  17.425  0.00  0.00    +0.000 C 
BRANCH  20  21
ATOM     21  N   UNL     1       7.137   4.643  16.281  0.00  0.00    +0.000 NA
ATOM     22  C   UNL     1       6.008   3.704  16.190  0.00  0.00    +0.000 C 
ATOM     23  C   UNL     1       5.314   3.935  14.858  0.00  0.00    +0.000 C 
ATOM     24  C   UNL     1       6.367   4.596  14.005  0.00  0.00    +0.000 C 
ATOM     25  F   UNL     1       7.129   3.642  13.408  0.00  0.00    +0.000 F 
ATOM     26  C   UNL     1       7.208   5.379  15.003  0.00  0.00    +0.000 C 
ENDBRANCH  20  21
ENDBRANCH   7  20
TORSDOF 4
ENDMDL
MODEL 6
REMARK VINA RESULT:      -7.3      4.623      6.660
REMARK  Name = 
REMARK  4 active torsions:
REMARK  status: ('A' for Active; 'I' for Inactive)
REMARK    1  A    between atoms: C_5  and  C_6
REMARK    2  A    between atoms: C_6  and  N_7
REMARK    3  A    between atoms: C_13  and  C_14
REMARK    4  A    between atoms: C_14  and  N_15
REMARK                            x       y       z     vdW  Elec       q    Type
REMARK                         _______ _______ _______ _____ _____    ______ ____
ROOT
ATOM      1  N   UNL     1       1.438   6.444  20.031  0.00  0.00    +0.000 NA
ATOM      2  C   UNL     1       1.537   5.197  20.780  0.00  0.00    +0.000 C 
ATOM      3  C   UNL     1       0.919   3.965  20.128  0.00  0.00    +0.000 C 
ATOM      4  C   UNL     1       1.646   3.386  18.915  0.00  0.00    +0.000 C 
ATOM      5  N   UNL     1       2.709   4.166  18.322  0.00  0.00    +0.000 N 
ATOM      6  N   UNL     1       3.754   3.513  17.778  0.00  0.00    +0.000 NA
ATOM      7  C   UNL     1       4.476   4.470  17.178  0.00  0.00    +0.000 A 
ATOM      8  C   UNL     1       3.880   5.740  17.364  0.00  0.00    +0.000 A 
ATOM      9  C   UNL     1       2.755   5.514  18.134  0.00  0.00    +0.000 A 
ATOM     10  C   UNL     1       1.705   6.452  18.599  0.00  0.00    +0.000 C 
ENDROOT
BRANCH   1  11
ATOM     11  C   UNL     1       1.891   7.627  20.764  0.00  0.00    +0.000 C 
BRANCH  11  16
ATOM     12  F   UNL     1      -1.356  12.255  20.651  0.00  0.00    +0.000 F 
ATOM     13  C   UNL     1      -0.615  11.137  20.686  0.00  0.00    +0.000 A 
ATOM     14  C   UNL     1       0.084  10.765  19.544  0.00  0.00    +0.000 A 
ATOM     15  C   UNL     1       0.883   9.620  19.567  0.00  0.00    +0.000 A 
ATOM     16  C   UNL     1       0.982   8.837  20.731  0.00  0.00    +0.000 A 
ATOM     17  C   UNL     1       0.254   9.218  21.868  0.00  0.00    +0.000 A 
ATOM     18  C   UNL     1      -0.534  10.370  21.846  0.00  0.00    +0.000 A 
ATOM     19 CL   UNL     1      -1.375  10.850  23.269  0.00  0.00    +0.000 Cl
ENDBRANCH  11  16
ENDBRANCH   1  11
BRANCH   7  20
ATOM     20  C   UNL     1       5.726   4.099  16.422  0.00  0.00    +0.000 C 
BRANCH  20  21
ATOM     21  N   UNL     1       6.963   4.552  17.082  0.00  0.00    +0.000 NA
ATOM     22  C   UNL     1       7.416   5.881  16.646  0.00  0.00    +0.000 C 
ATOM     23  C   UNL     1       7.445   6.787  17.866  0.00  0.00    +0.000 C 
ATOM     24  C   UNL     1       7.540   5.834  19.031  0.00  0.00    +0.000 C 
ATOM     25  F   UNL     1       8.845   5.532  19.262  0.00  0.00    +0.000 F 
ATOM     26  C   UNL     1       6.800   4.595  18.549  0.00  0.00    +0.000 C 
ENDBRANCH  20  21
ENDBRANCH   7  20
TORSDOF 4
ENDMDL
MODEL 7
REMARK VINA RESULT:      -7.2      4.535      6.589
REMARK  Name = 
REMARK  4 active torsions:
REMARK  status: ('A' for Active; 'I' for Inactive)
REMARK    1  A    between atoms: C_5  and  C_6
REMARK    2  A    between atoms: C_6  and  N_7
REMARK    3  A    between atoms: C_13  and  C_14
REMARK    4  A    between atoms: C_14  and  N_15
REMARK                            x       y       z     vdW  Elec       q    Type
REMARK                         _______ _______ _______ _____ _____    ______ ____
ROOT
ATOM      1  N   UNL     1       1.477   6.515  20.218  0.00  0.00    +0.000 NA
ATOM      2  C   UNL     1       1.534   5.224  20.892  0.00  0.00    +0.000 C 
ATOM      3  C   UNL     1       0.860   4.057  20.178  0.00  0.00    +0.000 C 
ATOM      4  C   UNL     1       1.550   3.521  18.924  0.00  0.00    +0.000 C 
ATOM      5  N   UNL     1       2.638   4.292  18.364  0.00  0.00    +0.000 N 
ATOM      6  N   UNL     1       3.649   3.631  17.769  0.00  0.00    +0.000 NA
ATOM      7  C   UNL     1       4.403   4.591  17.217  0.00  0.00    +0.000 A 
ATOM      8  C   UNL     1       3.860   5.871  17.484  0.00  0.00    +0.000 A 
ATOM      9  C   UNL     1       2.736   5.645  18.254  0.00  0.00    +0.000 A 
ATOM     10  C   UNL     1       1.729   6.596  18.786  0.00  0.00    +0.000 C 
ENDROOT
BRANCH   1  11
ATOM     11  C   UNL     1       1.986   7.634  21.012  0.00  0.00    +0.000 C 
BRANCH  11  16
ATOM     12  F   UNL     1      -1.746  11.757  22.035  0.00  0.00    +0.000 F 
ATOM     13  C   UNL     1      -0.839  10.804  21.777  0.00  0.00    +0.000 A 
ATOM     14  C   UNL     1      -0.310  10.081  22.841  0.00  0.00    +0.000 A 
ATOM     15  C   UNL     1       0.616   9.066  22.592  0.00  0.00    +0.000 A 
ATOM     16  C   UNL     1       1.023   8.772  21.278  0.00  0.00    +0.000 A 
ATOM     17  C   UNL     1       0.492   9.524  20.219  0.00  0.00    +0.000 A 
ATOM     18  C   UNL     1      -0.442  10.530  20.470  0.00  0.00    +0.000 A 
ATOM     19 CL   UNL     1      -1.122  11.404  19.152  0.00  0.00    +0.000 Cl
ENDBRANCH  11  16
ENDBRANCH   1  11
BRANCH   7  20
ATOM     20  C   UNL     1       5.629   4.215  16.424  0.00  0.00    +0.000 C 
BRANCH  20  21
ATOM     21  N   UNL     1       6.889   4.611  17.077  0.00  0.00    +0.000 NA
ATOM     22  C   UNL     1       7.384   5.931  16.661  0.00  0.00    +0.000 C 
ATOM     23  C   UNL     1       7.460   6.812  17.897  0.00  0.00    +0.000 C 
ATOM     24  C   UNL     1       7.536   5.834  19.042  0.00  0.00    +0.000 C 
ATOM     25  F   UNL     1       8.831   5.481  19.251  0.00  0.00    +0.000 F 
ATOM     26  C   UNL     1       6.746   4.631  18.546  0.00  0.00    +0.000 C 
ENDBRANCH  20  21
ENDBRANCH   7  20
TORSDOF 4
ENDMDL
MODEL 8
REMARK VINA RESULT:      -7.2      9.013     12.049
REMARK  Name = 
REMARK  4 active torsions:
REMARK  status: ('A' for Active; 'I' for Inactive)
REMARK    1  A    between atoms: C_5  and  C_6
REMARK    2  A    between atoms: C_6  and  N_7
REMARK    3  A    between atoms: C_13  and  C_14
REMARK    4  A    between atoms: C_14  and  N_15
REMARK                            x       y       z     vdW  Elec       q    Type
REMARK                         _______ _______ _______ _____ _____    ______ ____
ROOT
ATOM      1  N   UNL     1       0.487  10.880  20.249  0.00  0.00    +0.000 NA
ATOM      2  C   UNL     1       0.012   9.571  20.680  0.00  0.00    +0.000 C 
ATOM      3  C   UNL     1       0.350   9.166  22.111  0.00  0.00    +0.000 C 
ATOM      4  C   UNL     1      -0.395   9.892  23.230  0.00  0.00    +0.000 C 
ATOM      5  N   UNL     1      -1.172  11.062  22.884  0.00  0.00    +0.000 N 
ATOM      6  N   UNL     1      -2.298  11.309  23.579  0.00  0.00    +0.000 NA
ATOM      7  C   UNL     1      -2.701  12.514  23.153  0.00  0.00    +0.000 A 
ATOM      8  C   UNL     1      -1.820  13.018  22.166  0.00  0.00    +0.000 A 
ATOM      9  C   UNL     1      -0.859  12.042  21.992  0.00  0.00    +0.000 A 
ATOM     10  C   UNL     1       0.353  12.027  21.136  0.00  0.00    +0.000 C 
ENDROOT
BRANCH   1  11
ATOM     11  C   UNL     1       0.288  11.156  18.826  0.00  0.00    +0.000 C 
BRANCH  11  16
ATOM     12  F   UNL     1      -4.886  10.476  16.647  0.00  0.00    +0.000 F 
ATOM     13  C   UNL     1      -3.672  10.628  17.196  0.00  0.00    +0.000 A 
ATOM     14  C   UNL     1      -2.618   9.865  16.705  0.00  0.00    +0.000 A 
ATOM     15  C   UNL     1      -1.340  10.027  17.245  0.00  0.00    +0.000 A 
ATOM     16  C   UNL     1      -1.111  10.948  18.283  0.00  0.00    +0.000 A 
ATOM     17  C   UNL     1      -2.190  11.695  18.778  0.00  0.00    +0.000 A 
ATOM     18  C   UNL     1      -3.464  11.540  18.228  0.00  0.00    +0.000 A 
ATOM     19 CL   UNL     1      -4.764  12.506  18.812  0.00  0.00    +0.000 Cl
ENDBRANCH  11  16
ENDBRANCH   1  11
BRANCH   7  20
ATOM     20  C   UNL     1      -3.936  13.142  23.748  0.00  0.00    +0.000 C 
BRANCH  20  21
ATOM     21  N   UNL     1      -5.187  12.517  23.284  0.00  0.00    +0.000 NA
ATOM     22  C   UNL     1      -6.215  12.400  24.329  0.00  0.00    +0.000 C 
ATOM     23  C   UNL     1      -7.436  13.180  23.873  0.00  0.00    +0.000 C 
ATOM     24  C   UNL     1      -7.284  13.258  22.375  0.00  0.00    +0.000 C 
ATOM     25  F   UNL     1      -7.820  12.145  21.808  0.00  0.00    +0.000 F 
ATOM     26  C   UNL     1      -5.777  13.271  22.161  0.00  0.00    +0.000 C 
ENDBRANCH  20  21
ENDBRANCH   7  20
TORSDOF 4
ENDMDL
MODEL 9
REMARK VINA RESULT:      -7.2      5.263      6.805
REMARK  Name = 
REMARK  4 active torsions:
REMARK  status: ('A' for Active; 'I' for Inactive)
REMARK    1  A    between atoms: C_5  and  C_6
REMARK    2  A    between atoms: C_6  and  N_7
REMARK    3  A    between atoms: C_13  and  C_14
REMARK    4  A    between atoms: C_14  and  N_15
REMARK                            x       y       z     vdW  Elec       q    Type
REMARK                         _______ _______ _______ _____ _____    ______ ____
ROOT
ATOM      1  N   UNL     1       1.786   6.660  20.093  0.00  0.00    +0.000 NA
ATOM      2  C   UNL     1       1.696   5.395  20.811  0.00  0.00    +0.000 C 
ATOM      3  C   UNL     1       1.333   4.169  19.980  0.00  0.00    +0.000 C 
ATOM      4  C   UNL     1       2.401   3.641  19.023  0.00  0.00    +0.000 C 
ATOM      5  N   UNL     1       3.569   4.460  18.787  0.00  0.00    +0.000 N 
ATOM      6  N   UNL     1       4.745   3.845  18.561  0.00  0.00    +0.000 NA
ATOM      7  C   UNL     1       5.585   4.833  18.222  0.00  0.00    +0.000 A 
ATOM      8  C   UNL     1       4.924   6.085  18.251  0.00  0.00    +0.000 A 
ATOM      9  C   UNL     1       3.630   5.813  18.650  0.00  0.00    +0.000 A 
ATOM     10  C   UNL     1       2.463   6.715  18.804  0.00  0.00    +0.000 C 
ENDROOT
BRANCH   1  11
ATOM     11  C   UNL     1       1.971   7.831  20.952  0.00  0.00    +0.000 C 
BRANCH  11  16
ATOM     12  F   UNL     1      -1.692  12.105  20.417  0.00  0.00    +0.000 F 
ATOM     13  C   UNL     1      -0.851  11.070  20.557  0.00  0.00    +0.000 A 
ATOM     14  C   UNL     1      -0.180  10.601  19.433  0.00  0.00    +0.000 A 
ATOM     15  C   UNL     1       0.721   9.542  19.561  0.00  0.00    +0.000 A 
ATOM     16  C   UNL     1       0.952   8.942  20.813  0.00  0.00    +0.000 A 
ATOM     17  C   UNL     1       0.252   9.418  21.932  0.00  0.00    +0.000 A 
ATOM     18  C   UNL     1      -0.639  10.485  21.803  0.00  0.00    +0.000 A 
ATOM     19 CL   UNL     1      -1.446  11.090  23.199  0.00  0.00    +0.000 Cl
ENDBRANCH  11  16
ENDBRANCH   1  11
BRANCH   7  20
ATOM     20  C   UNL     1       7.012   4.509  17.860  0.00  0.00    +0.000 C 
BRANCH  20  21
ATOM     21  N   UNL     1       7.222   4.348  16.410  0.00  0.00    +0.000 NA
ATOM     22  C   UNL     1       6.224   3.489  15.757  0.00  0.00    +0.000 C 
ATOM     23  C   UNL     1       5.515   4.317  14.699  0.00  0.00    +0.000 C 
ATOM     24  C   UNL     1       6.481   5.437  14.400  0.00  0.00    +0.000 C 
ATOM     25  F   UNL     1       7.363   5.031  13.449  0.00  0.00    +0.000 F 
ATOM     26  C   UNL     1       7.207   5.653  15.720  0.00  0.00    +0.000 C 
ENDBRANCH  20  21
ENDBRANCH   7  20
TORSDOF 4
ENDMDL
