MODEL 1
REMARK VINA RESULT:      -7.9      0.000      0.000
REMARK  Name = 
REMARK  7 active torsions:
REMARK  status: ('A' for Active; 'I' for Inactive)
REMARK    1  A    between atoms: C_1  and  O_2
REMARK    2  A    between atoms: O_2  and  C_3
REMARK    3  A    between atoms: C_7  and  C_8
REMARK    4  A    between atoms: N_10  and  N_11
REMARK    5  A    between atoms: N_11  and  S_12
REMARK    6  A    between atoms: S_12  and  C_15
REMARK    7  A    between atoms: C_18  and  C_19
REMARK                            x       y       z     vdW  Elec       q    Type
REMARK                         _______ _______ _______ _____ _____    ______ ____
ROOT
ATOM      1  C   UNL     1       6.233   4.934  16.059  0.00  0.00    +0.000 C 
ATOM      2  O   UNL     1       6.083   6.080  16.472  0.00  0.00    +0.000 OA
ATOM      3  N   UNL     1       6.187   3.824  16.882  0.00  0.00    +0.000 N 
ATOM      4  H   UNL     1       6.287   2.868  16.548  0.00  0.00    +0.000 HD
ENDROOT
BRANCH   1   9
ATOM      5  C   UNL     1       5.971   3.497  12.542  0.00  0.00    +0.000 A 
ATOM      6  C   UNL     1       7.038   4.154  11.924  0.00  0.00    +0.000 A 
ATOM      7  C   UNL     1       7.814   5.071  12.632  0.00  0.00    +0.000 A 
ATOM      8  C   UNL     1       7.540   5.327  13.976  0.00  0.00    +0.000 A 
ATOM      9  C   UNL     1       6.484   4.662  14.612  0.00  0.00    +0.000 A 
ATOM     10  C   UNL     1       5.687   3.768  13.884  0.00  0.00    +0.000 A 
BRANCH   5  12
ATOM     11  C   UNL     1       4.073   3.081  11.167  0.00  0.00    +0.000 C 
ATOM     12  O   UNL     1       5.292   2.618  11.745  0.00  0.00    +0.000 OA
ENDBRANCH   5  12
ENDBRANCH   1   9
BRANCH   3  13
ATOM     13  N   UNL     1       5.856   3.989  18.293  0.00  0.00    +0.000 NA
ATOM     14  H   UNL     1       6.173   4.849  18.754  0.00  0.00    +0.000 HD
BRANCH  13  15
ATOM     15  S   UNL     1       4.431   3.244  18.821  0.00  0.00    +0.000 S 
ATOM     16  O   UNL     1       3.809   2.644  17.661  0.00  0.00    +0.000 OA
ATOM     17  O   UNL     1       4.766   2.431  19.972  0.00  0.00    +0.000 OA
BRANCH  15  18
ATOM     18  C   UNL     1       3.424   4.602  19.352  0.00  0.00    +0.000 A 
ATOM     19  C   UNL     1       2.556   4.433  20.434  0.00  0.00    +0.000 A 
ATOM     20  C   UNL     1       1.811   5.518  20.901  0.00  0.00    +0.000 A 
ATOM     21  C   UNL     1       1.940   6.777  20.302  0.00  0.00    +0.000 A 
ATOM     22  C   UNL     1       1.157   7.955  20.810  0.00  0.00    +0.000 C 
ATOM     23  C   UNL     1       2.828   6.939  19.229  0.00  0.00    +0.000 A 
ATOM     24  C   UNL     1       3.575   5.857  18.756  0.00  0.00    +0.000 A 
ENDBRANCH  15  18
ENDBRANCH  13  15
ENDBRANCH   3  13
TORSDOF 5
ENDMDL
MODEL 2
REMARK VINA RESULT:      -7.8      1.609      2.314
REMARK  Name = 
REMARK  7 active torsions:
REMARK  status: ('A' for Active; 'I' for Inactive)
REMARK    1  A    between atoms: C_1  and  O_2
REMARK    2  A    between atoms: O_2  and  C_3
REMARK    3  A    between atoms: C_7  and  C_8
REMARK    4  A    between atoms: N_10  and  N_11
REMARK    5  A    between atoms: N_11  and  S_12
REMARK    6  A    between atoms: S_12  and  C_15
REMARK    7  A    between atoms: C_18  and  C_19
REMARK                            x       y       z     vdW  Elec       q    Type
REMARK                         _______ _______ _______ _____ _____    ______ ____
ROOT
ATOM      1  C   UNL     1       6.204   3.981  15.885  0.00  0.00    +0.000 C 
ATOM      2  O   UNL     1       5.133   3.659  16.390  0.00  0.00    +0.000 OA
ATOM      3  N   UNL     1       7.322   4.306  16.631  0.00  0.00    +0.000 N 
ATOM      4  H   UNL     1       8.221   4.553  16.223  0.00  0.00    +0.000 HD
ENDROOT
BRANCH   1   9
ATOM      5  C   UNL     1       5.735   3.377  12.154  0.00  0.00    +0.000 A 
ATOM      6  C   UNL     1       6.760   4.176  11.641  0.00  0.00    +0.000 A 
ATOM      7  C   UNL     1       7.574   4.922  12.493  0.00  0.00    +0.000 A 
ATOM      8  C   UNL     1       7.380   4.861  13.874  0.00  0.00    +0.000 A 
ATOM      9  C   UNL     1       6.368   4.050  14.402  0.00  0.00    +0.000 A 
ATOM     10  C   UNL     1       5.532   3.330  13.537  0.00  0.00    +0.000 A 
BRANCH   5  12
ATOM     11  C   UNL     1       3.753   3.245  10.843  0.00  0.00    +0.000 C 
ATOM     12  O   UNL     1       5.012   2.691  11.218  0.00  0.00    +0.000 OA
ENDBRANCH   5  12
ENDBRANCH   1   9
BRANCH   3  13
ATOM     13  N   UNL     1       7.279   4.177  18.083  0.00  0.00    +0.000 NA
ATOM     14  H   UNL     1       7.992   3.586  18.525  0.00  0.00    +0.000 HD
BRANCH  13  15
ATOM     15  S   UNL     1       6.655   5.500  18.935  0.00  0.00    +0.000 S 
ATOM     16  O   UNL     1       7.361   5.565  20.195  0.00  0.00    +0.000 OA
ATOM     17  O   UNL     1       6.657   6.636  18.037  0.00  0.00    +0.000 OA
BRANCH  15  18
ATOM     18  C   UNL     1       4.977   5.029  19.260  0.00  0.00    +0.000 A 
ATOM     19  C   UNL     1       4.693   3.712  19.629  0.00  0.00    +0.000 A 
ATOM     20  C   UNL     1       3.383   3.351  19.954  0.00  0.00    +0.000 A 
ATOM     21  C   UNL     1       2.358   4.303  19.927  0.00  0.00    +0.000 A 
ATOM     22  C   UNL     1       0.948   3.929  20.294  0.00  0.00    +0.000 C 
ATOM     23  C   UNL     1       2.659   5.626  19.573  0.00  0.00    +0.000 A 
ATOM     24  C   UNL     1       3.967   5.994  19.245  0.00  0.00    +0.000 A 
ENDBRANCH  15  18
ENDBRANCH  13  15
ENDBRANCH   3  13
TORSDOF 5
ENDMDL
MODEL 3
REMARK VINA RESULT:      -7.7      0.414      1.107
REMARK  Name = 
REMARK  7 active torsions:
REMARK  status: ('A' for Active; 'I' for Inactive)
REMARK    1  A    between atoms: C_1  and  O_2
REMARK    2  A    between atoms: O_2  and  C_3
REMARK    3  A    between atoms: C_7  and  C_8
REMARK    4  A    between atoms: N_10  and  N_11
REMARK    5  A    between atoms: N_11  and  S_12
REMARK    6  A    between atoms: S_12  and  C_15
REMARK    7  A    between atoms: C_18  and  C_19
REMARK                            x       y       z     vdW  Elec       q    Type
REMARK                         _______ _______ _______ _____ _____    ______ ____
ROOT
ATOM      1  C   UNL     1       6.322   4.704  16.045  0.00  0.00    +0.000 C 
ATOM      2  O   UNL     1       6.591   5.766  16.597  0.00  0.00    +0.000 OA
ATOM      3  N   UNL     1       5.807   3.613  16.722  0.00  0.00    +0.000 N 
ATOM      4  H   UNL     1       5.559   2.734  16.272  0.00  0.00    +0.000 HD
ENDROOT
BRANCH   1   9
ATOM      5  C   UNL     1       5.999   3.456  12.461  0.00  0.00    +0.000 A 
ATOM      6  C   UNL     1       7.036   4.169  11.855  0.00  0.00    +0.000 A 
ATOM      7  C   UNL     1       7.812   5.061  12.593  0.00  0.00    +0.000 A 
ATOM      8  C   UNL     1       7.567   5.238  13.956  0.00  0.00    +0.000 A 
ATOM      9  C   UNL     1       6.541   4.516  14.580  0.00  0.00    +0.000 A 
ATOM     10  C   UNL     1       5.743   3.647  13.824  0.00  0.00    +0.000 A 
BRANCH   5  12
ATOM     11  C   UNL     1       4.041   3.046  11.171  0.00  0.00    +0.000 C 
ATOM     12  O   UNL     1       5.317   2.608  11.634  0.00  0.00    +0.000 OA
ENDBRANCH   5  12
ENDBRANCH   1   9
BRANCH   3  13
ATOM     13  N   UNL     1       5.476   3.736  18.137  0.00  0.00    +0.000 NA
ATOM     14  H   UNL     1       5.960   4.466  18.672  0.00  0.00    +0.000 HD
BRANCH  13  15
ATOM     15  S   UNL     1       3.906   3.287  18.581  0.00  0.00    +0.000 S 
ATOM     16  O   UNL     1       3.210   2.918  17.368  0.00  0.00    +0.000 OA
ATOM     17  O   UNL     1       4.017   2.343  19.675  0.00  0.00    +0.000 OA
BRANCH  15  18
ATOM     18  C   UNL     1       3.200   4.793  19.192  0.00  0.00    +0.000 A 
ATOM     19  C   UNL     1       3.334   5.967  18.445  0.00  0.00    +0.000 A 
ATOM     20  C   UNL     1       2.722   7.142  18.886  0.00  0.00    +0.000 A 
ATOM     21  C   UNL     1       1.963   7.148  20.063  0.00  0.00    +0.000 A 
ATOM     22  C   UNL     1       1.284   8.404  20.535  0.00  0.00    +0.000 C 
ATOM     23  C   UNL     1       1.821   5.960  20.794  0.00  0.00    +0.000 A 
ATOM     24  C   UNL     1       2.432   4.781  20.359  0.00  0.00    +0.000 A 
ENDBRANCH  15  18
ENDBRANCH  13  15
ENDBRANCH   3  13
TORSDOF 5
ENDMDL
MODEL 4
REMARK VINA RESULT:      -7.7      1.615      2.448
REMARK  Name = 
REMARK  7 active torsions:
REMARK  status: ('A' for Active; 'I' for Inactive)
REMARK    1  A    between atoms: C_1  and  O_2
REMARK    2  A    between atoms: O_2  and  C_3
REMARK    3  A    between atoms: C_7  and  C_8
REMARK    4  A    between atoms: N_10  and  N_11
REMARK    5  A    between atoms: N_11  and  S_12
REMARK    6  A    between atoms: S_12  and  C_15
REMARK    7  A    between atoms: C_18  and  C_19
REMARK                            x       y       z     vdW  Elec       q    Type
REMARK                         _______ _______ _______ _____ _____    ______ ____
ROOT
ATOM      1  C   UNL     1       6.188   3.955  15.913  0.00  0.00    +0.000 C 
ATOM      2  O   UNL     1       5.114   3.625  16.407  0.00  0.00    +0.000 OA
ATOM      3  N   UNL     1       7.298   4.278  16.672  0.00  0.00    +0.000 N 
ATOM      4  H   UNL     1       8.200   4.531  16.274  0.00  0.00    +0.000 HD
ENDROOT
BRANCH   1   9
ATOM      5  C   UNL     1       5.766   3.362  12.175  0.00  0.00    +0.000 A 
ATOM      6  C   UNL     1       6.783   4.180  11.677  0.00  0.00    +0.000 A 
ATOM      7  C   UNL     1       7.577   4.933  12.541  0.00  0.00    +0.000 A 
ATOM      8  C   UNL     1       7.371   4.863  13.920  0.00  0.00    +0.000 A 
ATOM      9  C   UNL     1       6.366   4.033  14.433  0.00  0.00    +0.000 A 
ATOM     10  C   UNL     1       5.549   3.305  13.556  0.00  0.00    +0.000 A 
BRANCH   5  12
ATOM     11  C   UNL     1       3.784   3.187  10.869  0.00  0.00    +0.000 C 
ATOM     12  O   UNL     1       5.064   2.670  11.229  0.00  0.00    +0.000 OA
ENDBRANCH   5  12
ENDBRANCH   1   9
BRANCH   3  13
ATOM     13  N   UNL     1       7.242   4.140  18.123  0.00  0.00    +0.000 NA
ATOM     14  H   UNL     1       7.936   3.529  18.566  0.00  0.00    +0.000 HD
BRANCH  13  15
ATOM     15  S   UNL     1       6.645   5.472  18.980  0.00  0.00    +0.000 S 
ATOM     16  O   UNL     1       7.392   5.551  20.217  0.00  0.00    +0.000 OA
ATOM     17  O   UNL     1       6.619   6.599  18.071  0.00  0.00    +0.000 OA
BRANCH  15  18
ATOM     18  C   UNL     1       4.979   5.006  19.365  0.00  0.00    +0.000 A 
ATOM     19  C   UNL     1       3.953   5.944  19.225  0.00  0.00    +0.000 A 
ATOM     20  C   UNL     1       2.630   5.564  19.460  0.00  0.00    +0.000 A 
ATOM     21  C   UNL     1       2.324   4.246  19.821  0.00  0.00    +0.000 A 
ATOM     22  C   UNL     1       0.901   3.823  20.057  0.00  0.00    +0.000 C 
ATOM     23  C   UNL     1       3.360   3.309  19.940  0.00  0.00    +0.000 A 
ATOM     24  C   UNL     1       4.687   3.683  19.707  0.00  0.00    +0.000 A 
ENDBRANCH  15  18
ENDBRANCH  13  15
ENDBRANCH   3  13
TORSDOF 5
ENDMDL
MODEL 5
REMARK VINA RESULT:      -7.6      2.185      3.598
REMARK  Name = 
REMARK  7 active torsions:
REMARK  status: ('A' for Active; 'I' for Inactive)
REMARK    1  A    between atoms: C_1  and  O_2
REMARK    2  A    between atoms: O_2  and  C_3
REMARK    3  A    between atoms: C_7  and  C_8
REMARK    4  A    between atoms: N_10  and  N_11
REMARK    5  A    between atoms: N_11  and  S_12
REMARK    6  A    between atoms: S_12  and  C_15
REMARK    7  A    between atoms: C_18  and  C_19
REMARK                            x       y       z     vdW  Elec       q    Type
REMARK                         _______ _______ _______ _____ _____    ______ ____
ROOT
ATOM      1  C   UNL     1       4.813   3.378  18.961  0.00  0.00    +0.000 C 
ATOM      2  O   UNL     1       5.015   3.109  20.141  0.00  0.00    +0.000 OA
ATOM      3  N   UNL     1       3.805   2.793  18.217  0.00  0.00    +0.000 N 
ATOM      4  H   UNL     1       3.614   3.024  17.244  0.00  0.00    +0.000 HD
ENDROOT
BRANCH   1   9
ATOM      5  C   UNL     1       6.507   5.363  16.187  0.00  0.00    +0.000 A 
ATOM      6  C   UNL     1       7.314   6.214  16.947  0.00  0.00    +0.000 A 
ATOM      7  C   UNL     1       7.289   6.162  18.340  0.00  0.00    +0.000 A 
ATOM      8  C   UNL     1       6.464   5.242  18.990  0.00  0.00    +0.000 A 
ATOM      9  C   UNL     1       5.663   4.372  18.240  0.00  0.00    +0.000 A 
ATOM     10  C   UNL     1       5.669   4.453  16.840  0.00  0.00    +0.000 A 
BRANCH   5  12
ATOM     11  C   UNL     1       6.534   4.319  14.048  0.00  0.00    +0.000 C 
ATOM     12  O   UNL     1       6.628   5.506  14.833  0.00  0.00    +0.000 OA
ENDBRANCH   5  12
ENDBRANCH   1   9
BRANCH   3  13
ATOM     13  N   UNL     1       2.871   1.880  18.865  0.00  0.00    +0.000 NA
ATOM     14  H   UNL     1       3.259   1.031  19.290  0.00  0.00    +0.000 HD
BRANCH  13  15
ATOM     15  S   UNL     1       1.481   2.579  19.533  0.00  0.00    +0.000 S 
ATOM     16  O   UNL     1       0.353   2.101  18.763  0.00  0.00    +0.000 OA
ATOM     17  O   UNL     1       1.532   2.365  20.964  0.00  0.00    +0.000 OA
BRANCH  15  18
ATOM     18  C   UNL     1       1.687   4.308  19.203  0.00  0.00    +0.000 A 
ATOM     19  C   UNL     1       1.961   5.181  20.259  0.00  0.00    +0.000 A 
ATOM     20  C   UNL     1       2.192   6.533  19.998  0.00  0.00    +0.000 A 
ATOM     21  C   UNL     1       2.166   7.017  18.684  0.00  0.00    +0.000 A 
ATOM     22  C   UNL     1       2.432   8.467  18.391  0.00  0.00    +0.000 C 
ATOM     23  C   UNL     1       1.907   6.127  17.631  0.00  0.00    +0.000 A 
ATOM     24  C   UNL     1       1.674   4.773  17.886  0.00  0.00    +0.000 A 
ENDBRANCH  15  18
ENDBRANCH  13  15
ENDBRANCH   3  13
TORSDOF 5
ENDMDL
MODEL 6
REMARK VINA RESULT:      -7.6      5.715      7.489
REMARK  Name = 
REMARK  7 active torsions:
REMARK  status: ('A' for Active; 'I' for Inactive)
REMARK    1  A    between atoms: C_1  and  O_2
REMARK    2  A    between atoms: O_2  and  C_3
REMARK    3  A    between atoms: C_7  and  C_8
REMARK    4  A    between atoms: N_10  and  N_11
REMARK    5  A    between atoms: N_11  and  S_12
REMARK    6  A    between atoms: S_12  and  C_15
REMARK    7  A    between atoms: C_18  and  C_19
REMARK                            x       y       z     vdW  Elec       q    Type
REMARK                         _______ _______ _______ _____ _____    ______ ____
ROOT
ATOM      1  C   UNL     1       8.289   9.203  18.216  0.00  0.00    +0.000 C 
ATOM      2  O   UNL     1       7.417   9.577  17.438  0.00  0.00    +0.000 OA
ATOM      3  N   UNL     1       8.472   7.877  18.564  0.00  0.00    +0.000 N 
ATOM      4  H   UNL     1       9.205   7.554  19.191  0.00  0.00    +0.000 HD
ENDROOT
BRANCH   1   9
ATOM      5  C   UNL     1      11.104  11.715  18.737  0.00  0.00    +0.000 A 
ATOM      6  C   UNL     1      10.980  11.948  20.110  0.00  0.00    +0.000 A 
ATOM      7  C   UNL     1       9.979  11.319  20.849  0.00  0.00    +0.000 A 
ATOM      8  C   UNL     1       9.100  10.434  20.224  0.00  0.00    +0.000 A 
ATOM      9  C   UNL     1       9.225  10.178  18.852  0.00  0.00    +0.000 A 
ATOM     10  C   UNL     1      10.212  10.841  18.109  0.00  0.00    +0.000 A 
BRANCH   5  12
ATOM     11  C   UNL     1      12.273  13.768  18.445  0.00  0.00    +0.000 C 
ATOM     12  O   UNL     1      12.127  12.385  18.127  0.00  0.00    +0.000 OA
ENDBRANCH   5  12
ENDBRANCH   1   9
BRANCH   3  13
ATOM     13  N   UNL     1       7.663   6.848  17.921  0.00  0.00    +0.000 NA
ATOM     14  H   UNL     1       7.698   6.793  16.897  0.00  0.00    +0.000 HD
BRANCH  13  15
ATOM     15  S   UNL     1       7.391   5.438  18.817  0.00  0.00    +0.000 S 
ATOM     16  O   UNL     1       8.133   4.376  18.173  0.00  0.00    +0.000 OA
ATOM     17  O   UNL     1       7.630   5.756  20.210  0.00  0.00    +0.000 OA
BRANCH  15  18
ATOM     18  C   UNL     1       5.662   5.127  18.588  0.00  0.00    +0.000 A 
ATOM     19  C   UNL     1       4.867   6.095  17.967  0.00  0.00    +0.000 A 
ATOM     20  C   UNL     1       3.518   5.829  17.721  0.00  0.00    +0.000 A 
ATOM     21  C   UNL     1       2.962   4.594  18.078  0.00  0.00    +0.000 A 
ATOM     22  C   UNL     1       1.516   4.291  17.799  0.00  0.00    +0.000 C 
ATOM     23  C   UNL     1       3.775   3.625  18.683  0.00  0.00    +0.000 A 
ATOM     24  C   UNL     1       5.125   3.885  18.933  0.00  0.00    +0.000 A 
ENDBRANCH  15  18
ENDBRANCH  13  15
ENDBRANCH   3  13
TORSDOF 5
ENDMDL
MODEL 7
REMARK VINA RESULT:      -7.5      2.681      3.846
REMARK  Name = 
REMARK  7 active torsions:
REMARK  status: ('A' for Active; 'I' for Inactive)
REMARK    1  A    between atoms: C_1  and  O_2
REMARK    2  A    between atoms: O_2  and  C_3
REMARK    3  A    between atoms: C_7  and  C_8
REMARK    4  A    between atoms: N_10  and  N_11
REMARK    5  A    between atoms: N_11  and  S_12
REMARK    6  A    between atoms: S_12  and  C_15
REMARK    7  A    between atoms: C_18  and  C_19
REMARK                            x       y       z     vdW  Elec       q    Type
REMARK                         _______ _______ _______ _____ _____    ______ ____
ROOT
ATOM      1  C   UNL     1       5.016   3.724  18.880  0.00  0.00    +0.000 C 
ATOM      2  O   UNL     1       5.298   4.126  20.005  0.00  0.00    +0.000 OA
ATOM      3  N   UNL     1       4.082   2.731  18.647  0.00  0.00    +0.000 N 
ATOM      4  H   UNL     1       3.824   2.405  17.718  0.00  0.00    +0.000 HD
ENDROOT
BRANCH   1   9
ATOM      5  C   UNL     1       7.083   5.956  16.589  0.00  0.00    +0.000 A 
ATOM      6  C   UNL     1       6.851   5.334  15.359  0.00  0.00    +0.000 A 
ATOM      7  C   UNL     1       6.057   4.191  15.280  0.00  0.00    +0.000 A 
ATOM      8  C   UNL     1       5.470   3.666  16.433  0.00  0.00    +0.000 A 
ATOM      9  C   UNL     1       5.681   4.290  17.669  0.00  0.00    +0.000 A 
ATOM     10  C   UNL     1       6.508   5.419  17.746  0.00  0.00    +0.000 A 
BRANCH   5  12
ATOM     11  C   UNL     1       7.738   8.009  17.600  0.00  0.00    +0.000 C 
ATOM     12  O   UNL     1       7.871   7.071  16.534  0.00  0.00    +0.000 OA
ENDBRANCH   5  12
ENDBRANCH   1   9
BRANCH   3  13
ATOM     13  N   UNL     1       3.319   2.187  19.764  0.00  0.00    +0.000 NA
ATOM     14  H   UNL     1       3.844   1.891  20.595  0.00  0.00    +0.000 HD
BRANCH  13  15
ATOM     15  S   UNL     1       1.739   2.767  19.947  0.00  0.00    +0.000 S 
ATOM     16  O   UNL     1       0.913   2.056  18.996  0.00  0.00    +0.000 OA
ATOM     17  O   UNL     1       1.424   2.730  21.360  0.00  0.00    +0.000 OA
BRANCH  15  18
ATOM     18  C   UNL     1       1.855   4.458  19.429  0.00  0.00    +0.000 A 
ATOM     19  C   UNL     1       2.077   5.455  20.382  0.00  0.00    +0.000 A 
ATOM     20  C   UNL     1       2.239   6.780  19.974  0.00  0.00    +0.000 A 
ATOM     21  C   UNL     1       2.194   7.114  18.615  0.00  0.00    +0.000 A 
ATOM     22  C   UNL     1       2.386   8.535  18.163  0.00  0.00    +0.000 C 
ATOM     23  C   UNL     1       1.990   6.102  17.666  0.00  0.00    +0.000 A 
ATOM     24  C   UNL     1       1.826   4.773  18.068  0.00  0.00    +0.000 A 
ENDBRANCH  15  18
ENDBRANCH  13  15
ENDBRANCH   3  13
TORSDOF 5
ENDMDL
MODEL 8
REMARK VINA RESULT:      -7.5      1.916      2.677
REMARK  Name = 
REMARK  7 active torsions:
REMARK  status: ('A' for Active; 'I' for Inactive)
REMARK    1  A    between atoms: C_1  and  O_2
REMARK    2  A    between atoms: O_2  and  C_3
REMARK    3  A    between atoms: C_7  and  C_8
REMARK    4  A    between atoms: N_10  and  N_11
REMARK    5  A    between atoms: N_11  and  S_12
REMARK    6  A    between atoms: S_12  and  C_15
REMARK    7  A    between atoms: C_18  and  C_19
REMARK                            x       y       z     vdW  Elec       q    Type
REMARK                         _______ _______ _______ _____ _____    ______ ____
ROOT
ATOM      1  C   UNL     1       5.466   3.987  18.826  0.00  0.00    +0.000 C 
ATOM      2  O   UNL     1       5.748   4.708  19.778  0.00  0.00    +0.000 OA
ATOM      3  N   UNL     1       4.692   2.847  18.948  0.00  0.00    +0.000 N 
ATOM      4  H   UNL     1       4.433   2.253  18.164  0.00  0.00    +0.000 HD
ENDROOT
BRANCH   1   9
ATOM      5  C   UNL     1       5.704   4.232  15.033  0.00  0.00    +0.000 A 
ATOM      6  C   UNL     1       6.946   4.857  14.901  0.00  0.00    +0.000 A 
ATOM      7  C   UNL     1       7.683   5.219  16.028  0.00  0.00    +0.000 A 
ATOM      8  C   UNL     1       7.190   4.941  17.304  0.00  0.00    +0.000 A 
ATOM      9  C   UNL     1       5.954   4.298  17.450  0.00  0.00    +0.000 A 
ATOM     10  C   UNL     1       5.203   3.969  16.313  0.00  0.00    +0.000 A 
BRANCH   5  12
ATOM     11  C   UNL     1       5.922   3.570  12.757  0.00  0.00    +0.000 C 
ATOM     12  O   UNL     1       5.083   3.922  13.856  0.00  0.00    +0.000 OA
ENDBRANCH   5  12
ENDBRANCH   1   9
BRANCH   3  13
ATOM     13  N   UNL     1       4.098   2.517  20.238  0.00  0.00    +0.000 NA
ATOM     14  H   UNL     1       4.707   2.559  21.063  0.00  0.00    +0.000 HD
BRANCH  13  15
ATOM     15  S   UNL     1       2.447   2.852  20.411  0.00  0.00    +0.000 S 
ATOM     16  O   UNL     1       1.733   1.899  19.590  0.00  0.00    +0.000 OA
ATOM     17  O   UNL     1       2.169   2.947  21.830  0.00  0.00    +0.000 OA
BRANCH  15  18
ATOM     18  C   UNL     1       2.271   4.457  19.683  0.00  0.00    +0.000 A 
ATOM     19  C   UNL     1       2.472   5.595  20.469  0.00  0.00    +0.000 A 
ATOM     20  C   UNL     1       2.402   6.862  19.886  0.00  0.00    +0.000 A 
ATOM     21  C   UNL     1       2.147   6.999  18.516  0.00  0.00    +0.000 A 
ATOM     22  C   UNL     1       2.089   8.357  17.875  0.00  0.00    +0.000 C 
ATOM     23  C   UNL     1       1.965   5.849  17.734  0.00  0.00    +0.000 A 
ATOM     24  C   UNL     1       2.032   4.578  18.312  0.00  0.00    +0.000 A 
ENDBRANCH  15  18
ENDBRANCH  13  15
ENDBRANCH   3  13
TORSDOF 5
ENDMDL
MODEL 9
REMARK VINA RESULT:      -7.4      2.511      3.250
REMARK  Name = 
REMARK  7 active torsions:
REMARK  status: ('A' for Active; 'I' for Inactive)
REMARK    1  A    between atoms: C_1  and  O_2
REMARK    2  A    between atoms: O_2  and  C_3
REMARK    3  A    between atoms: C_7  and  C_8
REMARK    4  A    between atoms: N_10  and  N_11
REMARK    5  A    between atoms: N_11  and  S_12
REMARK    6  A    between atoms: S_12  and  C_15
REMARK    7  A    between atoms: C_18  and  C_19
REMARK                            x       y       z     vdW  Elec       q    Type
REMARK                         _______ _______ _______ _____ _____    ______ ____
ROOT
ATOM      1  C   UNL     1       7.233   4.934  13.642  0.00  0.00    +0.000 C 
ATOM      2  O   UNL     1       8.232   5.571  13.323  0.00  0.00    +0.000 OA
ATOM      3  N   UNL     1       6.615   5.068  14.873  0.00  0.00    +0.000 N 
ATOM      4  H   UNL     1       5.774   4.562  15.141  0.00  0.00    +0.000 HD
ENDROOT
BRANCH   1   9
ATOM      5  C   UNL     1       4.683   3.059  11.525  0.00  0.00    +0.000 A 
ATOM      6  C   UNL     1       5.494   2.055  10.989  0.00  0.00    +0.000 A 
ATOM      7  C   UNL     1       6.854   2.005  11.289  0.00  0.00    +0.000 A 
ATOM      8  C   UNL     1       7.416   2.952  12.147  0.00  0.00    +0.000 A 
ATOM      9  C   UNL     1       6.610   3.953  12.705  0.00  0.00    +0.000 A 
ATOM     10  C   UNL     1       5.251   4.017  12.371  0.00  0.00    +0.000 A 
BRANCH   5  12
ATOM     11  C   UNL     1       3.001   3.654   9.949  0.00  0.00    +0.000 C 
ATOM     12  O   UNL     1       3.367   2.996  11.161  0.00  0.00    +0.000 OA
ENDBRANCH   5  12
ENDBRANCH   1   9
BRANCH   3  13
ATOM     13  N   UNL     1       7.101   6.069  15.815  0.00  0.00    +0.000 NA
ATOM     14  H   UNL     1       6.894   7.053  15.606  0.00  0.00    +0.000 HD
BRANCH  13  15
ATOM     15  S   UNL     1       7.237   5.578  17.429  0.00  0.00    +0.000 S 
ATOM     16  O   UNL     1       8.020   4.361  17.438  0.00  0.00    +0.000 OA
ATOM     17  O   UNL     1       7.665   6.727  18.199  0.00  0.00    +0.000 OA
BRANCH  15  18
ATOM     18  C   UNL     1       5.572   5.171  17.881  0.00  0.00    +0.000 A 
ATOM     19  C   UNL     1       4.542   6.068  17.586  0.00  0.00    +0.000 A 
ATOM     20  C   UNL     1       3.220   5.725  17.877  0.00  0.00    +0.000 A 
ATOM     21  C   UNL     1       2.919   4.482  18.448  0.00  0.00    +0.000 A 
ATOM     22  C   UNL     1       1.498   4.095  18.747  0.00  0.00    +0.000 C 
ATOM     23  C   UNL     1       3.960   3.583  18.723  0.00  0.00    +0.000 A 
ATOM     24  C   UNL     1       5.285   3.922  18.435  0.00  0.00    +0.000 A 
ENDBRANCH  15  18
ENDBRANCH  13  15
ENDBRANCH   3  13
TORSDOF 5
ENDMDL
