MODEL 1
REMARK VINA RESULT:      -8.6      0.000      0.000
REMARK  Name = 
REMARK  5 active torsions:
REMARK  status: ('A' for Active; 'I' for Inactive)
REMARK    1  A    between atoms: N_3  and  C_4
REMARK    2  A    between atoms: N_11  and  C_12
REMARK    3  A    between atoms: C_21  and  O_22
REMARK    4  A    between atoms: O_22  and  C_23
REMARK    5  A    between atoms: C_23  and  C_24
REMARK                            x       y       z     vdW  Elec       q    Type
REMARK                         _______ _______ _______ _____ _____    ______ ____
ROOT
ATOM      1  C   UNL     1       5.754   4.688  16.691  0.00  0.00    +0.000 A 
ATOM      2  C   UNL     1       6.785   5.241  15.913  0.00  0.00    +0.000 A 
ATOM      3  C   UNL     1       6.931   4.952  14.567  0.00  0.00    +0.000 A 
ATOM      4  N   UNL     1       7.990   5.434  13.905  0.00  0.00    +0.000 NA
ATOM      5  C   UNL     1       8.106   5.088  12.614  0.00  0.00    +0.000 A 
ATOM      6  N   UNL     1       7.255   4.315  11.928  0.00  0.00    +0.000 NA
ATOM      7  C   UNL     1       6.195   3.858  12.625  0.00  0.00    +0.000 A 
ATOM      8  C   UNL     1       5.971   4.132  13.969  0.00  0.00    +0.000 A 
ATOM      9  C   UNL     1       4.879   3.635  14.717  0.00  0.00    +0.000 A 
ATOM     10  C   UNL     1       4.754   3.918  16.082  0.00  0.00    +0.000 A 
ENDROOT
BRANCH   1  14
ATOM     11  O   UNL     1       5.264   5.709  20.057  0.00  0.00    +0.000 OA
ATOM     12  C   UNL     1       4.991   5.665  18.861  0.00  0.00    +0.000 C 
ATOM     13  N   UNL     1       3.878   6.203  18.271  0.00  0.00    +0.000 N 
ATOM     14  N   UNL     1       5.842   4.948  18.064  0.00  0.00    +0.000 N 
ATOM     15  H   UNL     1       3.655   5.871  17.343  0.00  0.00    +0.000 HD
ATOM     16  H   UNL     1       6.356   4.286  18.636  0.00  0.00    +0.000 HD
BRANCH  13  17
ATOM     17  C   UNL     1       2.897   6.991  18.914  0.00  0.00    +0.000 A 
ATOM     18  C   UNL     1       2.321   6.637  20.140  0.00  0.00    +0.000 A 
ATOM     19  C   UNL     1       1.355   7.449  20.742  0.00  0.00    +0.000 A 
ATOM     20  C   UNL     1       0.952   8.626  20.119  0.00  0.00    +0.000 A 
ATOM     21  C   UNL     1       1.526   8.980  18.905  0.00  0.00    +0.000 A 
ATOM     22  F   UNL     1       1.131  10.108  18.298  0.00  0.00    +0.000 F 
ATOM     23  C   UNL     1       2.499   8.184  18.302  0.00  0.00    +0.000 A 
ENDBRANCH  13  17
ENDBRANCH   1  14
BRANCH  10  24
ATOM     24  O   UNL     1       3.633   3.386  16.664  0.00  0.00    +0.000 OA
BRANCH  24  25
ATOM     25  C   UNL     1       3.814   2.357  17.651  0.00  0.00    +0.000 C 
BRANCH  25  26
ATOM     26  C   UNL     1       2.927   2.629  18.843  0.00  0.00    +0.000 A 
ATOM     27  C   UNL     1       1.558   2.889  18.683  0.00  0.00    +0.000 A 
ATOM     28  C   UNL     1       0.748   3.146  19.795  0.00  0.00    +0.000 A 
ATOM     29  C   UNL     1       1.293   3.134  21.078  0.00  0.00    +0.000 A 
ATOM     30  C   UNL     1       2.644   2.843  21.252  0.00  0.00    +0.000 A 
ATOM     31  C   UNL     1       3.445   2.589  20.141  0.00  0.00    +0.000 A 
ATOM     32  F   UNL     1       4.738   2.294  20.338  0.00  0.00    +0.000 F 
ENDBRANCH  25  26
ENDBRANCH  24  25
ENDBRANCH  10  24
TORSDOF 5
ENDMDL
MODEL 2
REMARK VINA RESULT:      -8.4      0.823      1.204
REMARK  Name = 
REMARK  5 active torsions:
REMARK  status: ('A' for Active; 'I' for Inactive)
REMARK    1  A    between atoms: N_3  and  C_4
REMARK    2  A    between atoms: N_11  and  C_12
REMARK    3  A    between atoms: C_21  and  O_22
REMARK    4  A    between atoms: O_22  and  C_23
REMARK    5  A    between atoms: C_23  and  C_24
REMARK                            x       y       z     vdW  Elec       q    Type
REMARK                         _______ _______ _______ _____ _____    ______ ____
ROOT
ATOM      1  C   UNL     1       5.476   4.665  16.720  0.00  0.00    +0.000 A 
ATOM      2  C   UNL     1       6.517   5.276  16.001  0.00  0.00    +0.000 A 
ATOM      3  C   UNL     1       6.778   4.968  14.676  0.00  0.00    +0.000 A 
ATOM      4  N   UNL     1       7.845   5.511  14.076  0.00  0.00    +0.000 NA
ATOM      5  C   UNL     1       8.077   5.145  12.806  0.00  0.00    +0.000 A 
ATOM      6  N   UNL     1       7.335   4.296  12.085  0.00  0.00    +0.000 NA
ATOM      7  C   UNL     1       6.263   3.778  12.719  0.00  0.00    +0.000 A 
ATOM      8  C   UNL     1       5.925   4.066  14.037  0.00  0.00    +0.000 A 
ATOM      9  C   UNL     1       4.822   3.506  14.721  0.00  0.00    +0.000 A 
ATOM     10  C   UNL     1       4.579   3.811  16.065  0.00  0.00    +0.000 A 
ENDROOT
BRANCH   1  14
ATOM     11  O   UNL     1       4.771   5.879  19.983  0.00  0.00    +0.000 OA
ATOM     12  C   UNL     1       4.632   5.830  18.764  0.00  0.00    +0.000 C 
ATOM     13  N   UNL     1       3.688   6.506  18.036  0.00  0.00    +0.000 N 
ATOM     14  N   UNL     1       5.447   4.963  18.088  0.00  0.00    +0.000 N 
ATOM     15  H   UNL     1       3.523   6.175  17.096  0.00  0.00    +0.000 HD
ATOM     16  H   UNL     1       5.785   4.254  18.730  0.00  0.00    +0.000 HD
BRANCH  13  17
ATOM     17  C   UNL     1       2.774   7.456  18.543  0.00  0.00    +0.000 A 
ATOM     18  C   UNL     1       2.346   8.568  17.808  0.00  0.00    +0.000 A 
ATOM     19  C   UNL     1       1.438   9.482  18.350  0.00  0.00    +0.000 A 
ATOM     20  C   UNL     1       0.950   9.294  19.638  0.00  0.00    +0.000 A 
ATOM     21  C   UNL     1       1.370   8.188  20.368  0.00  0.00    +0.000 A 
ATOM     22  F   UNL     1       0.909   8.012  21.613  0.00  0.00    +0.000 F 
ATOM     23  C   UNL     1       2.267   7.264  19.832  0.00  0.00    +0.000 A 
ENDBRANCH  13  17
ENDBRANCH   1  14
BRANCH  10  24
ATOM     24  O   UNL     1       3.462   3.211  16.583  0.00  0.00    +0.000 OA
BRANCH  24  25
ATOM     25  C   UNL     1       3.642   2.257  17.644  0.00  0.00    +0.000 C 
BRANCH  25  26
ATOM     26  C   UNL     1       2.855   2.690  18.859  0.00  0.00    +0.000 A 
ATOM     27  C   UNL     1       1.561   3.217  18.734  0.00  0.00    +0.000 A 
ATOM     28  C   UNL     1       0.846   3.619  19.868  0.00  0.00    +0.000 A 
ATOM     29  C   UNL     1       1.408   3.488  21.137  0.00  0.00    +0.000 A 
ATOM     30  C   UNL     1       2.678   2.934  21.276  0.00  0.00    +0.000 A 
ATOM     31  C   UNL     1       3.386   2.536  20.143  0.00  0.00    +0.000 A 
ATOM     32  F   UNL     1       4.599   1.990  20.307  0.00  0.00    +0.000 F 
ENDBRANCH  25  26
ENDBRANCH  24  25
ENDBRANCH  10  24
TORSDOF 5
ENDMDL
MODEL 3
REMARK VINA RESULT:      -8.3      2.620      7.498
REMARK  Name = 
REMARK  5 active torsions:
REMARK  status: ('A' for Active; 'I' for Inactive)
REMARK    1  A    between atoms: N_3  and  C_4
REMARK    2  A    between atoms: N_11  and  C_12
REMARK    3  A    between atoms: C_21  and  O_22
REMARK    4  A    between atoms: O_22  and  C_23
REMARK    5  A    between atoms: C_23  and  C_24
REMARK                            x       y       z     vdW  Elec       q    Type
REMARK                         _______ _______ _______ _____ _____    ______ ____
ROOT
ATOM      1  C   UNL     1       4.558   5.927  18.383  0.00  0.00    +0.000 A 
ATOM      2  C   UNL     1       4.532   4.618  18.892  0.00  0.00    +0.000 A 
ATOM      3  C   UNL     1       3.423   4.101  19.542  0.00  0.00    +0.000 A 
ATOM      4  N   UNL     1       3.495   2.882  20.091  0.00  0.00    +0.000 NA
ATOM      5  C   UNL     1       2.408   2.447  20.745  0.00  0.00    +0.000 A 
ATOM      6  N   UNL     1       1.258   3.116  20.890  0.00  0.00    +0.000 NA
ATOM      7  C   UNL     1       1.219   4.336  20.315  0.00  0.00    +0.000 A 
ATOM      8  C   UNL     1       2.283   4.904  19.623  0.00  0.00    +0.000 A 
ATOM      9  C   UNL     1       2.264   6.192  19.041  0.00  0.00    +0.000 A 
ATOM     10  C   UNL     1       3.397   6.710  18.404  0.00  0.00    +0.000 A 
ENDROOT
BRANCH   1  14
ATOM     11  O   UNL     1       7.491   6.607  16.498  0.00  0.00    +0.000 OA
ATOM     12  C   UNL     1       6.407   6.070  16.707  0.00  0.00    +0.000 C 
ATOM     13  N   UNL     1       5.719   5.280  15.823  0.00  0.00    +0.000 N 
ATOM     14  N   UNL     1       5.803   6.351  17.902  0.00  0.00    +0.000 N 
ATOM     15  H   UNL     1       4.741   5.126  16.025  0.00  0.00    +0.000 HD
ATOM     16  H   UNL     1       6.175   7.221  18.267  0.00  0.00    +0.000 HD
BRANCH  13  17
ATOM     17  C   UNL     1       6.178   4.860  14.555  0.00  0.00    +0.000 A 
ATOM     18  C   UNL     1       7.350   5.353  13.969  0.00  0.00    +0.000 A 
ATOM     19  C   UNL     1       7.768   4.906  12.712  0.00  0.00    +0.000 A 
ATOM     20  C   UNL     1       7.014   3.962  12.025  0.00  0.00    +0.000 A 
ATOM     21  C   UNL     1       5.852   3.468  12.608  0.00  0.00    +0.000 A 
ATOM     22  F   UNL     1       5.119   2.566  11.942  0.00  0.00    +0.000 F 
ATOM     23  C   UNL     1       5.433   3.898  13.866  0.00  0.00    +0.000 A 
ENDBRANCH  13  17
ENDBRANCH   1  14
BRANCH  10  24
ATOM     24  O   UNL     1       3.218   7.960  17.871  0.00  0.00    +0.000 OA
BRANCH  24  25
ATOM     25  C   UNL     1       1.870   8.434  17.709  0.00  0.00    +0.000 C 
BRANCH  25  26
ATOM     26  C   UNL     1       1.707   9.761  18.413  0.00  0.00    +0.000 A 
ATOM     27  C   UNL     1       2.223  10.943  17.860  0.00  0.00    +0.000 A 
ATOM     28  C   UNL     1       2.070  12.164  18.526  0.00  0.00    +0.000 A 
ATOM     29  C   UNL     1       1.391  12.221  19.743  0.00  0.00    +0.000 A 
ATOM     30  C   UNL     1       0.845  11.060  20.284  0.00  0.00    +0.000 A 
ATOM     31  C   UNL     1       1.002   9.846  19.617  0.00  0.00    +0.000 A 
ATOM     32  F   UNL     1       0.451   8.747  20.152  0.00  0.00    +0.000 F 
ENDBRANCH  25  26
ENDBRANCH  24  25
ENDBRANCH  10  24
TORSDOF 5
ENDMDL
MODEL 4
REMARK VINA RESULT:      -8.2      2.602      7.213
REMARK  Name = 
REMARK  5 active torsions:
REMARK  status: ('A' for Active; 'I' for Inactive)
REMARK    1  A    between atoms: N_3  and  C_4
REMARK    2  A    between atoms: N_11  and  C_12
REMARK    3  A    between atoms: C_21  and  O_22
REMARK    4  A    between atoms: O_22  and  C_23
REMARK    5  A    between atoms: C_23  and  C_24
REMARK                            x       y       z     vdW  Elec       q    Type
REMARK                         _______ _______ _______ _____ _____    ______ ____
ROOT
ATOM      1  C   UNL     1       4.186   5.635  18.506  0.00  0.00    +0.000 A 
ATOM      2  C   UNL     1       4.386   4.435  19.207  0.00  0.00    +0.000 A 
ATOM      3  C   UNL     1       3.357   3.790  19.874  0.00  0.00    +0.000 A 
ATOM      4  N   UNL     1       3.632   2.703  20.606  0.00  0.00    +0.000 NA
ATOM      5  C   UNL     1       2.607   2.142  21.266  0.00  0.00    +0.000 A 
ATOM      6  N   UNL     1       1.337   2.565  21.251  0.00  0.00    +0.000 NA
ATOM      7  C   UNL     1       1.098   3.656  20.495  0.00  0.00    +0.000 A 
ATOM      8  C   UNL     1       2.076   4.335  19.777  0.00  0.00    +0.000 A 
ATOM      9  C   UNL     1       1.841   5.496  19.004  0.00  0.00    +0.000 A 
ATOM     10  C   UNL     1       2.892   6.149  18.351  0.00  0.00    +0.000 A 
ENDROOT
BRANCH   1  14
ATOM     11  O   UNL     1       6.995   6.738  16.632  0.00  0.00    +0.000 OA
ATOM     12  C   UNL     1       6.008   6.039  16.842  0.00  0.00    +0.000 C 
ATOM     13  N   UNL     1       5.464   5.133  15.970  0.00  0.00    +0.000 N 
ATOM     14  N   UNL     1       5.353   6.243  18.027  0.00  0.00    +0.000 N 
ATOM     15  H   UNL     1       4.521   4.829  16.166  0.00  0.00    +0.000 HD
ATOM     16  H   UNL     1       5.578   7.168  18.377  0.00  0.00    +0.000 HD
BRANCH  13  17
ATOM     17  C   UNL     1       5.999   4.768  14.714  0.00  0.00    +0.000 A 
ATOM     18  C   UNL     1       7.281   5.142  14.295  0.00  0.00    +0.000 A 
ATOM     19  C   UNL     1       7.770   4.755  13.044  0.00  0.00    +0.000 A 
ATOM     20  C   UNL     1       6.978   3.990  12.195  0.00  0.00    +0.000 A 
ATOM     21  C   UNL     1       5.706   3.614  12.612  0.00  0.00    +0.000 A 
ATOM     22  F   UNL     1       4.938   2.886  11.791  0.00  0.00    +0.000 F 
ATOM     23  C   UNL     1       5.213   3.984  13.863  0.00  0.00    +0.000 A 
ENDBRANCH  13  17
ENDBRANCH   1  14
BRANCH  10  24
ATOM     24  O   UNL     1       2.506   7.245  17.625  0.00  0.00    +0.000 OA
BRANCH  24  25
ATOM     25  C   UNL     1       2.761   8.545  18.183  0.00  0.00    +0.000 C 
BRANCH  25  26
ATOM     26  C   UNL     1       1.471   9.146  18.690  0.00  0.00    +0.000 A 
ATOM     27  C   UNL     1       0.587   9.802  17.821  0.00  0.00    +0.000 A 
ATOM     28  C   UNL     1      -0.602  10.360  18.305  0.00  0.00    +0.000 A 
ATOM     29  C   UNL     1      -0.927  10.258  19.657  0.00  0.00    +0.000 A 
ATOM     30  C   UNL     1      -0.073   9.578  20.523  0.00  0.00    +0.000 A 
ATOM     31  C   UNL     1       1.110   9.026  20.035  0.00  0.00    +0.000 A 
ATOM     32  F   UNL     1       1.905   8.363  20.887  0.00  0.00    +0.000 F 
ENDBRANCH  25  26
ENDBRANCH  24  25
ENDBRANCH  10  24
TORSDOF 5
ENDMDL
MODEL 5
REMARK VINA RESULT:      -8.2      2.673      7.189
REMARK  Name = 
REMARK  5 active torsions:
REMARK  status: ('A' for Active; 'I' for Inactive)
REMARK    1  A    between atoms: N_3  and  C_4
REMARK    2  A    between atoms: N_11  and  C_12
REMARK    3  A    between atoms: C_21  and  O_22
REMARK    4  A    between atoms: O_22  and  C_23
REMARK    5  A    between atoms: C_23  and  C_24
REMARK                            x       y       z     vdW  Elec       q    Type
REMARK                         _______ _______ _______ _____ _____    ______ ____
ROOT
ATOM      1  C   UNL     1       4.215   5.568  18.569  0.00  0.00    +0.000 A 
ATOM      2  C   UNL     1       4.401   4.403  19.332  0.00  0.00    +0.000 A 
ATOM      3  C   UNL     1       3.360   3.791  20.010  0.00  0.00    +0.000 A 
ATOM      4  N   UNL     1       3.620   2.741  20.798  0.00  0.00    +0.000 NA
ATOM      5  C   UNL     1       2.583   2.213  21.465  0.00  0.00    +0.000 A 
ATOM      6  N   UNL     1       1.314   2.634  21.407  0.00  0.00    +0.000 NA
ATOM      7  C   UNL     1       1.089   3.687  20.594  0.00  0.00    +0.000 A 
ATOM      8  C   UNL     1       2.080   4.330  19.862  0.00  0.00    +0.000 A 
ATOM      9  C   UNL     1       1.861   5.452  19.030  0.00  0.00    +0.000 A 
ATOM     10  C   UNL     1       2.924   6.074  18.366  0.00  0.00    +0.000 A 
ENDROOT
BRANCH   1  14
ATOM     11  O   UNL     1       7.023   6.630  16.671  0.00  0.00    +0.000 OA
ATOM     12  C   UNL     1       6.020   5.955  16.884  0.00  0.00    +0.000 C 
ATOM     13  N   UNL     1       5.436   5.084  16.002  0.00  0.00    +0.000 N 
ATOM     14  N   UNL     1       5.391   6.152  18.083  0.00  0.00    +0.000 N 
ATOM     15  H   UNL     1       4.488   4.802  16.208  0.00  0.00    +0.000 HD
ATOM     16  H   UNL     1       5.648   7.064  18.448  0.00  0.00    +0.000 HD
BRANCH  13  17
ATOM     17  C   UNL     1       5.940   4.729  14.731  0.00  0.00    +0.000 A 
ATOM     18  C   UNL     1       5.297   3.819  13.884  0.00  0.00    +0.000 A 
ATOM     19  C   UNL     1       5.832   3.499  12.632  0.00  0.00    +0.000 A 
ATOM     20  C   UNL     1       7.021   4.088  12.215  0.00  0.00    +0.000 A 
ATOM     21  C   UNL     1       7.658   4.996  13.052  0.00  0.00    +0.000 A 
ATOM     22  F   UNL     1       8.809   5.555  12.656  0.00  0.00    +0.000 F 
ATOM     23  C   UNL     1       7.127   5.330  14.298  0.00  0.00    +0.000 A 
ENDBRANCH  13  17
ENDBRANCH   1  14
BRANCH  10  24
ATOM     24  O   UNL     1       2.552   7.133  17.580  0.00  0.00    +0.000 OA
BRANCH  24  25
ATOM     25  C   UNL     1       2.818   8.458  18.069  0.00  0.00    +0.000 C 
BRANCH  25  26
ATOM     26  C   UNL     1       1.553   9.056  18.638  0.00  0.00    +0.000 A 
ATOM     27  C   UNL     1       0.646   9.747  17.819  0.00  0.00    +0.000 A 
ATOM     28  C   UNL     1      -0.519  10.301  18.360  0.00  0.00    +0.000 A 
ATOM     29  C   UNL     1      -0.798  10.163  19.719  0.00  0.00    +0.000 A 
ATOM     30  C   UNL     1       0.077   9.450  20.535  0.00  0.00    +0.000 A 
ATOM     31  C   UNL     1       1.237   8.901  19.991  0.00  0.00    +0.000 A 
ATOM     32  F   UNL     1       2.053   8.205  20.795  0.00  0.00    +0.000 F 
ENDBRANCH  25  26
ENDBRANCH  24  25
ENDBRANCH  10  24
TORSDOF 5
ENDMDL
MODEL 6
REMARK VINA RESULT:      -8.2      0.902      1.250
REMARK  Name = 
REMARK  5 active torsions:
REMARK  status: ('A' for Active; 'I' for Inactive)
REMARK    1  A    between atoms: N_3  and  C_4
REMARK    2  A    between atoms: N_11  and  C_12
REMARK    3  A    between atoms: C_21  and  O_22
REMARK    4  A    between atoms: O_22  and  C_23
REMARK    5  A    between atoms: C_23  and  C_24
REMARK                            x       y       z     vdW  Elec       q    Type
REMARK                         _______ _______ _______ _____ _____    ______ ____
ROOT
ATOM      1  C   UNL     1       5.594   4.677  16.761  0.00  0.00    +0.000 A 
ATOM      2  C   UNL     1       6.656   5.218  16.017  0.00  0.00    +0.000 A 
ATOM      3  C   UNL     1       6.839   4.930  14.675  0.00  0.00    +0.000 A 
ATOM      4  N   UNL     1       7.926   5.397  14.047  0.00  0.00    +0.000 NA
ATOM      5  C   UNL     1       8.076   5.052  12.760  0.00  0.00    +0.000 A 
ATOM      6  N   UNL     1       7.236   4.294  12.046  0.00  0.00    +0.000 NA
ATOM      7  C   UNL     1       6.148   3.851  12.708  0.00  0.00    +0.000 A 
ATOM      8  C   UNL     1       5.886   4.126  14.046  0.00  0.00    +0.000 A 
ATOM      9  C   UNL     1       4.764   3.643  14.758  0.00  0.00    +0.000 A 
ATOM     10  C   UNL     1       4.601   3.925  16.119  0.00  0.00    +0.000 A 
ENDROOT
BRANCH   1  14
ATOM     11  O   UNL     1       5.036   5.734  20.106  0.00  0.00    +0.000 OA
ATOM     12  C   UNL     1       4.809   5.707  18.899  0.00  0.00    +0.000 C 
ATOM     13  N   UNL     1       3.759   6.316  18.265  0.00  0.00    +0.000 N 
ATOM     14  N   UNL     1       5.642   4.934  18.137  0.00  0.00    +0.000 N 
ATOM     15  H   UNL     1       3.552   5.998  17.329  0.00  0.00    +0.000 HD
ATOM     16  H   UNL     1       6.088   4.240  18.728  0.00  0.00    +0.000 HD
BRANCH  13  17
ATOM     17  C   UNL     1       2.808   7.168  18.870  0.00  0.00    +0.000 A 
ATOM     18  C   UNL     1       2.286   6.941  20.148  0.00  0.00    +0.000 A 
ATOM     19  C   UNL     1       1.348   7.813  20.708  0.00  0.00    +0.000 A 
ATOM     20  C   UNL     1       0.917   8.923  19.990  0.00  0.00    +0.000 A 
ATOM     21  C   UNL     1       1.437   9.153  18.722  0.00  0.00    +0.000 A 
ATOM     22  F   UNL     1       1.016  10.216  18.025  0.00  0.00    +0.000 F 
ATOM     23  C   UNL     1       2.383   8.296  18.159  0.00  0.00    +0.000 A 
ENDBRANCH  13  17
ENDBRANCH   1  14
BRANCH  10  24
ATOM     24  O   UNL     1       3.455   3.408  16.665  0.00  0.00    +0.000 OA
BRANCH  24  25
ATOM     25  C   UNL     1       3.589   2.350  17.629  0.00  0.00    +0.000 C 
BRANCH  25  26
ATOM     26  C   UNL     1       2.853   2.718  18.896  0.00  0.00    +0.000 A 
ATOM     27  C   UNL     1       3.416   2.476  20.158  0.00  0.00    +0.000 A 
ATOM     28  C   UNL     1       2.720   2.816  21.323  0.00  0.00    +0.000 A 
ATOM     29  C   UNL     1       1.462   3.412  21.243  0.00  0.00    +0.000 A 
ATOM     30  C   UNL     1       0.908   3.688  19.995  0.00  0.00    +0.000 A 
ATOM     31  C   UNL     1       1.605   3.347  18.838  0.00  0.00    +0.000 A 
ATOM     32  F   UNL     1       1.056   3.640  17.651  0.00  0.00    +0.000 F 
ENDBRANCH  25  26
ENDBRANCH  24  25
ENDBRANCH  10  24
TORSDOF 5
ENDMDL
MODEL 7
REMARK VINA RESULT:      -8.1      1.196      1.713
REMARK  Name = 
REMARK  5 active torsions:
REMARK  status: ('A' for Active; 'I' for Inactive)
REMARK    1  A    between atoms: N_3  and  C_4
REMARK    2  A    between atoms: N_11  and  C_12
REMARK    3  A    between atoms: C_21  and  O_22
REMARK    4  A    between atoms: O_22  and  C_23
REMARK    5  A    between atoms: C_23  and  C_24
REMARK                            x       y       z     vdW  Elec       q    Type
REMARK                         _______ _______ _______ _____ _____    ______ ____
ROOT
ATOM      1  C   UNL     1       5.517   4.738  16.702  0.00  0.00    +0.000 A 
ATOM      2  C   UNL     1       6.557   5.323  15.960  0.00  0.00    +0.000 A 
ATOM      3  C   UNL     1       6.799   4.988  14.638  0.00  0.00    +0.000 A 
ATOM      4  N   UNL     1       7.866   5.507  14.017  0.00  0.00    +0.000 NA
ATOM      5  C   UNL     1       8.079   5.115  12.752  0.00  0.00    +0.000 A 
ATOM      6  N   UNL     1       7.319   4.262  12.054  0.00  0.00    +0.000 NA
ATOM      7  C   UNL     1       6.248   3.769  12.710  0.00  0.00    +0.000 A 
ATOM      8  C   UNL     1       5.928   4.085  14.025  0.00  0.00    +0.000 A 
ATOM      9  C   UNL     1       4.826   3.551  14.732  0.00  0.00    +0.000 A 
ATOM     10  C   UNL     1       4.603   3.883  16.072  0.00  0.00    +0.000 A 
ENDROOT
BRANCH   1  14
ATOM     11  O   UNL     1       4.843   5.993  19.956  0.00  0.00    +0.000 OA
ATOM     12  C   UNL     1       4.681   5.917  18.741  0.00  0.00    +0.000 C 
ATOM     13  N   UNL     1       3.703   6.552  18.020  0.00  0.00    +0.000 N 
ATOM     14  N   UNL     1       5.506   5.061  18.064  0.00  0.00    +0.000 N 
ATOM     15  H   UNL     1       3.529   6.198  17.090  0.00  0.00    +0.000 HD
ATOM     16  H   UNL     1       5.878   4.374  18.713  0.00  0.00    +0.000 HD
BRANCH  13  17
ATOM     17  C   UNL     1       2.773   7.485  18.528  0.00  0.00    +0.000 A 
ATOM     18  C   UNL     1       2.325   8.590  17.795  0.00  0.00    +0.000 A 
ATOM     19  C   UNL     1       1.401   9.487  18.338  0.00  0.00    +0.000 A 
ATOM     20  C   UNL     1       0.916   9.290  19.626  0.00  0.00    +0.000 A 
ATOM     21  C   UNL     1       1.356   8.191  20.354  0.00  0.00    +0.000 A 
ATOM     22  F   UNL     1       0.898   8.005  21.599  0.00  0.00    +0.000 F 
ATOM     23  C   UNL     1       2.269   7.283  19.817  0.00  0.00    +0.000 A 
ENDBRANCH  13  17
ENDBRANCH   1  14
BRANCH  10  24
ATOM     24  O   UNL     1       3.484   3.306  16.614  0.00  0.00    +0.000 OA
BRANCH  24  25
ATOM     25  C   UNL     1       3.668   2.329  17.652  0.00  0.00    +0.000 C 
BRANCH  25  26
ATOM     26  C   UNL     1       2.900   2.743  18.886  0.00  0.00    +0.000 A 
ATOM     27  C   UNL     1       3.367   2.427  20.170  0.00  0.00    +0.000 A 
ATOM     28  C   UNL     1       2.641   2.812  21.304  0.00  0.00    +0.000 A 
ATOM     29  C   UNL     1       1.451   3.525  21.168  0.00  0.00    +0.000 A 
ATOM     30  C   UNL     1       0.996   3.874  19.899  0.00  0.00    +0.000 A 
ATOM     31  C   UNL     1       1.721   3.487  18.774  0.00  0.00    +0.000 A 
ATOM     32  F   UNL     1       1.269   3.851  17.565  0.00  0.00    +0.000 F 
ENDBRANCH  25  26
ENDBRANCH  24  25
ENDBRANCH  10  24
TORSDOF 5
ENDMDL
MODEL 8
REMARK VINA RESULT:      -8.1      2.592      7.485
REMARK  Name = 
REMARK  5 active torsions:
REMARK  status: ('A' for Active; 'I' for Inactive)
REMARK    1  A    between atoms: N_3  and  C_4
REMARK    2  A    between atoms: N_11  and  C_12
REMARK    3  A    between atoms: C_21  and  O_22
REMARK    4  A    between atoms: O_22  and  C_23
REMARK    5  A    between atoms: C_23  and  C_24
REMARK                            x       y       z     vdW  Elec       q    Type
REMARK                         _______ _______ _______ _____ _____    ______ ____
ROOT
ATOM      1  C   UNL     1       4.444   5.876  18.236  0.00  0.00    +0.000 A 
ATOM      2  C   UNL     1       4.353   4.509  18.547  0.00  0.00    +0.000 A 
ATOM      3  C   UNL     1       3.228   3.961  19.142  0.00  0.00    +0.000 A 
ATOM      4  N   UNL     1       3.241   2.671  19.503  0.00  0.00    +0.000 NA
ATOM      5  C   UNL     1       2.143   2.203  20.114  0.00  0.00    +0.000 A 
ATOM      6  N   UNL     1       1.034   2.903  20.385  0.00  0.00    +0.000 NA
ATOM      7  C   UNL     1       1.055   4.195  19.996  0.00  0.00    +0.000 A 
ATOM      8  C   UNL     1       2.137   4.802  19.369  0.00  0.00    +0.000 A 
ATOM      9  C   UNL     1       2.180   6.162  18.984  0.00  0.00    +0.000 A 
ATOM     10  C   UNL     1       3.329   6.708  18.402  0.00  0.00    +0.000 A 
ENDROOT
BRANCH   1  14
ATOM     11  O   UNL     1       7.429   6.559  16.436  0.00  0.00    +0.000 OA
ATOM     12  C   UNL     1       6.339   6.022  16.612  0.00  0.00    +0.000 C 
ATOM     13  N   UNL     1       5.674   5.237  15.707  0.00  0.00    +0.000 N 
ATOM     14  N   UNL     1       5.702   6.300  17.792  0.00  0.00    +0.000 N 
ATOM     15  H   UNL     1       4.691   5.083  15.881  0.00  0.00    +0.000 HD
ATOM     16  H   UNL     1       6.066   7.168  18.170  0.00  0.00    +0.000 HD
BRANCH  13  17
ATOM     17  C   UNL     1       6.169   4.821  14.451  0.00  0.00    +0.000 A 
ATOM     18  C   UNL     1       7.356   5.315  13.898  0.00  0.00    +0.000 A 
ATOM     19  C   UNL     1       7.808   4.872  12.652  0.00  0.00    +0.000 A 
ATOM     20  C   UNL     1       7.073   3.930  11.942  0.00  0.00    +0.000 A 
ATOM     21  C   UNL     1       5.896   3.434  12.491  0.00  0.00    +0.000 A 
ATOM     22  F   UNL     1       5.181   2.534  11.803  0.00  0.00    +0.000 F 
ATOM     23  C   UNL     1       5.442   3.860  13.739  0.00  0.00    +0.000 A 
ENDBRANCH  13  17
ENDBRANCH   1  14
BRANCH  10  24
ATOM     24  O   UNL     1       3.211   8.030  18.064  0.00  0.00    +0.000 OA
BRANCH  24  25
ATOM     25  C   UNL     1       1.908   8.517  17.701  0.00  0.00    +0.000 C 
BRANCH  25  26
ATOM     26  C   UNL     1       1.496   9.625  18.642  0.00  0.00    +0.000 A 
ATOM     27  C   UNL     1       0.756   9.352  19.802  0.00  0.00    +0.000 A 
ATOM     28  C   UNL     1       0.375  10.389  20.661  0.00  0.00    +0.000 A 
ATOM     29  C   UNL     1       0.740  11.705  20.381  0.00  0.00    +0.000 A 
ATOM     30  C   UNL     1       1.505  11.983  19.250  0.00  0.00    +0.000 A 
ATOM     31  C   UNL     1       1.880  10.947  18.397  0.00  0.00    +0.000 A 
ATOM     32  F   UNL     1       2.630  11.240  17.326  0.00  0.00    +0.000 F 
ENDBRANCH  25  26
ENDBRANCH  24  25
ENDBRANCH  10  24
TORSDOF 5
ENDMDL
MODEL 9
REMARK VINA RESULT:      -7.9      2.950      5.898
REMARK  Name = 
REMARK  5 active torsions:
REMARK  status: ('A' for Active; 'I' for Inactive)
REMARK    1  A    between atoms: N_3  and  C_4
REMARK    2  A    between atoms: N_11  and  C_12
REMARK    3  A    between atoms: C_21  and  O_22
REMARK    4  A    between atoms: O_22  and  C_23
REMARK    5  A    between atoms: C_23  and  C_24
REMARK                            x       y       z     vdW  Elec       q    Type
REMARK                         _______ _______ _______ _____ _____    ______ ____
ROOT
ATOM      1  C   UNL     1       3.301   6.334  18.155  0.00  0.00    +0.000 A 
ATOM      2  C   UNL     1       2.804   6.088  19.445  0.00  0.00    +0.000 A 
ATOM      3  C   UNL     1       2.803   4.823  20.008  0.00  0.00    +0.000 A 
ATOM      4  N   UNL     1       2.225   4.637  21.202  0.00  0.00    +0.000 NA
ATOM      5  C   UNL     1       2.214   3.384  21.681  0.00  0.00    +0.000 A 
ATOM      6  N   UNL     1       2.735   2.308  21.079  0.00  0.00    +0.000 NA
ATOM      7  C   UNL     1       3.318   2.536  19.884  0.00  0.00    +0.000 A 
ATOM      8  C   UNL     1       3.381   3.784  19.275  0.00  0.00    +0.000 A 
ATOM      9  C   UNL     1       3.963   4.030  18.010  0.00  0.00    +0.000 A 
ATOM     10  C   UNL     1       3.940   5.309  17.444  0.00  0.00    +0.000 A 
ENDROOT
BRANCH   1  14
ATOM     11  O   UNL     1       2.329   9.707  17.613  0.00  0.00    +0.000 OA
ATOM     12  C   UNL     1       2.323   8.633  18.209  0.00  0.00    +0.000 C 
ATOM     13  N   UNL     1       1.689   8.377  19.396  0.00  0.00    +0.000 N 
ATOM     14  N   UNL     1       3.082   7.629  17.671  0.00  0.00    +0.000 N 
ATOM     15  H   UNL     1       1.981   7.547  19.893  0.00  0.00    +0.000 HD
ATOM     16  H   UNL     1       3.794   8.034  17.072  0.00  0.00    +0.000 HD
BRANCH  13  17
ATOM     17  C   UNL     1       0.846   9.270  20.095  0.00  0.00    +0.000 A 
ATOM     18  C   UNL     1       0.058  10.233  19.454  0.00  0.00    +0.000 A 
ATOM     19  C   UNL     1      -0.763  11.094  20.187  0.00  0.00    +0.000 A 
ATOM     20  C   UNL     1      -0.803  11.003  21.573  0.00  0.00    +0.000 A 
ATOM     21  C   UNL     1      -0.025  10.045  22.212  0.00  0.00    +0.000 A 
ATOM     22  F   UNL     1      -0.053   9.963  23.548  0.00  0.00    +0.000 F 
ATOM     23  C   UNL     1       0.789   9.172  21.489  0.00  0.00    +0.000 A 
ENDBRANCH  13  17
ENDBRANCH   1  14
BRANCH  10  24
ATOM     24  O   UNL     1       4.563   5.395  16.227  0.00  0.00    +0.000 OA
BRANCH  24  25
ATOM     25  C   UNL     1       5.947   5.014  16.152  0.00  0.00    +0.000 C 
BRANCH  25  26
ATOM     26  C   UNL     1       6.775   5.918  17.035  0.00  0.00    +0.000 A 
ATOM     27  C   UNL     1       6.929   7.279  16.735  0.00  0.00    +0.000 A 
ATOM     28  C   UNL     1       7.704   8.104  17.559  0.00  0.00    +0.000 A 
ATOM     29  C   UNL     1       8.321   7.583  18.695  0.00  0.00    +0.000 A 
ATOM     30  C   UNL     1       8.146   6.240  19.021  0.00  0.00    +0.000 A 
ATOM     31  C   UNL     1       7.375   5.423  18.197  0.00  0.00    +0.000 A 
ATOM     32  F   UNL     1       7.208   4.139  18.543  0.00  0.00    +0.000 F 
ENDBRANCH  25  26
ENDBRANCH  24  25
ENDBRANCH  10  24
TORSDOF 5
ENDMDL
