MODEL 1
REMARK VINA RESULT:      -7.6      0.000      0.000
REMARK  Name = 
REMARK  6 active torsions:
REMARK  status: ('A' for Active; 'I' for Inactive)
REMARK    1  A    between atoms: C_1  and  O_2
REMARK    2  A    between atoms: O_2  and  C_3
REMARK    3  A    between atoms: N_10  and  C_11
REMARK    4  A    between atoms: C_16  and  C_17
REMARK    5  A    between atoms: C_20  and  O_21
REMARK    6  A    between atoms: O_21  and  C_22
REMARK                            x       y       z     vdW  Elec       q    Type
REMARK                         _______ _______ _______ _____ _____    ______ ____
ROOT
ATOM      1  C   UNL     1       5.534   4.366  16.274  0.00  0.00    +0.000 A 
ATOM      2  C   UNL     1       4.336   3.738  16.651  0.00  0.00    +0.000 A 
ATOM      3  C   UNL     1       3.472   4.275  17.591  0.00  0.00    +0.000 A 
ATOM      4  N   UNL     1       2.394   3.559  17.922  0.00  0.00    +0.000 NA
ATOM      5  C   UNL     1       1.579   4.099  18.828  0.00  0.00    +0.000 A 
ATOM      6  N   UNL     1       1.727   5.297  19.388  0.00  0.00    +0.000 NA
ATOM      7  C   UNL     1       2.799   6.028  19.024  0.00  0.00    +0.000 A 
ATOM      8  N   UNL     1       2.884   7.364  19.490  0.00  0.00    +0.000 N 
ATOM      9  C   UNL     1       3.766   5.525  18.138  0.00  0.00    +0.000 A 
ATOM     10  C   UNL     1       4.946   6.192  17.734  0.00  0.00    +0.000 A 
ATOM     11  C   UNL     1       5.828   5.629  16.800  0.00  0.00    +0.000 A 
ATOM     12  H   UNL     1       3.758   7.552  19.961  0.00  0.00    +0.000 HD
ENDROOT
BRANCH   8  13
ATOM     13  C   UNL     1       1.771   8.106  19.953  0.00  0.00    +0.000 A 
ATOM     14  C   UNL     1       1.244   7.821  21.226  0.00  0.00    +0.000 A 
ATOM     15  C   UNL     1       0.223   8.582  21.787  0.00  0.00    +0.000 A 
ATOM     16  C   UNL     1      -0.306   9.644  21.071  0.00  0.00    +0.000 A 
ATOM     17  C   UNL     1       0.166   9.921  19.783  0.00  0.00    +0.000 A 
ATOM     18  C   UNL     1       1.195   9.157  19.209  0.00  0.00    +0.000 A 
ATOM     19  C   UNL     1       1.665   9.499  17.823  0.00  0.00    +0.000 C 
ENDBRANCH   8  13
BRANCH   1  21
ATOM     20  C   UNL     1       6.200   4.025  14.021  0.00  0.00    +0.000 C 
ATOM     21  O   UNL     1       6.416   3.774  15.409  0.00  0.00    +0.000 OA
ENDBRANCH   1  21
BRANCH  11  22
ATOM     22  O   UNL     1       6.899   6.441  16.561  0.00  0.00    +0.000 OA
ATOM     23  C   UNL     1       7.506   7.153  17.628  0.00  0.00    +0.000 C 
ENDBRANCH  11  22
TORSDOF 3
ENDMDL
MODEL 2
REMARK VINA RESULT:      -7.2      3.056      4.834
REMARK  Name = 
REMARK  6 active torsions:
REMARK  status: ('A' for Active; 'I' for Inactive)
REMARK    1  A    between atoms: C_1  and  O_2
REMARK    2  A    between atoms: O_2  and  C_3
REMARK    3  A    between atoms: N_10  and  C_11
REMARK    4  A    between atoms: C_16  and  C_17
REMARK    5  A    between atoms: C_20  and  O_21
REMARK    6  A    between atoms: O_21  and  C_22
REMARK                            x       y       z     vdW  Elec       q    Type
REMARK                         _______ _______ _______ _____ _____    ______ ____
ROOT
ATOM      1  C   UNL     1       7.035   4.686  14.077  0.00  0.00    +0.000 A 
ATOM      2  C   UNL     1       7.529   5.009  15.351  0.00  0.00    +0.000 A 
ATOM      3  C   UNL     1       6.716   5.104  16.468  0.00  0.00    +0.000 A 
ATOM      4  N   UNL     1       7.283   5.483  17.616  0.00  0.00    +0.000 NA
ATOM      5  C   UNL     1       6.478   5.565  18.676  0.00  0.00    +0.000 A 
ATOM      6  N   UNL     1       5.183   5.262  18.690  0.00  0.00    +0.000 NA
ATOM      7  C   UNL     1       4.625   4.848  17.536  0.00  0.00    +0.000 A 
ATOM      8  N   UNL     1       3.290   4.371  17.574  0.00  0.00    +0.000 N 
ATOM      9  C   UNL     1       5.360   4.800  16.340  0.00  0.00    +0.000 A 
ATOM     10  C   UNL     1       4.855   4.429  15.072  0.00  0.00    +0.000 A 
ATOM     11  C   UNL     1       5.682   4.359  13.941  0.00  0.00    +0.000 A 
ATOM     12  H   UNL     1       2.694   4.846  16.910  0.00  0.00    +0.000 HD
ENDROOT
BRANCH   8  13
ATOM     13  C   UNL     1       2.651   3.922  18.753  0.00  0.00    +0.000 A 
ATOM     14  C   UNL     1       1.930   4.846  19.533  0.00  0.00    +0.000 A 
ATOM     15  C   UNL     1       1.188   4.452  20.642  0.00  0.00    +0.000 A 
ATOM     16  C   UNL     1       1.166   3.115  21.006  0.00  0.00    +0.000 A 
ATOM     17  C   UNL     1       1.912   2.181  20.278  0.00  0.00    +0.000 A 
ATOM     18  C   UNL     1       2.664   2.571  19.158  0.00  0.00    +0.000 A 
ATOM     19  C   UNL     1       3.446   1.525  18.410  0.00  0.00    +0.000 C 
ENDBRANCH   8  13
BRANCH   1  21
ATOM     20  C   UNL     1       8.400   5.945  12.597  0.00  0.00    +0.000 C 
ATOM     21  O   UNL     1       7.843   4.685  12.970  0.00  0.00    +0.000 OA
ENDBRANCH   1  21
BRANCH  11  22
ATOM     22  O   UNL     1       4.986   3.984  12.827  0.00  0.00    +0.000 OA
ATOM     23  C   UNL     1       5.448   2.906  12.028  0.00  0.00    +0.000 C 
ENDBRANCH  11  22
TORSDOF 3
ENDMDL
MODEL 3
REMARK VINA RESULT:      -7.2      3.999      7.093
REMARK  Name = 
REMARK  6 active torsions:
REMARK  status: ('A' for Active; 'I' for Inactive)
REMARK    1  A    between atoms: C_1  and  O_2
REMARK    2  A    between atoms: O_2  and  C_3
REMARK    3  A    between atoms: N_10  and  C_11
REMARK    4  A    between atoms: C_16  and  C_17
REMARK    5  A    between atoms: C_20  and  O_21
REMARK    6  A    between atoms: O_21  and  C_22
REMARK                            x       y       z     vdW  Elec       q    Type
REMARK                         _______ _______ _______ _____ _____    ______ ____
ROOT
ATOM      1  C   UNL     1       0.714  11.070  20.447  0.00  0.00    +0.000 A 
ATOM      2  C   UNL     1       1.065  10.663  19.150  0.00  0.00    +0.000 A 
ATOM      3  C   UNL     1       1.597   9.414  18.874  0.00  0.00    +0.000 A 
ATOM      4  N   UNL     1       1.956   9.159  17.614  0.00  0.00    +0.000 NA
ATOM      5  C   UNL     1       2.464   7.949  17.376  0.00  0.00    +0.000 A 
ATOM      6  N   UNL     1       2.598   6.975  18.272  0.00  0.00    +0.000 NA
ATOM      7  C   UNL     1       2.202   7.229  19.534  0.00  0.00    +0.000 A 
ATOM      8  N   UNL     1       2.190   6.153  20.458  0.00  0.00    +0.000 N 
ATOM      9  C   UNL     1       1.726   8.494  19.916  0.00  0.00    +0.000 A 
ATOM     10  C   UNL     1       1.334   8.873  21.221  0.00  0.00    +0.000 A 
ATOM     11  C   UNL     1       0.820  10.148  21.495  0.00  0.00    +0.000 A 
ATOM     12  H   UNL     1       2.715   6.361  21.296  0.00  0.00    +0.000 HD
ENDROOT
BRANCH   8  13
ATOM     13  C   UNL     1       2.168   4.791  20.076  0.00  0.00    +0.000 A 
ATOM     14  C   UNL     1       0.940   4.101  20.081  0.00  0.00    +0.000 A 
ATOM     15  C   UNL     1       0.828   2.795  19.615  0.00  0.00    +0.000 A 
ATOM     16  C   UNL     1       1.956   2.142  19.144  0.00  0.00    +0.000 A 
ATOM     17  C   UNL     1       3.199   2.786  19.172  0.00  0.00    +0.000 A 
ATOM     18  C   UNL     1       3.320   4.103  19.643  0.00  0.00    +0.000 A 
ATOM     19  C   UNL     1       4.679   4.748  19.648  0.00  0.00    +0.000 C 
ENDBRANCH   8  13
BRANCH   1  21
ATOM     20  C   UNL     1       0.644  13.342  19.762  0.00  0.00    +0.000 C 
ATOM     21  O   UNL     1       0.273  12.341  20.709  0.00  0.00    +0.000 OA
ENDBRANCH   1  21
BRANCH  11  22
ATOM     22  O   UNL     1       0.510  10.297  22.817  0.00  0.00    +0.000 OA
ATOM     23  C   UNL     1      -0.804  10.020  23.276  0.00  0.00    +0.000 C 
ENDBRANCH  11  22
TORSDOF 3
ENDMDL
MODEL 4
REMARK VINA RESULT:      -7.1      0.981      1.743
REMARK  Name = 
REMARK  6 active torsions:
REMARK  status: ('A' for Active; 'I' for Inactive)
REMARK    1  A    between atoms: C_1  and  O_2
REMARK    2  A    between atoms: O_2  and  C_3
REMARK    3  A    between atoms: N_10  and  C_11
REMARK    4  A    between atoms: C_16  and  C_17
REMARK    5  A    between atoms: C_20  and  O_21
REMARK    6  A    between atoms: O_21  and  C_22
REMARK                            x       y       z     vdW  Elec       q    Type
REMARK                         _______ _______ _______ _____ _____    ______ ____
ROOT
ATOM      1  C   UNL     1       6.143   5.096  16.322  0.00  0.00    +0.000 A 
ATOM      2  C   UNL     1       4.931   4.422  16.541  0.00  0.00    +0.000 A 
ATOM      3  C   UNL     1       3.890   4.971  17.271  0.00  0.00    +0.000 A 
ATOM      4  N   UNL     1       2.808   4.214  17.472  0.00  0.00    +0.000 NA
ATOM      5  C   UNL     1       1.821   4.766  18.177  0.00  0.00    +0.000 A 
ATOM      6  N   UNL     1       1.809   6.010  18.652  0.00  0.00    +0.000 NA
ATOM      7  C   UNL     1       2.890   6.778  18.416  0.00  0.00    +0.000 A 
ATOM      8  N   UNL     1       2.824   8.148  18.775  0.00  0.00    +0.000 N 
ATOM      9  C   UNL     1       4.020   6.274  17.753  0.00  0.00    +0.000 A 
ATOM     10  C   UNL     1       5.218   6.983  17.502  0.00  0.00    +0.000 A 
ATOM     11  C   UNL     1       6.277   6.410  16.783  0.00  0.00    +0.000 A 
ATOM     12  H   UNL     1       3.592   8.426  19.371  0.00  0.00    +0.000 HD
ENDROOT
BRANCH   8  13
ATOM     13  C   UNL     1       1.612   8.850  18.978  0.00  0.00    +0.000 A 
ATOM     14  C   UNL     1       0.982   9.455  17.874  0.00  0.00    +0.000 A 
ATOM     15  C   UNL     1      -0.264  10.065  17.981  0.00  0.00    +0.000 A 
ATOM     16  C   UNL     1      -0.902  10.096  19.211  0.00  0.00    +0.000 A 
ATOM     17  C   UNL     1      -0.278   9.545  20.336  0.00  0.00    +0.000 A 
ATOM     18  C   UNL     1       0.980   8.929  20.236  0.00  0.00    +0.000 A 
ATOM     19  C   UNL     1       1.604   8.351  21.476  0.00  0.00    +0.000 C 
ENDBRANCH   8  13
BRANCH   1  21
ATOM     20  C   UNL     1       7.196   4.610  14.250  0.00  0.00    +0.000 C 
ATOM     21  O   UNL     1       7.192   4.499  15.673  0.00  0.00    +0.000 OA
ENDBRANCH   1  21
BRANCH  11  22
ATOM     22  O   UNL     1       7.332   7.270  16.662  0.00  0.00    +0.000 OA
ATOM     23  C   UNL     1       7.822   7.959  17.801  0.00  0.00    +0.000 C 
ENDBRANCH  11  22
TORSDOF 3
ENDMDL
MODEL 5
REMARK VINA RESULT:      -7.0      3.965      7.218
REMARK  Name = 
REMARK  6 active torsions:
REMARK  status: ('A' for Active; 'I' for Inactive)
REMARK    1  A    between atoms: C_1  and  O_2
REMARK    2  A    between atoms: O_2  and  C_3
REMARK    3  A    between atoms: N_10  and  C_11
REMARK    4  A    between atoms: C_16  and  C_17
REMARK    5  A    between atoms: C_20  and  O_21
REMARK    6  A    between atoms: O_21  and  C_22
REMARK                            x       y       z     vdW  Elec       q    Type
REMARK                         _______ _______ _______ _____ _____    ______ ____
ROOT
ATOM      1  C   UNL     1      -0.308  10.462  20.106  0.00  0.00    +0.000 A 
ATOM      2  C   UNL     1       0.387  10.279  18.900  0.00  0.00    +0.000 A 
ATOM      3  C   UNL     1       1.316   9.268  18.716  0.00  0.00    +0.000 A 
ATOM      4  N   UNL     1       1.966   9.228  17.550  0.00  0.00    +0.000 NA
ATOM      5  C   UNL     1       2.853   8.244  17.399  0.00  0.00    +0.000 A 
ATOM      6  N   UNL     1       3.107   7.287  18.288  0.00  0.00    +0.000 NA
ATOM      7  C   UNL     1       2.423   7.314  19.448  0.00  0.00    +0.000 A 
ATOM      8  N   UNL     1       2.567   6.215  20.333  0.00  0.00    +0.000 N 
ATOM      9  C   UNL     1       1.523   8.349  19.747  0.00  0.00    +0.000 A 
ATOM     10  C   UNL     1       0.796   8.493  20.952  0.00  0.00    +0.000 A 
ATOM     11  C   UNL     1      -0.124   9.535  21.138  0.00  0.00    +0.000 A 
ATOM     12  H   UNL     1       2.837   6.503  21.263  0.00  0.00    +0.000 HD
ENDROOT
BRANCH   8  13
ATOM     13  C   UNL     1       3.033   4.941  19.932  0.00  0.00    +0.000 A 
ATOM     14  C   UNL     1       4.380   4.797  19.547  0.00  0.00    +0.000 A 
ATOM     15  C   UNL     1       4.930   3.555  19.247  0.00  0.00    +0.000 A 
ATOM     16  C   UNL     1       4.132   2.424  19.311  0.00  0.00    +0.000 A 
ATOM     17  C   UNL     1       2.778   2.542  19.644  0.00  0.00    +0.000 A 
ATOM     18  C   UNL     1       2.215   3.792  19.947  0.00  0.00    +0.000 A 
ATOM     19  C   UNL     1       0.755   3.862  20.300  0.00  0.00    +0.000 C 
ENDBRANCH   8  13
BRANCH   1  21
ATOM     20  C   UNL     1      -1.218  12.473  19.233  0.00  0.00    +0.000 C 
ATOM     21  O   UNL     1      -1.156  11.522  20.295  0.00  0.00    +0.000 OA
ENDBRANCH   1  21
BRANCH  11  22
ATOM     22  O   UNL     1      -0.706   9.483  22.373  0.00  0.00    +0.000 OA
ATOM     23  C   UNL     1       0.100   9.508  23.541  0.00  0.00    +0.000 C 
ENDBRANCH  11  22
TORSDOF 3
ENDMDL
MODEL 6
REMARK VINA RESULT:      -6.7      2.528      4.590
REMARK  Name = 
REMARK  6 active torsions:
REMARK  status: ('A' for Active; 'I' for Inactive)
REMARK    1  A    between atoms: C_1  and  O_2
REMARK    2  A    between atoms: O_2  and  C_3
REMARK    3  A    between atoms: N_10  and  C_11
REMARK    4  A    between atoms: C_16  and  C_17
REMARK    5  A    between atoms: C_20  and  O_21
REMARK    6  A    between atoms: O_21  and  C_22
REMARK                            x       y       z     vdW  Elec       q    Type
REMARK                         _______ _______ _______ _____ _____    ______ ____
ROOT
ATOM      1  C   UNL     1       7.012   4.718  14.101  0.00  0.00    +0.000 A 
ATOM      2  C   UNL     1       7.618   5.057  15.322  0.00  0.00    +0.000 A 
ATOM      3  C   UNL     1       6.907   5.179  16.504  0.00  0.00    +0.000 A 
ATOM      4  N   UNL     1       7.574   5.571  17.592  0.00  0.00    +0.000 NA
ATOM      5  C   UNL     1       6.866   5.680  18.715  0.00  0.00    +0.000 A 
ATOM      6  N   UNL     1       5.574   5.390  18.848  0.00  0.00    +0.000 NA
ATOM      7  C   UNL     1       4.914   4.962  17.753  0.00  0.00    +0.000 A 
ATOM      8  N   UNL     1       3.584   4.500  17.916  0.00  0.00    +0.000 N 
ATOM      9  C   UNL     1       5.541   4.887  16.500  0.00  0.00    +0.000 A 
ATOM     10  C   UNL     1       4.925   4.500  15.287  0.00  0.00    +0.000 A 
ATOM     11  C   UNL     1       5.649   4.403  14.090  0.00  0.00    +0.000 A 
ATOM     12  H   UNL     1       2.936   4.969  17.298  0.00  0.00    +0.000 HD
ENDROOT
BRANCH   8  13
ATOM     13  C   UNL     1       3.046   4.076  19.153  0.00  0.00    +0.000 A 
ATOM     14  C   UNL     1       3.158   2.721  19.518  0.00  0.00    +0.000 A 
ATOM     15  C   UNL     1       2.750   2.258  20.765  0.00  0.00    +0.000 A 
ATOM     16  C   UNL     1       2.200   3.148  21.674  0.00  0.00    +0.000 A 
ATOM     17  C   UNL     1       2.031   4.492  21.322  0.00  0.00    +0.000 A 
ATOM     18  C   UNL     1       2.440   4.966  20.064  0.00  0.00    +0.000 A 
ATOM     19  C   UNL     1       2.237   6.420  19.738  0.00  0.00    +0.000 C 
ENDBRANCH   8  13
BRANCH   1  21
ATOM     20  C   UNL     1       8.481   5.861  12.626  0.00  0.00    +0.000 C 
ATOM     21  O   UNL     1       7.721   4.691  12.929  0.00  0.00    +0.000 OA
ENDBRANCH   1  21
BRANCH  11  22
ATOM     22  O   UNL     1       4.856   4.017  13.047  0.00  0.00    +0.000 OA
ATOM     23  C   UNL     1       5.330   3.066  12.106  0.00  0.00    +0.000 C 
ENDBRANCH  11  22
TORSDOF 3
ENDMDL
MODEL 7
REMARK VINA RESULT:      -6.7      3.808      7.032
REMARK  Name = 
REMARK  6 active torsions:
REMARK  status: ('A' for Active; 'I' for Inactive)
REMARK    1  A    between atoms: C_1  and  O_2
REMARK    2  A    between atoms: O_2  and  C_3
REMARK    3  A    between atoms: N_10  and  C_11
REMARK    4  A    between atoms: C_16  and  C_17
REMARK    5  A    between atoms: C_20  and  O_21
REMARK    6  A    between atoms: O_21  and  C_22
REMARK                            x       y       z     vdW  Elec       q    Type
REMARK                         _______ _______ _______ _____ _____    ______ ____
ROOT
ATOM      1  C   UNL     1       0.324  10.055  20.083  0.00  0.00    +0.000 A 
ATOM      2  C   UNL     1       1.112   9.932  18.928  0.00  0.00    +0.000 A 
ATOM      3  C   UNL     1       1.919   8.833  18.684  0.00  0.00    +0.000 A 
ATOM      4  N   UNL     1       2.677   8.852  17.585  0.00  0.00    +0.000 NA
ATOM      5  C   UNL     1       3.442   7.781  17.374  0.00  0.00    +0.000 A 
ATOM      6  N   UNL     1       3.478   6.691  18.137  0.00  0.00    +0.000 NA
ATOM      7  C   UNL     1       2.685   6.666  19.226  0.00  0.00    +0.000 A 
ATOM      8  N   UNL     1       2.595   5.453  19.955  0.00  0.00    +0.000 N 
ATOM      9  C   UNL     1       1.898   7.770  19.588  0.00  0.00    +0.000 A 
ATOM     10  C   UNL     1       1.073   7.859  20.734  0.00  0.00    +0.000 A 
ATOM     11  C   UNL     1       0.278   8.987  20.985  0.00  0.00    +0.000 A 
ATOM     12  H   UNL     1       2.800   5.579  20.937  0.00  0.00    +0.000 HD
ENDROOT
BRANCH   8  13
ATOM     13  C   UNL     1       2.934   4.188  19.420  0.00  0.00    +0.000 A 
ATOM     14  C   UNL     1       3.998   3.468  19.995  0.00  0.00    +0.000 A 
ATOM     15  C   UNL     1       4.314   2.175  19.591  0.00  0.00    +0.000 A 
ATOM     16  C   UNL     1       3.575   1.577  18.582  0.00  0.00    +0.000 A 
ATOM     17  C   UNL     1       2.541   2.287  17.960  0.00  0.00    +0.000 A 
ATOM     18  C   UNL     1       2.217   3.593  18.362  0.00  0.00    +0.000 A 
ATOM     19  C   UNL     1       1.096   4.309  17.660  0.00  0.00    +0.000 C 
ENDBRANCH   8  13
BRANCH   1  21
ATOM     20  C   UNL     1       0.354  12.330  20.761  0.00  0.00    +0.000 C 
ATOM     21  O   UNL     1      -0.397  11.191  20.345  0.00  0.00    +0.000 OA
ENDBRANCH   1  21
BRANCH  11  22
ATOM     22  O   UNL     1      -0.431   8.859  22.145  0.00  0.00    +0.000 OA
ATOM     23  C   UNL     1       0.031   9.479  23.335  0.00  0.00    +0.000 C 
ENDBRANCH  11  22
TORSDOF 3
ENDMDL
MODEL 8
REMARK VINA RESULT:      -6.7      2.794      6.768
REMARK  Name = 
REMARK  6 active torsions:
REMARK  status: ('A' for Active; 'I' for Inactive)
REMARK    1  A    between atoms: C_1  and  O_2
REMARK    2  A    between atoms: O_2  and  C_3
REMARK    3  A    between atoms: N_10  and  C_11
REMARK    4  A    between atoms: C_16  and  C_17
REMARK    5  A    between atoms: C_20  and  O_21
REMARK    6  A    between atoms: O_21  and  C_22
REMARK                            x       y       z     vdW  Elec       q    Type
REMARK                         _______ _______ _______ _____ _____    ______ ____
ROOT
ATOM      1  C   UNL     1       0.905   9.218  20.319  0.00  0.00    +0.000 A 
ATOM      2  C   UNL     1       1.240   7.985  20.902  0.00  0.00    +0.000 A 
ATOM      3  C   UNL     1       1.933   6.997  20.222  0.00  0.00    +0.000 A 
ATOM      4  N   UNL     1       2.138   5.838  20.852  0.00  0.00    +0.000 NA
ATOM      5  C   UNL     1       2.809   4.906  20.176  0.00  0.00    +0.000 A 
ATOM      6  N   UNL     1       3.321   5.051  18.956  0.00  0.00    +0.000 NA
ATOM      7  C   UNL     1       3.138   6.235  18.339  0.00  0.00    +0.000 A 
ATOM      8  N   UNL     1       3.812   6.458  17.111  0.00  0.00    +0.000 N 
ATOM      9  C   UNL     1       2.379   7.261  18.926  0.00  0.00    +0.000 A 
ATOM     10  C   UNL     1       2.090   8.516  18.341  0.00  0.00    +0.000 A 
ATOM     11  C   UNL     1       1.366   9.500  19.028  0.00  0.00    +0.000 A 
ATOM     12  H   UNL     1       3.181   6.738  16.373  0.00  0.00    +0.000 HD
ENDROOT
BRANCH   8  13
ATOM     13  C   UNL     1       4.948   5.725  16.695  0.00  0.00    +0.000 A 
ATOM     14  C   UNL     1       4.763   4.475  16.075  0.00  0.00    +0.000 A 
ATOM     15  C   UNL     1       5.827   3.752  15.544  0.00  0.00    +0.000 A 
ATOM     16  C   UNL     1       7.112   4.264  15.640  0.00  0.00    +0.000 A 
ATOM     17  C   UNL     1       7.332   5.482  16.294  0.00  0.00    +0.000 A 
ATOM     18  C   UNL     1       6.262   6.216  16.833  0.00  0.00    +0.000 A 
ATOM     19  C   UNL     1       6.555   7.519  17.524  0.00  0.00    +0.000 C 
ENDBRANCH   8  13
BRANCH   1  21
ATOM     20  C   UNL     1      -0.045   9.921  22.378  0.00  0.00    +0.000 C 
ATOM     21  O   UNL     1       0.142  10.144  20.981  0.00  0.00    +0.000 OA
ENDBRANCH   1  21
BRANCH  11  22
ATOM     22  O   UNL     1       1.201  10.627  18.275  0.00  0.00    +0.000 OA
ATOM     23  C   UNL     1       1.927  11.806  18.588  0.00  0.00    +0.000 C 
ENDBRANCH  11  22
TORSDOF 3
ENDMDL
MODEL 9
REMARK VINA RESULT:      -6.6      3.989      7.545
REMARK  Name = 
REMARK  6 active torsions:
REMARK  status: ('A' for Active; 'I' for Inactive)
REMARK    1  A    between atoms: C_1  and  O_2
REMARK    2  A    between atoms: O_2  and  C_3
REMARK    3  A    between atoms: N_10  and  C_11
REMARK    4  A    between atoms: C_16  and  C_17
REMARK    5  A    between atoms: C_20  and  O_21
REMARK    6  A    between atoms: O_21  and  C_22
REMARK                            x       y       z     vdW  Elec       q    Type
REMARK                         _______ _______ _______ _____ _____    ______ ____
ROOT
ATOM      1  C   UNL     1       3.146   4.515  19.595  0.00  0.00    +0.000 A 
ATOM      2  C   UNL     1       4.494   4.894  19.705  0.00  0.00    +0.000 A 
ATOM      3  C   UNL     1       5.403   4.741  18.671  0.00  0.00    +0.000 A 
ATOM      4  N   UNL     1       6.674   5.074  18.908  0.00  0.00    +0.000 NA
ATOM      5  C   UNL     1       7.526   4.919  17.896  0.00  0.00    +0.000 A 
ATOM      6  N   UNL     1       7.209   4.506  16.671  0.00  0.00    +0.000 NA
ATOM      7  C   UNL     1       5.918   4.205  16.429  0.00  0.00    +0.000 A 
ATOM      8  N   UNL     1       5.540   3.919  15.093  0.00  0.00    +0.000 N 
ATOM      9  C   UNL     1       4.949   4.255  17.443  0.00  0.00    +0.000 A 
ATOM     10  C   UNL     1       3.583   3.913  17.303  0.00  0.00    +0.000 A 
ATOM     11  C   UNL     1       2.676   4.047  18.363  0.00  0.00    +0.000 A 
ATOM     12  H   UNL     1       5.063   3.032  15.010  0.00  0.00    +0.000 HD
ENDROOT
BRANCH   8  13
ATOM     13  C   UNL     1       6.294   4.313  13.963  0.00  0.00    +0.000 A 
ATOM     14  C   UNL     1       7.329   5.253  14.127  0.00  0.00    +0.000 A 
ATOM     15  C   UNL     1       8.179   5.601  13.082  0.00  0.00    +0.000 A 
ATOM     16  C   UNL     1       7.998   5.023  11.836  0.00  0.00    +0.000 A 
ATOM     17  C   UNL     1       6.947   4.122  11.630  0.00  0.00    +0.000 A 
ATOM     18  C   UNL     1       6.084   3.766  12.680  0.00  0.00    +0.000 A 
ATOM     19  C   UNL     1       4.973   2.791  12.404  0.00  0.00    +0.000 C 
ENDBRANCH   8  13
BRANCH   1  21
ATOM     20  C   UNL     1       2.305   3.488  21.564  0.00  0.00    +0.000 C 
ATOM     21  O   UNL     1       2.287   4.593  20.660  0.00  0.00    +0.000 OA
ENDBRANCH   1  21
BRANCH  11  22
ATOM     22  O   UNL     1       1.417   3.656  18.006  0.00  0.00    +0.000 OA
ATOM     23  C   UNL     1       0.865   2.461  18.537  0.00  0.00    +0.000 C 
ENDBRANCH  11  22
TORSDOF 3
ENDMDL
