MODEL 1
REMARK VINA RESULT:      -8.5      0.000      0.000
REMARK  Name = 
REMARK  12 active torsions:
REMARK  status: ('A' for Active; 'I' for Inactive)
REMARK    1  A    between atoms: C_1  and  C_2
REMARK    2  A    between atoms: C_2  and  C_3
REMARK    3  A    between atoms: C_2  and  C_4
REMARK    4  A    between atoms: C_4  and  N_5
REMARK    5  A    between atoms: N_5  and  C_6
REMARK    6  A    between atoms: C_6  and  C_7
REMARK    7  A    between atoms: C_7  and  C_8
REMARK    8  A    between atoms: C_7  and  C_9
REMARK    9  A    between atoms: C_10  and  C_12
REMARK   10  A    between atoms: C_13  and  C_14
REMARK   11  A    between atoms: C_15  and  C_16
REMARK   12  A    between atoms: C_16  and  C_17
REMARK                            x       y       z     vdW  Elec       q    Type
REMARK                         _______ _______ _______ _____ _____    ______ ____
ROOT
ATOM      1  C   UNL     1       2.414   8.068  18.306  0.00  0.00    +0.000 C 
ATOM      2  C   UNL     1       2.095   7.714  19.584  0.00  0.00    +0.000 C 
ATOM      3  C   UNL     1       1.127   8.565  20.359  0.00  0.00    +0.000 A 
ATOM      4  C   UNL     1       0.433   8.096  21.489  0.00  0.00    +0.000 A 
ATOM      5  C   UNL     1      -0.431   8.924  22.207  0.00  0.00    +0.000 A 
ATOM      6  C   UNL     1      -0.629  10.243  21.809  0.00  0.00    +0.000 A 
ATOM      7  C   UNL     1       0.033  10.726  20.688  0.00  0.00    +0.000 A 
ATOM      8  C   UNL     1       0.893   9.893  19.954  0.00  0.00    +0.000 A 
ATOM      9  C   UNL     1       1.621  10.439  18.754  0.00  0.00    +0.000 C 
ATOM     10  C   UNL     1       1.855   9.350  17.713  0.00  0.00    +0.000 C 
ENDROOT
BRANCH   1  12
ATOM     11  C   UNL     1       4.556   7.201  17.348  0.00  0.00    +0.000 C 
ATOM     12  C   UNL     1       3.212   7.242  17.391  0.00  0.00    +0.000 C 
BRANCH  11  14
ATOM     13  N   UNL     1       6.085   5.354  16.709  0.00  0.00    +0.000 N 
ATOM     14  C   UNL     1       5.294   6.433  16.291  0.00  0.00    +0.000 C 
ATOM     15  O   UNL     1       5.215   6.785  15.115  0.00  0.00    +0.000 OA
BRANCH  13  16
ATOM     16  C   UNL     1       6.955   4.688  15.706  0.00  0.00    +0.000 C 
BRANCH  16  18
ATOM     17  C   UNL     1       7.738   5.175  13.291  0.00  0.00    +0.000 C 
ATOM     18  C   UNL     1       6.553   4.873  14.213  0.00  0.00    +0.000 C 
ATOM     19  C   UNL     1       5.836   3.620  13.678  0.00  0.00    +0.000 C 
ENDBRANCH  16  18
ENDBRANCH  13  16
BRANCH  13  20
ATOM     20  C   UNL     1       5.950   4.702  18.029  0.00  0.00    +0.000 C 
BRANCH  20  21
ATOM     21  C   UNL     1       4.616   3.939  18.272  0.00  0.00    +0.000 C 
ATOM     22  C   UNL     1       4.070   3.241  17.028  0.00  0.00    +0.000 C 
ATOM     23  C   UNL     1       4.782   2.913  19.401  0.00  0.00    +0.000 C 
ENDBRANCH  20  21
ENDBRANCH  13  20
ENDBRANCH  11  14
ENDBRANCH   1  12
BRANCH   2  24
ATOM     24  C   UNL     1       2.747   6.564  20.341  0.00  0.00    +0.000 C 
BRANCH  24  25
ATOM     25  C   UNL     1       2.052   5.216  20.339  0.00  0.00    +0.000 A 
ATOM     26  C   UNL     1       1.387   4.720  19.211  0.00  0.00    +0.000 A 
ATOM     27  C   UNL     1       0.932   3.402  19.172  0.00  0.00    +0.000 A 
ATOM     28  C   UNL     1       1.114   2.566  20.270  0.00  0.00    +0.000 A 
ATOM     29  C   UNL     1       1.725   3.057  21.421  0.00  0.00    +0.000 A 
ATOM     30  C   UNL     1       2.193   4.372  21.455  0.00  0.00    +0.000 A 
ENDBRANCH  24  25
ENDBRANCH   2  24
TORSDOF 8
ENDMDL
MODEL 2
REMARK VINA RESULT:      -8.4      2.588      7.721
REMARK  Name = 
REMARK  12 active torsions:
REMARK  status: ('A' for Active; 'I' for Inactive)
REMARK    1  A    between atoms: C_1  and  C_2
REMARK    2  A    between atoms: C_2  and  C_3
REMARK    3  A    between atoms: C_2  and  C_4
REMARK    4  A    between atoms: C_4  and  N_5
REMARK    5  A    between atoms: N_5  and  C_6
REMARK    6  A    between atoms: C_6  and  C_7
REMARK    7  A    between atoms: C_7  and  C_8
REMARK    8  A    between atoms: C_7  and  C_9
REMARK    9  A    between atoms: C_10  and  C_12
REMARK   10  A    between atoms: C_13  and  C_14
REMARK   11  A    between atoms: C_15  and  C_16
REMARK   12  A    between atoms: C_16  and  C_17
REMARK                            x       y       z     vdW  Elec       q    Type
REMARK                         _______ _______ _______ _____ _____    ______ ____
ROOT
ATOM      1  C   UNL     1       2.465   6.651  18.954  0.00  0.00    +0.000 C 
ATOM      2  C   UNL     1       3.106   5.706  18.209  0.00  0.00    +0.000 C 
ATOM      3  C   UNL     1       2.869   4.253  18.510  0.00  0.00    +0.000 A 
ATOM      4  C   UNL     1       3.140   3.227  17.587  0.00  0.00    +0.000 A 
ATOM      5  C   UNL     1       2.943   1.884  17.912  0.00  0.00    +0.000 A 
ATOM      6  C   UNL     1       2.463   1.531  19.169  0.00  0.00    +0.000 A 
ATOM      7  C   UNL     1       2.173   2.526  20.094  0.00  0.00    +0.000 A 
ATOM      8  C   UNL     1       2.357   3.879  19.767  0.00  0.00    +0.000 A 
ATOM      9  C   UNL     1       2.061   4.944  20.790  0.00  0.00    +0.000 C 
ATOM     10  C   UNL     1       1.589   6.230  20.121  0.00  0.00    +0.000 C 
ENDROOT
BRANCH   1  12
ATOM     11  C   UNL     1       1.566   8.983  19.084  0.00  0.00    +0.000 C 
ATOM     12  C   UNL     1       2.481   8.091  18.661  0.00  0.00    +0.000 C 
BRANCH  11  14
ATOM     13  N   UNL     1       1.118  11.383  19.526  0.00  0.00    +0.000 N 
ATOM     14  C   UNL     1       1.581  10.412  18.628  0.00  0.00    +0.000 C 
ATOM     15  O   UNL     1       1.960  10.684  17.489  0.00  0.00    +0.000 OA
BRANCH  13  16
ATOM     16  C   UNL     1       0.964  12.778  19.038  0.00  0.00    +0.000 C 
BRANCH  16  18
ATOM     17  C   UNL     1      -1.403  12.056  18.292  0.00  0.00    +0.000 C 
ATOM     18  C   UNL     1      -0.479  13.221  18.658  0.00  0.00    +0.000 C 
ATOM     19  C   UNL     1      -1.132  14.008  19.809  0.00  0.00    +0.000 C 
ENDBRANCH  16  18
ENDBRANCH  13  16
BRANCH  13  20
ATOM     20  C   UNL     1       0.975  11.153  20.979  0.00  0.00    +0.000 C 
BRANCH  20  21
ATOM     21  C   UNL     1      -0.394  10.576  21.441  0.00  0.00    +0.000 C 
ATOM     22  C   UNL     1      -0.303   9.164  22.018  0.00  0.00    +0.000 C 
ATOM     23  C   UNL     1      -1.050  11.506  22.470  0.00  0.00    +0.000 C 
ENDBRANCH  20  21
ENDBRANCH  13  20
ENDBRANCH  11  14
ENDBRANCH   1  12
BRANCH   2  24
ATOM     24  C   UNL     1       4.155   6.020  17.149  0.00  0.00    +0.000 C 
BRANCH  24  25
ATOM     25  C   UNL     1       5.594   6.200  17.593  0.00  0.00    +0.000 A 
ATOM     26  C   UNL     1       6.411   7.216  17.082  0.00  0.00    +0.000 A 
ATOM     27  C   UNL     1       7.657   7.482  17.649  0.00  0.00    +0.000 A 
ATOM     28  C   UNL     1       8.115   6.723  18.721  0.00  0.00    +0.000 A 
ATOM     29  C   UNL     1       7.340   5.674  19.209  0.00  0.00    +0.000 A 
ATOM     30  C   UNL     1       6.086   5.415  18.651  0.00  0.00    +0.000 A 
ENDBRANCH  24  25
ENDBRANCH   2  24
TORSDOF 8
ENDMDL
MODEL 3
REMARK VINA RESULT:      -8.4      1.377      1.925
REMARK  Name = 
REMARK  12 active torsions:
REMARK  status: ('A' for Active; 'I' for Inactive)
REMARK    1  A    between atoms: C_1  and  C_2
REMARK    2  A    between atoms: C_2  and  C_3
REMARK    3  A    between atoms: C_2  and  C_4
REMARK    4  A    between atoms: C_4  and  N_5
REMARK    5  A    between atoms: N_5  and  C_6
REMARK    6  A    between atoms: C_6  and  C_7
REMARK    7  A    between atoms: C_7  and  C_8
REMARK    8  A    between atoms: C_7  and  C_9
REMARK    9  A    between atoms: C_10  and  C_12
REMARK   10  A    between atoms: C_13  and  C_14
REMARK   11  A    between atoms: C_15  and  C_16
REMARK   12  A    between atoms: C_16  and  C_17
REMARK                            x       y       z     vdW  Elec       q    Type
REMARK                         _______ _______ _______ _____ _____    ______ ____
ROOT
ATOM      1  C   UNL     1       2.358   7.307  18.526  0.00  0.00    +0.000 C 
ATOM      2  C   UNL     1       1.973   7.279  19.834  0.00  0.00    +0.000 C 
ATOM      3  C   UNL     1       1.128   8.401  20.371  0.00  0.00    +0.000 A 
ATOM      4  C   UNL     1       0.356   8.283  21.541  0.00  0.00    +0.000 A 
ATOM      5  C   UNL     1      -0.389   9.356  22.033  0.00  0.00    +0.000 A 
ATOM      6  C   UNL     1      -0.387  10.575  21.362  0.00  0.00    +0.000 A 
ATOM      7  C   UNL     1       0.354  10.712  20.195  0.00  0.00    +0.000 A 
ATOM      8  C   UNL     1       1.094   9.632  19.690  0.00  0.00    +0.000 A 
ATOM      9  C   UNL     1       1.912   9.805  18.437  0.00  0.00    +0.000 C 
ATOM     10  C   UNL     1       2.000   8.499  17.656  0.00  0.00    +0.000 C 
ENDROOT
BRANCH   1  12
ATOM     11  C   UNL     1       4.313   6.227  17.398  0.00  0.00    +0.000 C 
ATOM     12  C   UNL     1       3.042   6.203  17.839  0.00  0.00    +0.000 C 
BRANCH  11  14
ATOM     13  N   UNL     1       6.138   5.322  15.981  0.00  0.00    +0.000 N 
ATOM     14  C   UNL     1       4.892   5.106  16.585  0.00  0.00    +0.000 C 
ATOM     15  O   UNL     1       4.255   4.063  16.444  0.00  0.00    +0.000 OA
BRANCH  13  16
ATOM     16  C   UNL     1       6.651   4.296  15.037  0.00  0.00    +0.000 C 
BRANCH  16  18
ATOM     17  C   UNL     1       7.874   5.186  12.942  0.00  0.00    +0.000 C 
ATOM     18  C   UNL     1       6.564   4.647  13.523  0.00  0.00    +0.000 C 
ATOM     19  C   UNL     1       6.143   3.417  12.697  0.00  0.00    +0.000 C 
ENDBRANCH  16  18
ENDBRANCH  13  16
BRANCH  13  20
ATOM     20  C   UNL     1       7.069   6.397  16.385  0.00  0.00    +0.000 C 
BRANCH  20  21
ATOM     21  C   UNL     1       7.236   6.606  17.917  0.00  0.00    +0.000 C 
ATOM     22  C   UNL     1       7.794   5.386  18.648  0.00  0.00    +0.000 C 
ATOM     23  C   UNL     1       8.128   7.823  18.200  0.00  0.00    +0.000 C 
ENDBRANCH  20  21
ENDBRANCH  13  20
ENDBRANCH  11  14
ENDBRANCH   1  12
BRANCH   2  24
ATOM     24  C   UNL     1       2.440   6.236  20.842  0.00  0.00    +0.000 C 
BRANCH  24  25
ATOM     25  C   UNL     1       2.199   4.773  20.526  0.00  0.00    +0.000 A 
ATOM     26  C   UNL     1       0.916   4.258  20.304  0.00  0.00    +0.000 A 
ATOM     27  C   UNL     1       0.741   2.961  19.822  0.00  0.00    +0.000 A 
ATOM     28  C   UNL     1       1.846   2.150  19.575  0.00  0.00    +0.000 A 
ATOM     29  C   UNL     1       3.127   2.626  19.840  0.00  0.00    +0.000 A 
ATOM     30  C   UNL     1       3.304   3.929  20.310  0.00  0.00    +0.000 A 
ENDBRANCH  24  25
ENDBRANCH   2  24
TORSDOF 8
ENDMDL
MODEL 4
REMARK VINA RESULT:      -8.4      0.789      1.229
REMARK  Name = 
REMARK  12 active torsions:
REMARK  status: ('A' for Active; 'I' for Inactive)
REMARK    1  A    between atoms: C_1  and  C_2
REMARK    2  A    between atoms: C_2  and  C_3
REMARK    3  A    between atoms: C_2  and  C_4
REMARK    4  A    between atoms: C_4  and  N_5
REMARK    5  A    between atoms: N_5  and  C_6
REMARK    6  A    between atoms: C_6  and  C_7
REMARK    7  A    between atoms: C_7  and  C_8
REMARK    8  A    between atoms: C_7  and  C_9
REMARK    9  A    between atoms: C_10  and  C_12
REMARK   10  A    between atoms: C_13  and  C_14
REMARK   11  A    between atoms: C_15  and  C_16
REMARK   12  A    between atoms: C_16  and  C_17
REMARK                            x       y       z     vdW  Elec       q    Type
REMARK                         _______ _______ _______ _____ _____    ______ ____
ROOT
ATOM      1  C   UNL     1       2.007   8.232  18.468  0.00  0.00    +0.000 C 
ATOM      2  C   UNL     1       1.872   7.882  19.779  0.00  0.00    +0.000 C 
ATOM      3  C   UNL     1       1.014   8.730  20.677  0.00  0.00    +0.000 A 
ATOM      4  C   UNL     1       0.488   8.261  21.894  0.00  0.00    +0.000 A 
ATOM      5  C   UNL     1      -0.275   9.086  22.723  0.00  0.00    +0.000 A 
ATOM      6  C   UNL     1      -0.537  10.401  22.351  0.00  0.00    +0.000 A 
ATOM      7  C   UNL     1      -0.042  10.883  21.147  0.00  0.00    +0.000 A 
ATOM      8  C   UNL     1       0.714  10.053  20.304  0.00  0.00    +0.000 A 
ATOM      9  C   UNL     1       1.264  10.599  19.012  0.00  0.00    +0.000 C 
ATOM     10  C   UNL     1       1.360   9.507  17.953  0.00  0.00    +0.000 C 
ENDROOT
BRANCH   1  12
ATOM     11  C   UNL     1       3.976   7.059  17.465  0.00  0.00    +0.000 C 
ATOM     12  C   UNL     1       2.677   7.408  17.453  0.00  0.00    +0.000 C 
BRANCH  11  14
ATOM     13  N   UNL     1       4.606   4.928  16.362  0.00  0.00    +0.000 N 
ATOM     14  C   UNL     1       4.613   6.328  16.320  0.00  0.00    +0.000 C 
ATOM     15  O   UNL     1       5.145   6.965  15.411  0.00  0.00    +0.000 OA
BRANCH  13  16
ATOM     16  C   UNL     1       5.376   4.188  15.330  0.00  0.00    +0.000 C 
BRANCH  16  18
ATOM     17  C   UNL     1       7.657   5.063  14.485  0.00  0.00    +0.000 C 
ATOM     18  C   UNL     1       6.924   4.179  15.498  0.00  0.00    +0.000 C 
ATOM     19  C   UNL     1       7.325   4.638  16.912  0.00  0.00    +0.000 C 
ENDBRANCH  16  18
ENDBRANCH  13  16
BRANCH  13  20
ATOM     20  C   UNL     1       3.711   4.139  17.235  0.00  0.00    +0.000 C 
BRANCH  20  21
ATOM     21  C   UNL     1       4.382   2.966  18.007  0.00  0.00    +0.000 C 
ATOM     22  C   UNL     1       4.801   3.327  19.431  0.00  0.00    +0.000 C 
ATOM     23  C   UNL     1       3.454   1.745  18.043  0.00  0.00    +0.000 C 
ENDBRANCH  20  21
ENDBRANCH  13  20
ENDBRANCH  11  14
ENDBRANCH   1  12
BRANCH   2  24
ATOM     24  C   UNL     1       2.632   6.741  20.442  0.00  0.00    +0.000 C 
BRANCH  24  25
ATOM     25  C   UNL     1       1.968   5.380  20.514  0.00  0.00    +0.000 A 
ATOM     26  C   UNL     1       1.156   4.890  19.484  0.00  0.00    +0.000 A 
ATOM     27  C   UNL     1       0.723   3.564  19.487  0.00  0.00    +0.000 A 
ATOM     28  C   UNL     1       1.075   2.714  20.532  0.00  0.00    +0.000 A 
ATOM     29  C   UNL     1       1.836   3.198  21.592  0.00  0.00    +0.000 A 
ATOM     30  C   UNL     1       2.282   4.522  21.583  0.00  0.00    +0.000 A 
ENDBRANCH  24  25
ENDBRANCH   2  24
TORSDOF 8
ENDMDL
MODEL 5
REMARK VINA RESULT:      -8.4      2.525      7.701
REMARK  Name = 
REMARK  12 active torsions:
REMARK  status: ('A' for Active; 'I' for Inactive)
REMARK    1  A    between atoms: C_1  and  C_2
REMARK    2  A    between atoms: C_2  and  C_3
REMARK    3  A    between atoms: C_2  and  C_4
REMARK    4  A    between atoms: C_4  and  N_5
REMARK    5  A    between atoms: N_5  and  C_6
REMARK    6  A    between atoms: C_6  and  C_7
REMARK    7  A    between atoms: C_7  and  C_8
REMARK    8  A    between atoms: C_7  and  C_9
REMARK    9  A    between atoms: C_10  and  C_12
REMARK   10  A    between atoms: C_13  and  C_14
REMARK   11  A    between atoms: C_15  and  C_16
REMARK   12  A    between atoms: C_16  and  C_17
REMARK                            x       y       z     vdW  Elec       q    Type
REMARK                         _______ _______ _______ _____ _____    ______ ____
ROOT
ATOM      1  C   UNL     1       2.185   6.819  19.465  0.00  0.00    +0.000 C 
ATOM      2  C   UNL     1       2.728   6.040  18.487  0.00  0.00    +0.000 C 
ATOM      3  C   UNL     1       2.553   4.548  18.559  0.00  0.00    +0.000 A 
ATOM      4  C   UNL     1       2.704   3.706  17.442  0.00  0.00    +0.000 A 
ATOM      5  C   UNL     1       2.571   2.321  17.552  0.00  0.00    +0.000 A 
ATOM      6  C   UNL     1       2.275   1.741  18.781  0.00  0.00    +0.000 A 
ATOM      7  C   UNL     1       2.105   2.552  19.896  0.00  0.00    +0.000 A 
ATOM      8  C   UNL     1       2.225   3.946  19.788  0.00  0.00    +0.000 A 
ATOM      9  C   UNL     1       2.061   4.809  21.012  0.00  0.00    +0.000 C 
ATOM     10  C   UNL     1       1.485   6.173  20.648  0.00  0.00    +0.000 C 
ENDROOT
BRANCH   1  12
ATOM     11  C   UNL     1       1.260   9.025  18.731  0.00  0.00    +0.000 C 
ATOM     12  C   UNL     1       2.143   8.287  19.429  0.00  0.00    +0.000 C 
BRANCH  11  14
ATOM     13  N   UNL     1       0.364  11.280  19.249  0.00  0.00    +0.000 N 
ATOM     14  C   UNL     1       1.370  10.519  18.640  0.00  0.00    +0.000 C 
ATOM     15  O   UNL     1       2.302  11.024  18.016  0.00  0.00    +0.000 OA
BRANCH  13  16
ATOM     16  C   UNL     1       0.360  12.749  19.029  0.00  0.00    +0.000 C 
BRANCH  16  18
ATOM     17  C   UNL     1       2.284  14.475  19.052  0.00  0.00    +0.000 C 
ATOM     18  C   UNL     1       1.363  13.577  19.884  0.00  0.00    +0.000 C 
ATOM     19  C   UNL     1       0.618  14.464  20.898  0.00  0.00    +0.000 C 
ENDBRANCH  16  18
ENDBRANCH  13  16
BRANCH  13  20
ATOM     20  C   UNL     1      -0.564  10.745  20.268  0.00  0.00    +0.000 C 
BRANCH  20  21
ATOM     21  C   UNL     1      -0.051  10.783  21.736  0.00  0.00    +0.000 C 
ATOM     22  C   UNL     1      -0.935  11.598  22.677  0.00  0.00    +0.000 C 
ATOM     23  C   UNL     1       0.104   9.359  22.288  0.00  0.00    +0.000 C 
ENDBRANCH  20  21
ENDBRANCH  13  20
ENDBRANCH  11  14
ENDBRANCH   1  12
BRANCH   2  24
ATOM     24  C   UNL     1       3.615   6.568  17.366  0.00  0.00    +0.000 C 
BRANCH  24  25
ATOM     25  C   UNL     1       5.017   6.006  17.235  0.00  0.00    +0.000 A 
ATOM     26  C   UNL     1       5.839   5.781  18.346  0.00  0.00    +0.000 A 
ATOM     27  C   UNL     1       7.039   5.082  18.216  0.00  0.00    +0.000 A 
ATOM     28  C   UNL     1       7.448   4.618  16.969  0.00  0.00    +0.000 A 
ATOM     29  C   UNL     1       6.671   4.879  15.843  0.00  0.00    +0.000 A 
ATOM     30  C   UNL     1       5.462   5.567  15.975  0.00  0.00    +0.000 A 
ENDBRANCH  24  25
ENDBRANCH   2  24
TORSDOF 8
ENDMDL
MODEL 6
REMARK VINA RESULT:      -8.3      1.108      1.715
REMARK  Name = 
REMARK  12 active torsions:
REMARK  status: ('A' for Active; 'I' for Inactive)
REMARK    1  A    between atoms: C_1  and  C_2
REMARK    2  A    between atoms: C_2  and  C_3
REMARK    3  A    between atoms: C_2  and  C_4
REMARK    4  A    between atoms: C_4  and  N_5
REMARK    5  A    between atoms: N_5  and  C_6
REMARK    6  A    between atoms: C_6  and  C_7
REMARK    7  A    between atoms: C_7  and  C_8
REMARK    8  A    between atoms: C_7  and  C_9
REMARK    9  A    between atoms: C_10  and  C_12
REMARK   10  A    between atoms: C_13  and  C_14
REMARK   11  A    between atoms: C_15  and  C_16
REMARK   12  A    between atoms: C_16  and  C_17
REMARK                            x       y       z     vdW  Elec       q    Type
REMARK                         _______ _______ _______ _____ _____    ______ ____
ROOT
ATOM      1  C   UNL     1       2.344   8.294  18.268  0.00  0.00    +0.000 C 
ATOM      2  C   UNL     1       1.996   7.838  19.504  0.00  0.00    +0.000 C 
ATOM      3  C   UNL     1       1.076   8.666  20.357  0.00  0.00    +0.000 A 
ATOM      4  C   UNL     1       0.347   8.133  21.435  0.00  0.00    +0.000 A 
ATOM      5  C   UNL     1      -0.471   8.937  22.230  0.00  0.00    +0.000 A 
ATOM      6  C   UNL     1      -0.587  10.298  21.963  0.00  0.00    +0.000 A 
ATOM      7  C   UNL     1       0.110  10.847  20.894  0.00  0.00    +0.000 A 
ATOM      8  C   UNL     1       0.924  10.039  20.084  0.00  0.00    +0.000 A 
ATOM      9  C   UNL     1       1.692  10.654  18.944  0.00  0.00    +0.000 C 
ATOM     10  C   UNL     1       1.867   9.660  17.802  0.00  0.00    +0.000 C 
ENDROOT
BRANCH   1  12
ATOM     11  C   UNL     1       4.437   7.390  17.237  0.00  0.00    +0.000 C 
ATOM     12  C   UNL     1       3.098   7.515  17.277  0.00  0.00    +0.000 C 
BRANCH  11  14
ATOM     13  N   UNL     1       6.220   5.860  16.439  0.00  0.00    +0.000 N 
ATOM     14  C   UNL     1       5.137   6.686  16.112  0.00  0.00    +0.000 C 
ATOM     15  O   UNL     1       4.769   6.877  14.953  0.00  0.00    +0.000 OA
BRANCH  13  16
ATOM     16  C   UNL     1       7.030   5.290  15.332  0.00  0.00    +0.000 C 
BRANCH  16  18
ATOM     17  C   UNL     1       5.374   3.316  15.534  0.00  0.00    +0.000 C 
ATOM     18  C   UNL     1       6.584   3.897  14.798  0.00  0.00    +0.000 C 
ATOM     19  C   UNL     1       6.244   3.968  13.298  0.00  0.00    +0.000 C 
ENDBRANCH  16  18
ENDBRANCH  13  16
BRANCH  13  20
ATOM     20  C   UNL     1       6.478   5.349  17.801  0.00  0.00    +0.000 C 
BRANCH  20  21
ATOM     21  C   UNL     1       7.780   5.863  18.481  0.00  0.00    +0.000 C 
ATOM     22  C   UNL     1       8.034   7.355  18.277  0.00  0.00    +0.000 C 
ATOM     23  C   UNL     1       7.763   5.549  19.983  0.00  0.00    +0.000 C 
ENDBRANCH  20  21
ENDBRANCH  13  20
ENDBRANCH  11  14
ENDBRANCH   1  12
BRANCH   2  24
ATOM     24  C   UNL     1       2.573   6.582  20.146  0.00  0.00    +0.000 C 
BRANCH  24  25
ATOM     25  C   UNL     1       1.950   5.245  19.796  0.00  0.00    +0.000 A 
ATOM     26  C   UNL     1       1.991   4.719  18.499  0.00  0.00    +0.000 A 
ATOM     27  C   UNL     1       1.590   3.407  18.247  0.00  0.00    +0.000 A 
ATOM     28  C   UNL     1       1.121   2.607  19.285  0.00  0.00    +0.000 A 
ATOM     29  C   UNL     1       1.023   3.129  20.572  0.00  0.00    +0.000 A 
ATOM     30  C   UNL     1       1.437   4.438  20.827  0.00  0.00    +0.000 A 
ENDBRANCH  24  25
ENDBRANCH   2  24
TORSDOF 8
ENDMDL
MODEL 7
REMARK VINA RESULT:      -8.3      2.686      7.873
REMARK  Name = 
REMARK  12 active torsions:
REMARK  status: ('A' for Active; 'I' for Inactive)
REMARK    1  A    between atoms: C_1  and  C_2
REMARK    2  A    between atoms: C_2  and  C_3
REMARK    3  A    between atoms: C_2  and  C_4
REMARK    4  A    between atoms: C_4  and  N_5
REMARK    5  A    between atoms: N_5  and  C_6
REMARK    6  A    between atoms: C_6  and  C_7
REMARK    7  A    between atoms: C_7  and  C_8
REMARK    8  A    between atoms: C_7  and  C_9
REMARK    9  A    between atoms: C_10  and  C_12
REMARK   10  A    between atoms: C_13  and  C_14
REMARK   11  A    between atoms: C_15  and  C_16
REMARK   12  A    between atoms: C_16  and  C_17
REMARK                            x       y       z     vdW  Elec       q    Type
REMARK                         _______ _______ _______ _____ _____    ______ ____
ROOT
ATOM      1  C   UNL     1       2.384   6.650  18.999  0.00  0.00    +0.000 C 
ATOM      2  C   UNL     1       3.100   5.778  18.233  0.00  0.00    +0.000 C 
ATOM      3  C   UNL     1       2.990   4.304  18.509  0.00  0.00    +0.000 A 
ATOM      4  C   UNL     1       3.343   3.322  17.565  0.00  0.00    +0.000 A 
ATOM      5  C   UNL     1       3.263   1.962  17.866  0.00  0.00    +0.000 A 
ATOM      6  C   UNL     1       2.822   1.546  19.118  0.00  0.00    +0.000 A 
ATOM      7  C   UNL     1       2.454   2.495  20.063  0.00  0.00    +0.000 A 
ATOM      8  C   UNL     1       2.519   3.864  19.760  0.00  0.00    +0.000 A 
ATOM      9  C   UNL     1       2.139   4.881  20.805  0.00  0.00    +0.000 C 
ATOM     10  C   UNL     1       1.554   6.134  20.162  0.00  0.00    +0.000 C 
ENDROOT
BRANCH   1  12
ATOM     11  C   UNL     1       1.409   8.931  19.330  0.00  0.00    +0.000 C 
ATOM     12  C   UNL     1       2.275   8.091  18.733  0.00  0.00    +0.000 C 
BRANCH  11  14
ATOM     13  N   UNL     1       0.134  11.059  19.336  0.00  0.00    +0.000 N 
ATOM     14  C   UNL     1       1.270  10.363  18.904  0.00  0.00    +0.000 C 
ATOM     15  O   UNL     1       2.122  10.866  18.173  0.00  0.00    +0.000 OA
BRANCH  13  16
ATOM     16  C   UNL     1      -0.110  12.419  18.789  0.00  0.00    +0.000 C 
BRANCH  16  18
ATOM     17  C   UNL     1       1.591  14.364  18.743  0.00  0.00    +0.000 C 
ATOM     18  C   UNL     1       0.547  13.600  19.562  0.00  0.00    +0.000 C 
ATOM     19  C   UNL     1      -0.519  14.604  20.038  0.00  0.00    +0.000 C 
ENDBRANCH  16  18
ENDBRANCH  13  16
BRANCH  13  20
ATOM     20  C   UNL     1      -0.721  10.616  20.458  0.00  0.00    +0.000 C 
BRANCH  20  21
ATOM     21  C   UNL     1      -0.189  10.945  21.883  0.00  0.00    +0.000 C 
ATOM     22  C   UNL     1      -1.084  11.900  22.669  0.00  0.00    +0.000 C 
ATOM     23  C   UNL     1       0.016   9.656  22.691  0.00  0.00    +0.000 C 
ENDBRANCH  20  21
ENDBRANCH  13  20
ENDBRANCH  11  14
ENDBRANCH   1  12
BRANCH   2  24
ATOM     24  C   UNL     1       4.112   6.199  17.175  0.00  0.00    +0.000 C 
BRANCH  24  25
ATOM     25  C   UNL     1       5.566   6.332  17.584  0.00  0.00    +0.000 A 
ATOM     26  C   UNL     1       6.400   7.329  17.065  0.00  0.00    +0.000 A 
ATOM     27  C   UNL     1       7.668   7.552  17.603  0.00  0.00    +0.000 A 
ATOM     28  C   UNL     1       8.130   6.765  18.654  0.00  0.00    +0.000 A 
ATOM     29  C   UNL     1       7.337   5.733  19.148  0.00  0.00    +0.000 A 
ATOM     30  C   UNL     1       6.062   5.519  18.619  0.00  0.00    +0.000 A 
ENDBRANCH  24  25
ENDBRANCH   2  24
TORSDOF 8
ENDMDL
MODEL 8
REMARK VINA RESULT:      -8.3      2.463      7.808
REMARK  Name = 
REMARK  12 active torsions:
REMARK  status: ('A' for Active; 'I' for Inactive)
REMARK    1  A    between atoms: C_1  and  C_2
REMARK    2  A    between atoms: C_2  and  C_3
REMARK    3  A    between atoms: C_2  and  C_4
REMARK    4  A    between atoms: C_4  and  N_5
REMARK    5  A    between atoms: N_5  and  C_6
REMARK    6  A    between atoms: C_6  and  C_7
REMARK    7  A    between atoms: C_7  and  C_8
REMARK    8  A    between atoms: C_7  and  C_9
REMARK    9  A    between atoms: C_10  and  C_12
REMARK   10  A    between atoms: C_13  and  C_14
REMARK   11  A    between atoms: C_15  and  C_16
REMARK   12  A    between atoms: C_16  and  C_17
REMARK                            x       y       z     vdW  Elec       q    Type
REMARK                         _______ _______ _______ _____ _____    ______ ____
ROOT
ATOM      1  C   UNL     1       2.220   6.598  19.574  0.00  0.00    +0.000 C 
ATOM      2  C   UNL     1       2.806   5.905  18.556  0.00  0.00    +0.000 C 
ATOM      3  C   UNL     1       2.707   4.405  18.541  0.00  0.00    +0.000 A 
ATOM      4  C   UNL     1       2.906   3.638  17.378  0.00  0.00    +0.000 A 
ATOM      5  C   UNL     1       2.843   2.244  17.406  0.00  0.00    +0.000 A 
ATOM      6  C   UNL     1       2.570   1.579  18.598  0.00  0.00    +0.000 A 
ATOM      7  C   UNL     1       2.354   2.314  19.757  0.00  0.00    +0.000 A 
ATOM      8  C   UNL     1       2.404   3.716  19.731  0.00  0.00    +0.000 A 
ATOM      9  C   UNL     1       2.191   4.497  21.001  0.00  0.00    +0.000 C 
ATOM     10  C   UNL     1       1.547   5.849  20.712  0.00  0.00    +0.000 C 
ENDROOT
BRANCH   1  12
ATOM     11  C   UNL     1       1.316   8.808  18.827  0.00  0.00    +0.000 C 
ATOM     12  C   UNL     1       2.103   8.061  19.622  0.00  0.00    +0.000 C 
BRANCH  11  14
ATOM     13  N   UNL     1       0.375  10.970  19.598  0.00  0.00    +0.000 N 
ATOM     14  C   UNL     1       1.357  10.308  18.850  0.00  0.00    +0.000 C 
ATOM     15  O   UNL     1       2.213  10.904  18.197  0.00  0.00    +0.000 OA
BRANCH  13  16
ATOM     16  C   UNL     1       0.293  12.450  19.500  0.00  0.00    +0.000 C 
BRANCH  16  18
ATOM     17  C   UNL     1      -1.774  12.055  18.000  0.00  0.00    +0.000 C 
ATOM     18  C   UNL     1      -1.027  13.030  18.914  0.00  0.00    +0.000 C 
ATOM     19  C   UNL     1      -1.985  13.461  20.040  0.00  0.00    +0.000 C 
ENDBRANCH  16  18
ENDBRANCH  13  16
BRANCH  13  20
ATOM     20  C   UNL     1      -0.442  10.314  20.640  0.00  0.00    +0.000 C 
BRANCH  20  21
ATOM     21  C   UNL     1      -0.041  10.628  22.111  0.00  0.00    +0.000 C 
ATOM     22  C   UNL     1      -1.179  11.206  22.950  0.00  0.00    +0.000 C 
ATOM     23  C   UNL     1       0.511   9.371  22.797  0.00  0.00    +0.000 C 
ENDBRANCH  20  21
ENDBRANCH  13  20
ENDBRANCH  11  14
ENDBRANCH   1  12
BRANCH   2  24
ATOM     24  C   UNL     1       3.671   6.541  17.475  0.00  0.00    +0.000 C 
BRANCH  24  25
ATOM     25  C   UNL     1       5.066   5.990  17.254  0.00  0.00    +0.000 A 
ATOM     26  C   UNL     1       5.936   5.711  18.315  0.00  0.00    +0.000 A 
ATOM     27  C   UNL     1       7.130   5.023  18.098  0.00  0.00    +0.000 A 
ATOM     28  C   UNL     1       7.483   4.622  16.812  0.00  0.00    +0.000 A 
ATOM     29  C   UNL     1       6.657   4.936  15.737  0.00  0.00    +0.000 A 
ATOM     30  C   UNL     1       5.455   5.613  15.956  0.00  0.00    +0.000 A 
ENDBRANCH  24  25
ENDBRANCH   2  24
TORSDOF 8
ENDMDL
MODEL 9
REMARK VINA RESULT:      -8.2      0.602      1.220
REMARK  Name = 
REMARK  12 active torsions:
REMARK  status: ('A' for Active; 'I' for Inactive)
REMARK    1  A    between atoms: C_1  and  C_2
REMARK    2  A    between atoms: C_2  and  C_3
REMARK    3  A    between atoms: C_2  and  C_4
REMARK    4  A    between atoms: C_4  and  N_5
REMARK    5  A    between atoms: N_5  and  C_6
REMARK    6  A    between atoms: C_6  and  C_7
REMARK    7  A    between atoms: C_7  and  C_8
REMARK    8  A    between atoms: C_7  and  C_9
REMARK    9  A    between atoms: C_10  and  C_12
REMARK   10  A    between atoms: C_13  and  C_14
REMARK   11  A    between atoms: C_15  and  C_16
REMARK   12  A    between atoms: C_16  and  C_17
REMARK                            x       y       z     vdW  Elec       q    Type
REMARK                         _______ _______ _______ _____ _____    ______ ____
ROOT
ATOM      1  C   UNL     1       2.223   7.955  18.374  0.00  0.00    +0.000 C 
ATOM      2  C   UNL     1       2.036   7.692  19.699  0.00  0.00    +0.000 C 
ATOM      3  C   UNL     1       1.083   8.547  20.487  0.00  0.00    +0.000 A 
ATOM      4  C   UNL     1       0.519   8.135  21.708  0.00  0.00    +0.000 A 
ATOM      5  C   UNL     1      -0.335   8.969  22.433  0.00  0.00    +0.000 A 
ATOM      6  C   UNL     1      -0.652  10.236  21.952  0.00  0.00    +0.000 A 
ATOM      7  C   UNL     1      -0.120  10.660  20.741  0.00  0.00    +0.000 A 
ATOM      8  C   UNL     1       0.728   9.820  20.002  0.00  0.00    +0.000 A 
ATOM      9  C   UNL     1       1.316  10.305  18.702  0.00  0.00    +0.000 C 
ATOM     10  C   UNL     1       1.533   9.148  17.734  0.00  0.00    +0.000 C 
ENDROOT
BRANCH   1  12
ATOM     11  C   UNL     1       4.336   7.018  17.417  0.00  0.00    +0.000 C 
ATOM     12  C   UNL     1       2.994   7.103  17.459  0.00  0.00    +0.000 C 
BRANCH  11  14
ATOM     13  N   UNL     1       5.433   4.917  16.682  0.00  0.00    +0.000 N 
ATOM     14  C   UNL     1       5.049   6.226  16.361  0.00  0.00    +0.000 C 
ATOM     15  O   UNL     1       5.304   6.748  15.277  0.00  0.00    +0.000 OA
BRANCH  13  16
ATOM     16  C   UNL     1       6.285   4.176  15.718  0.00  0.00    +0.000 C 
BRANCH  16  18
ATOM     17  C   UNL     1       7.566   4.965  13.616  0.00  0.00    +0.000 C 
ATOM     18  C   UNL     1       6.204   4.633  14.232  0.00  0.00    +0.000 C 
ATOM     19  C   UNL     1       5.534   3.554  13.362  0.00  0.00    +0.000 C 
ENDBRANCH  16  18
ENDBRANCH  13  16
BRANCH  13  20
ATOM     20  C   UNL     1       4.869   4.153  17.815  0.00  0.00    +0.000 C 
BRANCH  20  21
ATOM     21  C   UNL     1       3.936   2.967  17.433  0.00  0.00    +0.000 C 
ATOM     22  C   UNL     1       3.778   1.926  18.540  0.00  0.00    +0.000 C 
ATOM     23  C   UNL     1       2.553   3.483  17.016  0.00  0.00    +0.000 C 
ENDBRANCH  20  21
ENDBRANCH  13  20
ENDBRANCH  11  14
ENDBRANCH   1  12
BRANCH   2  24
ATOM     24  C   UNL     1       2.824   6.650  20.483  0.00  0.00    +0.000 C 
BRANCH  24  25
ATOM     25  C   UNL     1       2.286   5.234  20.539  0.00  0.00    +0.000 A 
ATOM     26  C   UNL     1       2.808   4.270  21.409  0.00  0.00    +0.000 A 
ATOM     27  C   UNL     1       2.169   3.042  21.581  0.00  0.00    +0.000 A 
ATOM     28  C   UNL     1       1.009   2.750  20.868  0.00  0.00    +0.000 A 
ATOM     29  C   UNL     1       0.504   3.675  19.958  0.00  0.00    +0.000 A 
ATOM     30  C   UNL     1       1.136   4.910  19.796  0.00  0.00    +0.000 A 
ENDBRANCH  24  25
ENDBRANCH   2  24
TORSDOF 8
ENDMDL
