MODEL 1
REMARK VINA RESULT:      -8.2      0.000      0.000
REMARK  Name = 
REMARK  7 active torsions:
REMARK  status: ('A' for Active; 'I' for Inactive)
REMARK    1  A    between atoms: O_1  and  N_2
REMARK    2  A    between atoms: C_3  and  C_13
REMARK    3  A    between atoms: N_4  and  C_5
REMARK    4  A    between atoms: C_5  and  C_6
REMARK    5  A    between atoms: C_6  and  N_7
REMARK    6  A    between atoms: C_16  and  O_17
REMARK    7  A    between atoms: O_17  and  C_18
REMARK                            x       y       z     vdW  Elec       q    Type
REMARK                         _______ _______ _______ _____ _____    ______ ____
ROOT
ATOM      1  C   UNL     1       1.751   6.426  20.159  0.00  0.00    +0.000 A 
ATOM      2  C   UNL     1       1.101   7.158  21.156  0.00  0.00    +0.000 A 
ATOM      3  C   UNL     1       0.900   8.529  20.979  0.00  0.00    +0.000 A 
ATOM      4  C   UNL     1       1.349   9.113  19.803  0.00  0.00    +0.000 A 
ATOM      5  N   UNL     1       2.014   8.435  18.841  0.00  0.00    +0.000 NA
ATOM      6  C   UNL     1       2.190   7.110  19.032  0.00  0.00    +0.000 A 
ENDROOT
BRANCH   1   8
ATOM      7  N   UNL     1       0.994   4.253  20.614  0.00  0.00    +0.000 NA
ATOM      8  C   UNL     1       2.035   4.958  20.289  0.00  0.00    +0.000 C 
ATOM      9  N   UNL     1       3.342   4.571  20.048  0.00  0.00    +0.000 N 
ATOM     10  H   UNL     1       4.063   5.222  20.338  0.00  0.00    +0.000 HD
BRANCH   7  11
ATOM     11  O   UNL     1       1.239   2.901  20.820  0.00  0.00    +0.000 OA
ATOM     12  H   UNL     1       2.028   2.924  21.393  0.00  0.00    +0.000 HD
ENDBRANCH   7  11
BRANCH   9  13
ATOM     13  C   UNL     1       3.836   3.236  19.763  0.00  0.00    +0.000 C 
BRANCH  13  14
ATOM     14  C   UNL     1       4.977   3.264  18.716  0.00  0.00    +0.000 C 
BRANCH  14  15
ATOM     15  N   UNL     1       5.178   4.599  18.116  0.00  0.00    +0.000 NA
ATOM     16  C   UNL     1       5.018   4.594  16.644  0.00  0.00    +0.000 C 
ATOM     17  C   UNL     1       6.229   4.066  15.850  0.00  0.00    +0.000 C 
ATOM     18  O   UNL     1       7.445   4.720  16.231  0.00  0.00    +0.000 OA
ATOM     19  C   UNL     1       7.667   4.579  17.638  0.00  0.00    +0.000 C 
ATOM     20  C   UNL     1       6.500   5.185  18.433  0.00  0.00    +0.000 C 
ENDBRANCH  14  15
ENDBRANCH  13  14
ENDBRANCH   9  13
ENDBRANCH   1   8
BRANCH   4  21
ATOM     21  O   UNL     1       1.091  10.468  19.624  0.00  0.00    +0.000 OA
BRANCH  21  22
ATOM     22  C   UNL     1      -0.187  10.811  19.230  0.00  0.00    +0.000 A 
ATOM     23  C   UNL     1      -0.980  11.702  19.957  0.00  0.00    +0.000 A 
ATOM     24  C   UNL     1      -2.272  11.993  19.532  0.00  0.00    +0.000 A 
ATOM     25  C   UNL     1      -2.768  11.448  18.338  0.00  0.00    +0.000 A 
ATOM     26  C   UNL     1      -4.067  11.742  17.907  0.00  0.00    +0.000 A 
ATOM     27  C   UNL     1      -4.548  11.221  16.706  0.00  0.00    +0.000 A 
ATOM     28  C   UNL     1      -3.737  10.402  15.933  0.00  0.00    +0.000 A 
ATOM     29  C   UNL     1      -2.443  10.086  16.359  0.00  0.00    +0.000 A 
ATOM     30  C   UNL     1      -1.940  10.598  17.565  0.00  0.00    +0.000 A 
ATOM     31  C   UNL     1      -0.646  10.287  18.023  0.00  0.00    +0.000 A 
ENDBRANCH  21  22
ENDBRANCH   4  21
TORSDOF 7
ENDMDL
MODEL 2
REMARK VINA RESULT:      -8.1      1.264      2.150
REMARK  Name = 
REMARK  7 active torsions:
REMARK  status: ('A' for Active; 'I' for Inactive)
REMARK    1  A    between atoms: O_1  and  N_2
REMARK    2  A    between atoms: C_3  and  C_13
REMARK    3  A    between atoms: N_4  and  C_5
REMARK    4  A    between atoms: C_5  and  C_6
REMARK    5  A    between atoms: C_6  and  N_7
REMARK    6  A    between atoms: C_16  and  O_17
REMARK    7  A    between atoms: O_17  and  C_18
REMARK                            x       y       z     vdW  Elec       q    Type
REMARK                         _______ _______ _______ _____ _____    ______ ____
ROOT
ATOM      1  C   UNL     1       2.077   7.324  19.699  0.00  0.00    +0.000 A 
ATOM      2  C   UNL     1       1.402   8.055  20.680  0.00  0.00    +0.000 A 
ATOM      3  C   UNL     1       0.859   9.300  20.355  0.00  0.00    +0.000 A 
ATOM      4  C   UNL     1       1.005   9.762  19.054  0.00  0.00    +0.000 A 
ATOM      5  N   UNL     1       1.685   9.092  18.098  0.00  0.00    +0.000 NA
ATOM      6  C   UNL     1       2.194   7.887  18.435  0.00  0.00    +0.000 A 
ENDROOT
BRANCH   1   8
ATOM      7  N   UNL     1       1.929   5.154  20.578  0.00  0.00    +0.000 NA
ATOM      8  C   UNL     1       2.716   5.995  19.977  0.00  0.00    +0.000 C 
ATOM      9  N   UNL     1       4.029   5.856  19.562  0.00  0.00    +0.000 N 
ATOM     10  H   UNL     1       4.609   6.686  19.625  0.00  0.00    +0.000 HD
BRANCH   7  11
ATOM     11  O   UNL     1       2.515   3.942  20.921  0.00  0.00    +0.000 OA
ATOM     12  H   UNL     1       2.118   3.335  20.270  0.00  0.00    +0.000 HD
ENDBRANCH   7  11
BRANCH   9  13
ATOM     13  C   UNL     1       4.779   4.628  19.380  0.00  0.00    +0.000 C 
BRANCH  13  14
ATOM     14  C   UNL     1       4.895   4.248  17.882  0.00  0.00    +0.000 C 
BRANCH  14  15
ATOM     15  N   UNL     1       6.288   4.005  17.454  0.00  0.00    +0.000 NA
ATOM     16  C   UNL     1       7.240   4.983  18.029  0.00  0.00    +0.000 C 
ATOM     17  C   UNL     1       7.276   6.357  17.332  0.00  0.00    +0.000 C 
ATOM     18  O   UNL     1       7.458   6.235  15.917  0.00  0.00    +0.000 OA
ATOM     19  C   UNL     1       6.432   5.412  15.352  0.00  0.00    +0.000 C 
ATOM     20  C   UNL     1       6.452   4.013  15.983  0.00  0.00    +0.000 C 
ENDBRANCH  14  15
ENDBRANCH  13  14
ENDBRANCH   9  13
ENDBRANCH   1   8
BRANCH   4  21
ATOM     21  O   UNL     1       0.411  10.979  18.739  0.00  0.00    +0.000 OA
BRANCH  21  22
ATOM     22  C   UNL     1      -0.942  10.960  18.469  0.00  0.00    +0.000 A 
ATOM     23  C   UNL     1      -1.502  10.115  17.507  0.00  0.00    +0.000 A 
ATOM     24  C   UNL     1      -2.869  10.155  17.253  0.00  0.00    +0.000 A 
ATOM     25  C   UNL     1      -3.707  10.995  18.001  0.00  0.00    +0.000 A 
ATOM     26  C   UNL     1      -5.084  11.034  17.748  0.00  0.00    +0.000 A 
ATOM     27  C   UNL     1      -5.919  11.850  18.513  0.00  0.00    +0.000 A 
ATOM     28  C   UNL     1      -5.385  12.631  19.527  0.00  0.00    +0.000 A 
ATOM     29  C   UNL     1      -4.010  12.614  19.780  0.00  0.00    +0.000 A 
ATOM     30  C   UNL     1      -3.151  11.802  19.022  0.00  0.00    +0.000 A 
ATOM     31  C   UNL     1      -1.762  11.776  19.248  0.00  0.00    +0.000 A 
ENDBRANCH  21  22
ENDBRANCH   4  21
TORSDOF 7
ENDMDL
MODEL 3
REMARK VINA RESULT:      -8.1      1.187      1.876
REMARK  Name = 
REMARK  7 active torsions:
REMARK  status: ('A' for Active; 'I' for Inactive)
REMARK    1  A    between atoms: O_1  and  N_2
REMARK    2  A    between atoms: C_3  and  C_13
REMARK    3  A    between atoms: N_4  and  C_5
REMARK    4  A    between atoms: C_5  and  C_6
REMARK    5  A    between atoms: C_6  and  N_7
REMARK    6  A    between atoms: C_16  and  O_17
REMARK    7  A    between atoms: O_17  and  C_18
REMARK                            x       y       z     vdW  Elec       q    Type
REMARK                         _______ _______ _______ _____ _____    ______ ____
ROOT
ATOM      1  C   UNL     1       2.011   7.150  19.925  0.00  0.00    +0.000 A 
ATOM      2  C   UNL     1       1.285   7.893  20.860  0.00  0.00    +0.000 A 
ATOM      3  C   UNL     1       0.827   9.167  20.515  0.00  0.00    +0.000 A 
ATOM      4  C   UNL     1       1.106   9.645  19.243  0.00  0.00    +0.000 A 
ATOM      5  N   UNL     1       1.839   8.962  18.335  0.00  0.00    +0.000 NA
ATOM      6  C   UNL     1       2.264   7.730  18.689  0.00  0.00    +0.000 A 
ENDROOT
BRANCH   1   8
ATOM      7  N   UNL     1       1.745   5.028  20.890  0.00  0.00    +0.000 NA
ATOM      8  C   UNL     1       2.566   5.789  20.230  0.00  0.00    +0.000 C 
ATOM      9  N   UNL     1       3.849   5.542  19.773  0.00  0.00    +0.000 N 
ATOM     10  H   UNL     1       4.488   6.330  19.785  0.00  0.00    +0.000 HD
BRANCH   7  11
ATOM     11  O   UNL     1       2.257   3.790  21.256  0.00  0.00    +0.000 OA
ATOM     12  H   UNL     1       2.170   3.283  20.427  0.00  0.00    +0.000 HD
ENDBRANCH   7  11
BRANCH   9  13
ATOM     13  C   UNL     1       4.503   4.258  19.611  0.00  0.00    +0.000 C 
BRANCH  13  14
ATOM     14  C   UNL     1       5.584   4.306  18.502  0.00  0.00    +0.000 C 
BRANCH  14  15
ATOM     15  N   UNL     1       5.185   5.131  17.343  0.00  0.00    +0.000 NA
ATOM     16  C   UNL     1       5.479   4.476  16.048  0.00  0.00    +0.000 C 
ATOM     17  C   UNL     1       6.948   4.555  15.586  0.00  0.00    +0.000 C 
ATOM     18  O   UNL     1       7.442   5.899  15.605  0.00  0.00    +0.000 OA
ATOM     19  C   UNL     1       7.295   6.466  16.911  0.00  0.00    +0.000 C 
ATOM     20  C   UNL     1       5.820   6.468  17.336  0.00  0.00    +0.000 C 
ENDBRANCH  14  15
ENDBRANCH  13  14
ENDBRANCH   9  13
ENDBRANCH   1   8
BRANCH   4  21
ATOM     21  O   UNL     1       0.596  10.893  18.903  0.00  0.00    +0.000 OA
BRANCH  21  22
ATOM     22  C   UNL     1      -0.752  10.956  18.613  0.00  0.00    +0.000 A 
ATOM     23  C   UNL     1      -1.337  10.193  17.599  0.00  0.00    +0.000 A 
ATOM     24  C   UNL     1      -2.696  10.315  17.329  0.00  0.00    +0.000 A 
ATOM     25  C   UNL     1      -3.504  11.155  18.110  0.00  0.00    +0.000 A 
ATOM     26  C   UNL     1      -4.873  11.276  17.841  0.00  0.00    +0.000 A 
ATOM     27  C   UNL     1      -5.680  12.090  18.637  0.00  0.00    +0.000 A 
ATOM     28  C   UNL     1      -5.124  12.788  19.700  0.00  0.00    +0.000 A 
ATOM     29  C   UNL     1      -3.756  12.688  19.970  0.00  0.00    +0.000 A 
ATOM     30  C   UNL     1      -2.925  11.877  19.181  0.00  0.00    +0.000 A 
ATOM     31  C   UNL     1      -1.543  11.769  19.424  0.00  0.00    +0.000 A 
ENDBRANCH  21  22
ENDBRANCH   4  21
TORSDOF 7
ENDMDL
MODEL 4
REMARK VINA RESULT:      -8.0      5.834      9.372
REMARK  Name = 
REMARK  7 active torsions:
REMARK  status: ('A' for Active; 'I' for Inactive)
REMARK    1  A    between atoms: O_1  and  N_2
REMARK    2  A    between atoms: C_3  and  C_13
REMARK    3  A    between atoms: N_4  and  C_5
REMARK    4  A    between atoms: C_5  and  C_6
REMARK    5  A    between atoms: C_6  and  N_7
REMARK    6  A    between atoms: C_16  and  O_17
REMARK    7  A    between atoms: O_17  and  C_18
REMARK                            x       y       z     vdW  Elec       q    Type
REMARK                         _______ _______ _______ _____ _____    ______ ____
ROOT
ATOM      1  C   UNL     1       8.380   8.724  18.423  0.00  0.00    +0.000 A 
ATOM      2  C   UNL     1       8.559   7.508  19.086  0.00  0.00    +0.000 A 
ATOM      3  C   UNL     1       7.797   6.401  18.704  0.00  0.00    +0.000 A 
ATOM      4  C   UNL     1       6.891   6.553  17.664  0.00  0.00    +0.000 A 
ATOM      5  N   UNL     1       6.672   7.728  17.032  0.00  0.00    +0.000 NA
ATOM      6  C   UNL     1       7.426   8.781  17.415  0.00  0.00    +0.000 A 
ENDROOT
BRANCH   1   8
ATOM      7  N   UNL     1       9.188  10.179  20.077  0.00  0.00    +0.000 NA
ATOM      8  C   UNL     1       9.135   9.967  18.796  0.00  0.00    +0.000 C 
ATOM      9  N   UNL     1       9.657  10.697  17.743  0.00  0.00    +0.000 N 
ATOM     10  H   UNL     1       9.105  10.713  16.892  0.00  0.00    +0.000 HD
BRANCH   7  11
ATOM     11  O   UNL     1       9.812  11.362  20.452  0.00  0.00    +0.000 OA
ATOM     12  H   UNL     1      10.335  11.078  21.224  0.00  0.00    +0.000 HD
ENDBRANCH   7  11
BRANCH   9  13
ATOM     13  C   UNL     1      10.691  11.713  17.792  0.00  0.00    +0.000 C 
BRANCH  13  14
ATOM     14  C   UNL     1      10.129  13.114  17.437  0.00  0.00    +0.000 C 
BRANCH  14  15
ATOM     15  N   UNL     1       9.663  13.865  18.621  0.00  0.00    +0.000 NA
ATOM     16  C   UNL     1       8.186  13.949  18.698  0.00  0.00    +0.000 C 
ATOM     17  C   UNL     1       7.536  15.006  17.783  0.00  0.00    +0.000 C 
ATOM     18  O   UNL     1       8.133  16.297  17.950  0.00  0.00    +0.000 OA
ATOM     19  C   UNL     1       9.543  16.229  17.714  0.00  0.00    +0.000 C 
ATOM     20  C   UNL     1      10.206  15.240  18.685  0.00  0.00    +0.000 C 
ENDBRANCH  14  15
ENDBRANCH  13  14
ENDBRANCH   9  13
ENDBRANCH   1   8
BRANCH   4  21
ATOM     21  O   UNL     1       6.182   5.425  17.264  0.00  0.00    +0.000 OA
BRANCH  21  22
ATOM     22  C   UNL     1       4.967   5.203  17.881  0.00  0.00    +0.000 A 
ATOM     23  C   UNL     1       3.821   5.935  17.563  0.00  0.00    +0.000 A 
ATOM     24  C   UNL     1       2.627   5.690  18.234  0.00  0.00    +0.000 A 
ATOM     25  C   UNL     1       2.546   4.666  19.189  0.00  0.00    +0.000 A 
ATOM     26  C   UNL     1       1.344   4.416  19.864  0.00  0.00    +0.000 A 
ATOM     27  C   UNL     1       1.258   3.378  20.793  0.00  0.00    +0.000 A 
ATOM     28  C   UNL     1       2.369   2.590  21.054  0.00  0.00    +0.000 A 
ATOM     29  C   UNL     1       3.580   2.838  20.400  0.00  0.00    +0.000 A 
ATOM     30  C   UNL     1       3.689   3.878  19.464  0.00  0.00    +0.000 A 
ATOM     31  C   UNL     1       4.899   4.157  18.800  0.00  0.00    +0.000 A 
ENDBRANCH  21  22
ENDBRANCH   4  21
TORSDOF 7
ENDMDL
MODEL 5
REMARK VINA RESULT:      -8.0      1.453      2.462
REMARK  Name = 
REMARK  7 active torsions:
REMARK  status: ('A' for Active; 'I' for Inactive)
REMARK    1  A    between atoms: O_1  and  N_2
REMARK    2  A    between atoms: C_3  and  C_13
REMARK    3  A    between atoms: N_4  and  C_5
REMARK    4  A    between atoms: C_5  and  C_6
REMARK    5  A    between atoms: C_6  and  N_7
REMARK    6  A    between atoms: C_16  and  O_17
REMARK    7  A    between atoms: O_17  and  C_18
REMARK                            x       y       z     vdW  Elec       q    Type
REMARK                         _______ _______ _______ _____ _____    ______ ____
ROOT
ATOM      1  C   UNL     1       2.336   7.145  19.154  0.00  0.00    +0.000 A 
ATOM      2  C   UNL     1       2.433   7.782  17.914  0.00  0.00    +0.000 A 
ATOM      3  C   UNL     1       1.887   9.058  17.755  0.00  0.00    +0.000 A 
ATOM      4  C   UNL     1       1.273   9.652  18.848  0.00  0.00    +0.000 A 
ATOM      5  N   UNL     1       1.133   9.042  20.047  0.00  0.00    +0.000 NA
ATOM      6  C   UNL     1       1.676   7.812  20.177  0.00  0.00    +0.000 A 
ENDROOT
BRANCH   1   8
ATOM      7  N   UNL     1       1.981   4.827  19.227  0.00  0.00    +0.000 NA
ATOM      8  C   UNL     1       2.867   5.762  19.396  0.00  0.00    +0.000 C 
ATOM      9  N   UNL     1       4.201   5.681  19.758  0.00  0.00    +0.000 N 
ATOM     10  H   UNL     1       4.554   6.435  20.337  0.00  0.00    +0.000 HD
BRANCH   7  11
ATOM     11  O   UNL     1       2.420   3.542  19.519  0.00  0.00    +0.000 OA
ATOM     12  H   UNL     1       3.147   3.427  18.880  0.00  0.00    +0.000 HD
ENDBRANCH   7  11
BRANCH   9  13
ATOM     13  C   UNL     1       5.062   4.515  19.721  0.00  0.00    +0.000 C 
BRANCH  13  14
ATOM     14  C   UNL     1       5.547   4.211  18.281  0.00  0.00    +0.000 C 
BRANCH  14  15
ATOM     15  N   UNL     1       6.996   4.436  18.100  0.00  0.00    +0.000 NA
ATOM     16  C   UNL     1       7.437   5.754  18.613  0.00  0.00    +0.000 C 
ATOM     17  C   UNL     1       7.145   6.953  17.690  0.00  0.00    +0.000 C 
ATOM     18  O   UNL     1       7.626   6.733  16.359  0.00  0.00    +0.000 OA
ATOM     19  C   UNL     1       7.064   5.534  15.816  0.00  0.00    +0.000 C 
ATOM     20  C   UNL     1       7.428   4.324  16.689  0.00  0.00    +0.000 C 
ENDBRANCH  14  15
ENDBRANCH  13  14
ENDBRANCH   9  13
ENDBRANCH   1   8
BRANCH   4  21
ATOM     21  O   UNL     1       0.784  10.943  18.682  0.00  0.00    +0.000 OA
BRANCH  21  22
ATOM     22  C   UNL     1      -0.585  11.081  18.570  0.00  0.00    +0.000 A 
ATOM     23  C   UNL     1      -1.330  10.392  17.610  0.00  0.00    +0.000 A 
ATOM     24  C   UNL     1      -2.705  10.588  17.520  0.00  0.00    +0.000 A 
ATOM     25  C   UNL     1      -3.364  11.427  18.431  0.00  0.00    +0.000 A 
ATOM     26  C   UNL     1      -4.748  11.623  18.343  0.00  0.00    +0.000 A 
ATOM     27  C   UNL     1      -5.406  12.436  19.267  0.00  0.00    +0.000 A 
ATOM     28  C   UNL     1      -4.686  13.058  20.277  0.00  0.00    +0.000 A 
ATOM     29  C   UNL     1      -3.302  12.885  20.367  0.00  0.00    +0.000 A 
ATOM     30  C   UNL     1      -2.619  12.073  19.446  0.00  0.00    +0.000 A 
ATOM     31  C   UNL     1      -1.225  11.891  19.507  0.00  0.00    +0.000 A 
ENDBRANCH  21  22
ENDBRANCH   4  21
TORSDOF 7
ENDMDL
MODEL 6
REMARK VINA RESULT:      -8.0      1.346      2.012
REMARK  Name = 
REMARK  7 active torsions:
REMARK  status: ('A' for Active; 'I' for Inactive)
REMARK    1  A    between atoms: O_1  and  N_2
REMARK    2  A    between atoms: C_3  and  C_13
REMARK    3  A    between atoms: N_4  and  C_5
REMARK    4  A    between atoms: C_5  and  C_6
REMARK    5  A    between atoms: C_6  and  N_7
REMARK    6  A    between atoms: C_16  and  O_17
REMARK    7  A    between atoms: O_17  and  C_18
REMARK                            x       y       z     vdW  Elec       q    Type
REMARK                         _______ _______ _______ _____ _____    ______ ____
ROOT
ATOM      1  C   UNL     1       2.073   7.696  19.392  0.00  0.00    +0.000 A 
ATOM      2  C   UNL     1       2.186   8.308  18.141  0.00  0.00    +0.000 A 
ATOM      3  C   UNL     1       1.680   9.598  17.962  0.00  0.00    +0.000 A 
ATOM      4  C   UNL     1       1.087  10.229  19.046  0.00  0.00    +0.000 A 
ATOM      5  N   UNL     1       0.932   9.644  20.255  0.00  0.00    +0.000 NA
ATOM      6  C   UNL     1       1.437   8.401  20.406  0.00  0.00    +0.000 A 
ENDROOT
BRANCH   1   8
ATOM      7  N   UNL     1       1.847   5.656  20.529  0.00  0.00    +0.000 NA
ATOM      8  C   UNL     1       2.562   6.302  19.657  0.00  0.00    +0.000 C 
ATOM      9  N   UNL     1       3.683   5.909  18.948  0.00  0.00    +0.000 N 
ATOM     10  H   UNL     1       4.374   6.629  18.767  0.00  0.00    +0.000 HD
BRANCH   7  11
ATOM     11  O   UNL     1       2.319   4.391  20.855  0.00  0.00    +0.000 OA
ATOM     12  H   UNL     1       3.270   4.559  20.992  0.00  0.00    +0.000 HD
ENDBRANCH   7  11
BRANCH   9  13
ATOM     13  C   UNL     1       4.171   4.560  18.731  0.00  0.00    +0.000 C 
BRANCH  13  14
ATOM     14  C   UNL     1       4.396   4.272  17.224  0.00  0.00    +0.000 C 
BRANCH  14  15
ATOM     15  N   UNL     1       5.767   3.810  16.924  0.00  0.00    +0.000 NA
ATOM     16  C   UNL     1       6.804   4.638  17.581  0.00  0.00    +0.000 C 
ATOM     17  C   UNL     1       7.115   5.980  16.888  0.00  0.00    +0.000 C 
ATOM     18  O   UNL     1       7.400   5.809  15.495  0.00  0.00    +0.000 OA
ATOM     19  C   UNL     1       6.313   5.146  14.841  0.00  0.00    +0.000 C 
ATOM     20  C   UNL     1       6.060   3.770  15.474  0.00  0.00    +0.000 C 
ENDBRANCH  14  15
ENDBRANCH  13  14
ENDBRANCH   9  13
ENDBRANCH   1   8
BRANCH   4  21
ATOM     21  O   UNL     1       0.638  11.532  18.859  0.00  0.00    +0.000 OA
BRANCH  21  22
ATOM     22  C   UNL     1      -0.709  11.760  19.055  0.00  0.00    +0.000 A 
ATOM     23  C   UNL     1      -1.197  12.452  20.166  0.00  0.00    +0.000 A 
ATOM     24  C   UNL     1      -2.567  12.631  20.331  0.00  0.00    +0.000 A 
ATOM     25  C   UNL     1      -3.466  12.176  19.354  0.00  0.00    +0.000 A 
ATOM     26  C   UNL     1      -4.845  12.357  19.518  0.00  0.00    +0.000 A 
ATOM     27  C   UNL     1      -5.735  11.928  18.532  0.00  0.00    +0.000 A 
ATOM     28  C   UNL     1      -5.254  11.314  17.385  0.00  0.00    +0.000 A 
ATOM     29  C   UNL     1      -3.881  11.112  17.216  0.00  0.00    +0.000 A 
ATOM     30  C   UNL     1      -2.968  11.534  18.196  0.00  0.00    +0.000 A 
ATOM     31  C   UNL     1      -1.582  11.331  18.056  0.00  0.00    +0.000 A 
ENDBRANCH  21  22
ENDBRANCH   4  21
TORSDOF 7
ENDMDL
MODEL 7
REMARK VINA RESULT:      -8.0      6.130      9.372
REMARK  Name = 
REMARK  7 active torsions:
REMARK  status: ('A' for Active; 'I' for Inactive)
REMARK    1  A    between atoms: O_1  and  N_2
REMARK    2  A    between atoms: C_3  and  C_13
REMARK    3  A    between atoms: N_4  and  C_5
REMARK    4  A    between atoms: C_5  and  C_6
REMARK    5  A    between atoms: C_6  and  N_7
REMARK    6  A    between atoms: C_16  and  O_17
REMARK    7  A    between atoms: O_17  and  C_18
REMARK                            x       y       z     vdW  Elec       q    Type
REMARK                         _______ _______ _______ _____ _____    ______ ____
ROOT
ATOM      1  C   UNL     1       8.018   8.168  18.152  0.00  0.00    +0.000 A 
ATOM      2  C   UNL     1       8.360   7.128  19.020  0.00  0.00    +0.000 A 
ATOM      3  C   UNL     1       7.848   5.848  18.790  0.00  0.00    +0.000 A 
ATOM      4  C   UNL     1       7.022   5.657  17.693  0.00  0.00    +0.000 A 
ATOM      5  N   UNL     1       6.646   6.654  16.860  0.00  0.00    +0.000 NA
ATOM      6  C   UNL     1       7.160   7.881  17.099  0.00  0.00    +0.000 A 
ENDROOT
BRANCH   1   8
ATOM      7  N   UNL     1       8.024  10.416  17.479  0.00  0.00    +0.000 NA
ATOM      8  C   UNL     1       8.499   9.576  18.349  0.00  0.00    +0.000 C 
ATOM      9  N   UNL     1       9.365   9.777  19.410  0.00  0.00    +0.000 N 
ATOM     10  H   UNL     1      10.010   9.021  19.611  0.00  0.00    +0.000 HD
BRANCH   7  11
ATOM     11  O   UNL     1       8.511  11.712  17.586  0.00  0.00    +0.000 OA
ATOM     12  H   UNL     1       8.115  12.141  16.804  0.00  0.00    +0.000 HD
ENDBRANCH   7  11
BRANCH   9  13
ATOM     13  C   UNL     1       9.714  11.033  20.048  0.00  0.00    +0.000 C 
BRANCH  13  14
ATOM     14  C   UNL     1      11.093  11.551  19.565  0.00  0.00    +0.000 C 
BRANCH  14  15
ATOM     15  N   UNL     1      11.485  12.825  20.202  0.00  0.00    +0.000 NA
ATOM     16  C   UNL     1      10.319  13.626  20.642  0.00  0.00    +0.000 C 
ATOM     17  C   UNL     1       9.601  14.414  19.528  0.00  0.00    +0.000 C 
ATOM     18  O   UNL     1      10.513  15.212  18.765  0.00  0.00    +0.000 OA
ATOM     19  C   UNL     1      11.550  14.394  18.213  0.00  0.00    +0.000 C 
ATOM     20  C   UNL     1      12.323  13.676  19.328  0.00  0.00    +0.000 C 
ENDBRANCH  14  15
ENDBRANCH  13  14
ENDBRANCH   9  13
ENDBRANCH   1   8
BRANCH   4  21
ATOM     21  O   UNL     1       6.567   4.365  17.453  0.00  0.00    +0.000 OA
BRANCH  21  22
ATOM     22  C   UNL     1       5.232   4.118  17.702  0.00  0.00    +0.000 A 
ATOM     23  C   UNL     1       4.288   4.000  16.680  0.00  0.00    +0.000 A 
ATOM     24  C   UNL     1       2.950   3.779  16.987  0.00  0.00    +0.000 A 
ATOM     25  C   UNL     1       2.545   3.608  18.319  0.00  0.00    +0.000 A 
ATOM     26  C   UNL     1       1.198   3.382  18.629  0.00  0.00    +0.000 A 
ATOM     27  C   UNL     1       0.802   3.186  19.953  0.00  0.00    +0.000 A 
ATOM     28  C   UNL     1       1.745   3.217  20.969  0.00  0.00    +0.000 A 
ATOM     29  C   UNL     1       3.091   3.458  20.676  0.00  0.00    +0.000 A 
ATOM     30  C   UNL     1       3.511   3.660  19.352  0.00  0.00    +0.000 A 
ATOM     31  C   UNL     1       4.857   3.917  19.030  0.00  0.00    +0.000 A 
ENDBRANCH  21  22
ENDBRANCH   4  21
TORSDOF 7
ENDMDL
MODEL 8
REMARK VINA RESULT:      -8.0      0.803      1.283
REMARK  Name = 
REMARK  7 active torsions:
REMARK  status: ('A' for Active; 'I' for Inactive)
REMARK    1  A    between atoms: O_1  and  N_2
REMARK    2  A    between atoms: C_3  and  C_13
REMARK    3  A    between atoms: N_4  and  C_5
REMARK    4  A    between atoms: C_5  and  C_6
REMARK    5  A    between atoms: C_6  and  N_7
REMARK    6  A    between atoms: C_16  and  O_17
REMARK    7  A    between atoms: O_17  and  C_18
REMARK                            x       y       z     vdW  Elec       q    Type
REMARK                         _______ _______ _______ _____ _____    ______ ____
ROOT
ATOM      1  C   UNL     1       2.082   6.746  19.789  0.00  0.00    +0.000 A 
ATOM      2  C   UNL     1       1.424   7.269  20.906  0.00  0.00    +0.000 A 
ATOM      3  C   UNL     1       1.064   8.619  20.918  0.00  0.00    +0.000 A 
ATOM      4  C   UNL     1       1.367   9.391  19.806  0.00  0.00    +0.000 A 
ATOM      5  N   UNL     1       2.036   8.918  18.730  0.00  0.00    +0.000 NA
ATOM      6  C   UNL     1       2.367   7.609  18.739  0.00  0.00    +0.000 A 
ENDROOT
BRANCH   1   8
ATOM      7  N   UNL     1       1.645   4.468  20.140  0.00  0.00    +0.000 NA
ATOM      8  C   UNL     1       2.531   5.316  19.712  0.00  0.00    +0.000 C 
ATOM      9  N   UNL     1       3.803   5.108  19.207  0.00  0.00    +0.000 N 
ATOM     10  H   UNL     1       4.496   5.813  19.432  0.00  0.00    +0.000 HD
BRANCH   7  11
ATOM     11  O   UNL     1       2.059   3.142  20.156  0.00  0.00    +0.000 OA
ATOM     12  H   UNL     1       2.242   2.999  21.104  0.00  0.00    +0.000 HD
ENDBRANCH   7  11
BRANCH   9  13
ATOM     13  C   UNL     1       4.367   3.870  18.701  0.00  0.00    +0.000 C 
BRANCH  13  14
ATOM     14  C   UNL     1       4.571   3.923  17.166  0.00  0.00    +0.000 C 
BRANCH  14  15
ATOM     15  N   UNL     1       5.963   3.644  16.759  0.00  0.00    +0.000 NA
ATOM     16  C   UNL     1       6.945   4.507  17.454  0.00  0.00    +0.000 C 
ATOM     17  C   UNL     1       7.079   5.937  16.896  0.00  0.00    +0.000 C 
ATOM     18  O   UNL     1       7.304   5.940  15.481  0.00  0.00    +0.000 OA
ATOM     19  C   UNL     1       6.257   5.235  14.808  0.00  0.00    +0.000 C 
ATOM     20  C   UNL     1       6.180   3.782  15.301  0.00  0.00    +0.000 C 
ENDBRANCH  14  15
ENDBRANCH  13  14
ENDBRANCH   9  13
ENDBRANCH   1   8
BRANCH   4  21
ATOM     21  O   UNL     1       0.952  10.718  19.818  0.00  0.00    +0.000 OA
BRANCH  21  22
ATOM     22  C   UNL     1      -0.318  10.977  19.346  0.00  0.00    +0.000 A 
ATOM     23  C   UNL     1      -1.201  11.838  20.004  0.00  0.00    +0.000 A 
ATOM     24  C   UNL     1      -2.481  12.043  19.501  0.00  0.00    +0.000 A 
ATOM     25  C   UNL     1      -2.877  11.441  18.297  0.00  0.00    +0.000 A 
ATOM     26  C   UNL     1      -4.165  11.649  17.788  0.00  0.00    +0.000 A 
ATOM     27  C   UNL     1      -4.547  11.071  16.576  0.00  0.00    +0.000 A 
ATOM     28  C   UNL     1      -3.649  10.283  15.872  0.00  0.00    +0.000 A 
ATOM     29  C   UNL     1      -2.366  10.053  16.376  0.00  0.00    +0.000 A 
ATOM     30  C   UNL     1      -1.961  10.623  17.594  0.00  0.00    +0.000 A 
ATOM     31  C   UNL     1      -0.679  10.398  18.130  0.00  0.00    +0.000 A 
ENDBRANCH  21  22
ENDBRANCH   4  21
TORSDOF 7
ENDMDL
MODEL 9
REMARK VINA RESULT:      -8.0      1.136      1.495
REMARK  Name = 
REMARK  7 active torsions:
REMARK  status: ('A' for Active; 'I' for Inactive)
REMARK    1  A    between atoms: O_1  and  N_2
REMARK    2  A    between atoms: C_3  and  C_13
REMARK    3  A    between atoms: N_4  and  C_5
REMARK    4  A    between atoms: C_5  and  C_6
REMARK    5  A    between atoms: C_6  and  N_7
REMARK    6  A    between atoms: C_16  and  O_17
REMARK    7  A    between atoms: O_17  and  C_18
REMARK                            x       y       z     vdW  Elec       q    Type
REMARK                         _______ _______ _______ _____ _____    ______ ____
ROOT
ATOM      1  C   UNL     1       2.195   7.032  19.538  0.00  0.00    +0.000 A 
ATOM      2  C   UNL     1       2.275   7.848  18.407  0.00  0.00    +0.000 A 
ATOM      3  C   UNL     1       1.784   9.155  18.470  0.00  0.00    +0.000 A 
ATOM      4  C   UNL     1       1.240   9.597  19.667  0.00  0.00    +0.000 A 
ATOM      5  N   UNL     1       1.117   8.814  20.763  0.00  0.00    +0.000 NA
ATOM      6  C   UNL     1       1.605   7.558  20.680  0.00  0.00    +0.000 A 
ENDROOT
BRANCH   1   8
ATOM      7  N   UNL     1       1.717   4.741  19.365  0.00  0.00    +0.000 NA
ATOM      8  C   UNL     1       2.669   5.608  19.541  0.00  0.00    +0.000 C 
ATOM      9  N   UNL     1       4.028   5.423  19.729  0.00  0.00    +0.000 N 
ATOM     10  H   UNL     1       4.488   6.079  20.350  0.00  0.00    +0.000 HD
BRANCH   7  11
ATOM     11  O   UNL     1       2.110   3.411  19.441  0.00  0.00    +0.000 OA
ATOM     12  H   UNL     1       2.990   3.485  19.857  0.00  0.00    +0.000 HD
ENDBRANCH   7  11
BRANCH   9  13
ATOM     13  C   UNL     1       4.811   4.235  19.445  0.00  0.00    +0.000 C 
BRANCH  13  14
ATOM     14  C   UNL     1       5.229   4.172  17.954  0.00  0.00    +0.000 C 
BRANCH  14  15
ATOM     15  N   UNL     1       6.251   5.178  17.599  0.00  0.00    +0.000 NA
ATOM     16  C   UNL     1       5.673   6.370  16.936  0.00  0.00    +0.000 C 
ATOM     17  C   UNL     1       5.338   6.198  15.442  0.00  0.00    +0.000 C 
ATOM     18  O   UNL     1       6.452   5.688  14.700  0.00  0.00    +0.000 OA
ATOM     19  C   UNL     1       6.899   4.449  15.260  0.00  0.00    +0.000 C 
ATOM     20  C   UNL     1       7.317   4.639  16.725  0.00  0.00    +0.000 C 
ENDBRANCH  14  15
ENDBRANCH  13  14
ENDBRANCH   9  13
ENDBRANCH   1   8
BRANCH   4  21
ATOM     21  O   UNL     1       0.807  10.917  19.723  0.00  0.00    +0.000 OA
BRANCH  21  22
ATOM     22  C   UNL     1      -0.494  11.162  19.331  0.00  0.00    +0.000 A 
ATOM     23  C   UNL     1      -1.386  11.898  20.115  0.00  0.00    +0.000 A 
ATOM     24  C   UNL     1      -2.695  12.092  19.687  0.00  0.00    +0.000 A 
ATOM     25  C   UNL     1      -3.115  11.608  18.438  0.00  0.00    +0.000 A 
ATOM     26  C   UNL     1      -4.431  11.806  18.005  0.00  0.00    +0.000 A 
ATOM     27  C   UNL     1      -4.838  11.348  16.751  0.00  0.00    +0.000 A 
ATOM     28  C   UNL     1      -3.936  10.689  15.929  0.00  0.00    +0.000 A 
ATOM     29  C   UNL     1      -2.622  10.471  16.355  0.00  0.00    +0.000 A 
ATOM     30  C   UNL     1      -2.192  10.921  17.614  0.00  0.00    +0.000 A 
ATOM     31  C   UNL     1      -0.879  10.704  18.072  0.00  0.00    +0.000 A 
ENDBRANCH  21  22
ENDBRANCH   4  21
TORSDOF 7
ENDMDL
