MODEL 1
REMARK VINA RESULT:      -6.6      0.000      0.000
REMARK  Name = 
REMARK  5 active torsions:
REMARK  status: ('A' for Active; 'I' for Inactive)
REMARK    1  A    between atoms: C_1  and  C_2
REMARK    2  A    between atoms: C_2  and  O_3
REMARK    3  A    between atoms: O_3  and  C_4
REMARK    4  A    between atoms: C_9  and  N_10
REMARK    5  A    between atoms: C_11  and  C_13
REMARK                            x       y       z     vdW  Elec       q    Type
REMARK                         _______ _______ _______ _____ _____    ______ ____
ROOT
ATOM      1  C   UNL     1       6.743   4.320  16.114  0.00  0.00    +0.000 C 
ATOM      2  O   UNL     1       7.939   4.479  16.325  0.00  0.00    +0.000 OA
ATOM      3  N   UNL     1       5.747   4.835  16.919  0.00  0.00    +0.000 N 
ATOM      4  C   UNL     1       6.110   5.702  18.025  0.00  0.00    +0.000 C 
ATOM      5  C   UNL     1       5.430   5.233  19.302  0.00  0.00    +0.000 C 
ATOM      6  C   UNL     1       3.914   5.099  19.124  0.00  0.00    +0.000 C 
ATOM      7  C   UNL     1       3.568   4.255  17.886  0.00  0.00    +0.000 C 
ATOM      8  C   UNL     1       4.319   4.716  16.640  0.00  0.00    +0.000 C 
ENDROOT
BRANCH   6   9
ATOM      9  N   UNL     1       3.272   6.410  19.085  0.00  0.00    +0.000 N 
ATOM     10  C   UNL     1       2.222   6.732  19.919  0.00  0.00    +0.000 C 
ATOM     11  O   UNL     1       1.764   5.953  20.741  0.00  0.00    +0.000 OA
ATOM     12  H   UNL     1       3.526   7.059  18.355  0.00  0.00    +0.000 HD
BRANCH  10  13
ATOM     13  C   UNL     1       1.688   8.076  19.743  0.00  0.00    +0.000 A 
ATOM     14  C   UNL     1       1.662   8.949  18.614  0.00  0.00    +0.000 A 
ATOM     15  C   UNL     1       1.041  10.107  19.023  0.00  0.00    +0.000 A 
ATOM     16  O   UNL     1       0.682  10.015  20.327  0.00  0.00    +0.000 OA
ATOM     17  C   UNL     1       1.078   8.791  20.758  0.00  0.00    +0.000 A 
ENDBRANCH  10  13
ENDBRANCH   6   9
BRANCH   1  18
ATOM     18  O   UNL     1       6.248   3.677  15.024  0.00  0.00    +0.000 OA
BRANCH  18  20
ATOM     19  C   UNL     1       5.898   3.485  12.673  0.00  0.00    +0.000 C 
ATOM     20  C   UNL     1       6.615   4.258  13.766  0.00  0.00    +0.000 C 
ENDBRANCH  18  20
ENDBRANCH   1  18
TORSDOF 4
ENDMDL
MODEL 2
REMARK VINA RESULT:      -6.5      2.761      6.986
REMARK  Name = 
REMARK  5 active torsions:
REMARK  status: ('A' for Active; 'I' for Inactive)
REMARK    1  A    between atoms: C_1  and  C_2
REMARK    2  A    between atoms: C_2  and  O_3
REMARK    3  A    between atoms: O_3  and  C_4
REMARK    4  A    between atoms: C_9  and  N_10
REMARK    5  A    between atoms: C_11  and  C_13
REMARK                            x       y       z     vdW  Elec       q    Type
REMARK                         _______ _______ _______ _____ _____    ______ ____
ROOT
ATOM      1  C   UNL     1       3.121   3.604  20.033  0.00  0.00    +0.000 C 
ATOM      2  O   UNL     1       3.613   2.751  20.761  0.00  0.00    +0.000 OA
ATOM      3  N   UNL     1       3.774   4.158  18.950  0.00  0.00    +0.000 N 
ATOM      4  C   UNL     1       5.078   3.644  18.573  0.00  0.00    +0.000 C 
ATOM      5  C   UNL     1       6.061   4.791  18.401  0.00  0.00    +0.000 C 
ATOM      6  C   UNL     1       5.535   5.852  17.428  0.00  0.00    +0.000 C 
ATOM      7  C   UNL     1       4.113   6.299  17.802  0.00  0.00    +0.000 C 
ATOM      8  C   UNL     1       3.173   5.119  18.030  0.00  0.00    +0.000 C 
ENDROOT
BRANCH   6   9
ATOM      9  N   UNL     1       5.610   5.381  16.047  0.00  0.00    +0.000 N 
ATOM     10  C   UNL     1       6.775   4.868  15.515  0.00  0.00    +0.000 C 
ATOM     11  O   UNL     1       7.811   4.771  16.155  0.00  0.00    +0.000 OA
ATOM     12  H   UNL     1       4.825   5.535  15.433  0.00  0.00    +0.000 HD
BRANCH  10  13
ATOM     13  C   UNL     1       6.683   4.456  14.120  0.00  0.00    +0.000 A 
ATOM     14  C   UNL     1       5.792   3.566  13.448  0.00  0.00    +0.000 A 
ATOM     15  C   UNL     1       6.179   3.542  12.127  0.00  0.00    +0.000 A 
ATOM     16  O   UNL     1       7.247   4.354  11.933  0.00  0.00    +0.000 OA
ATOM     17  C   UNL     1       7.550   4.899  13.137  0.00  0.00    +0.000 A 
ENDBRANCH  10  13
ENDBRANCH   6   9
BRANCH   1  18
ATOM     18  O   UNL     1       1.847   4.058  20.158  0.00  0.00    +0.000 OA
BRANCH  18  20
ATOM     19  C   UNL     1       0.610   2.522  18.818  0.00  0.00    +0.000 C 
ATOM     20  C   UNL     1       0.847   3.034  20.228  0.00  0.00    +0.000 C 
ENDBRANCH  18  20
ENDBRANCH   1  18
TORSDOF 4
ENDMDL
MODEL 3
REMARK VINA RESULT:      -6.4      1.151      1.489
REMARK  Name = 
REMARK  5 active torsions:
REMARK  status: ('A' for Active; 'I' for Inactive)
REMARK    1  A    between atoms: C_1  and  C_2
REMARK    2  A    between atoms: C_2  and  O_3
REMARK    3  A    between atoms: O_3  and  C_4
REMARK    4  A    between atoms: C_9  and  N_10
REMARK    5  A    between atoms: C_11  and  C_13
REMARK                            x       y       z     vdW  Elec       q    Type
REMARK                         _______ _______ _______ _____ _____    ______ ____
ROOT
ATOM      1  C   UNL     1       6.695   4.635  14.809  0.00  0.00    +0.000 C 
ATOM      2  O   UNL     1       7.783   5.107  14.504  0.00  0.00    +0.000 OA
ATOM      3  N   UNL     1       5.999   4.986  15.949  0.00  0.00    +0.000 N 
ATOM      4  C   UNL     1       6.518   6.044  16.796  0.00  0.00    +0.000 C 
ATOM      5  C   UNL     1       6.556   5.583  18.245  0.00  0.00    +0.000 C 
ATOM      6  C   UNL     1       5.192   5.061  18.712  0.00  0.00    +0.000 C 
ATOM      7  C   UNL     1       4.630   4.014  17.738  0.00  0.00    +0.000 C 
ATOM      8  C   UNL     1       4.669   4.488  16.288  0.00  0.00    +0.000 C 
ENDROOT
BRANCH   6   9
ATOM      9  N   UNL     1       4.255   6.161  18.928  0.00  0.00    +0.000 N 
ATOM     10  C   UNL     1       3.122   6.010  19.699  0.00  0.00    +0.000 C 
ATOM     11  O   UNL     1       2.828   4.961  20.251  0.00  0.00    +0.000 OA
ATOM     12  H   UNL     1       4.379   7.019  18.413  0.00  0.00    +0.000 HD
BRANCH  10  13
ATOM     13  C   UNL     1       2.288   7.201  19.803  0.00  0.00    +0.000 A 
ATOM     14  C   UNL     1       1.500   7.721  20.873  0.00  0.00    +0.000 A 
ATOM     15  C   UNL     1       0.908   8.872  20.406  0.00  0.00    +0.000 A 
ATOM     16  O   UNL     1       1.271   9.103  19.121  0.00  0.00    +0.000 OA
ATOM     17  C   UNL     1       2.099   8.091  18.760  0.00  0.00    +0.000 A 
ENDBRANCH  10  13
ENDBRANCH   6   9
BRANCH   1  18
ATOM     18  O   UNL     1       6.006   3.763  14.029  0.00  0.00    +0.000 OA
BRANCH  18  20
ATOM     19  C   UNL     1       5.286   3.148  11.841  0.00  0.00    +0.000 C 
ATOM     20  C   UNL     1       6.432   3.713  12.662  0.00  0.00    +0.000 C 
ENDBRANCH  18  20
ENDBRANCH   1  18
TORSDOF 4
ENDMDL
MODEL 4
REMARK VINA RESULT:      -6.3      3.114      7.011
REMARK  Name = 
REMARK  5 active torsions:
REMARK  status: ('A' for Active; 'I' for Inactive)
REMARK    1  A    between atoms: C_1  and  C_2
REMARK    2  A    between atoms: C_2  and  O_3
REMARK    3  A    between atoms: O_3  and  C_4
REMARK    4  A    between atoms: C_9  and  N_10
REMARK    5  A    between atoms: C_11  and  C_13
REMARK                            x       y       z     vdW  Elec       q    Type
REMARK                         _______ _______ _______ _____ _____    ______ ____
ROOT
ATOM      1  C   UNL     1       3.412   2.655  20.017  0.00  0.00    +0.000 C 
ATOM      2  O   UNL     1       4.138   2.119  20.845  0.00  0.00    +0.000 OA
ATOM      3  N   UNL     1       3.884   3.356  18.924  0.00  0.00    +0.000 N 
ATOM      4  C   UNL     1       5.312   3.385  18.666  0.00  0.00    +0.000 C 
ATOM      5  C   UNL     1       5.774   4.817  18.443  0.00  0.00    +0.000 C 
ATOM      6  C   UNL     1       4.957   5.515  17.350  0.00  0.00    +0.000 C 
ATOM      7  C   UNL     1       3.447   5.378  17.606  0.00  0.00    +0.000 C 
ATOM      8  C   UNL     1       3.033   3.937  17.889  0.00  0.00    +0.000 C 
ENDROOT
BRANCH   6   9
ATOM      9  N   UNL     1       5.329   5.028  16.024  0.00  0.00    +0.000 N 
ATOM     10  C   UNL     1       6.533   5.361  15.439  0.00  0.00    +0.000 C 
ATOM     11  O   UNL     1       7.361   6.075  15.982  0.00  0.00    +0.000 OA
ATOM     12  H   UNL     1       4.646   4.528  15.476  0.00  0.00    +0.000 HD
BRANCH  10  13
ATOM     13  C   UNL     1       6.742   4.803  14.109  0.00  0.00    +0.000 A 
ATOM     14  C   UNL     1       7.665   5.136  13.072  0.00  0.00    +0.000 A 
ATOM     15  C   UNL     1       7.403   4.286  12.022  0.00  0.00    +0.000 A 
ATOM     16  O   UNL     1       6.382   3.451  12.332  0.00  0.00    +0.000 OA
ATOM     17  C   UNL     1       5.984   3.769  13.590  0.00  0.00    +0.000 A 
ENDBRANCH  10  13
ENDBRANCH   6   9
BRANCH   1  18
ATOM     18  O   UNL     1       2.057   2.569  20.031  0.00  0.00    +0.000 OA
BRANCH  18  20
ATOM     19  C   UNL     1       1.013   4.622  20.646  0.00  0.00    +0.000 C 
ATOM     20  C   UNL     1       1.423   3.241  21.127  0.00  0.00    +0.000 C 
ENDBRANCH  18  20
ENDBRANCH   1  18
TORSDOF 4
ENDMDL
MODEL 5
REMARK VINA RESULT:      -6.2      2.541      7.188
REMARK  Name = 
REMARK  5 active torsions:
REMARK  status: ('A' for Active; 'I' for Inactive)
REMARK    1  A    between atoms: C_1  and  C_2
REMARK    2  A    between atoms: C_2  and  O_3
REMARK    3  A    between atoms: O_3  and  C_4
REMARK    4  A    between atoms: C_9  and  N_10
REMARK    5  A    between atoms: C_11  and  C_13
REMARK                            x       y       z     vdW  Elec       q    Type
REMARK                         _______ _______ _______ _____ _____    ______ ____
ROOT
ATOM      1  C   UNL     1       2.321   3.284  19.579  0.00  0.00    +0.000 C 
ATOM      2  O   UNL     1       2.626   2.377  20.344  0.00  0.00    +0.000 OA
ATOM      3  N   UNL     1       3.167   3.789  18.612  0.00  0.00    +0.000 N 
ATOM      4  C   UNL     1       4.458   3.157  18.404  0.00  0.00    +0.000 C 
ATOM      5  C   UNL     1       5.558   4.207  18.401  0.00  0.00    +0.000 C 
ATOM      6  C   UNL     1       5.274   5.327  17.394  0.00  0.00    +0.000 C 
ATOM      7  C   UNL     1       3.862   5.904  17.583  0.00  0.00    +0.000 C 
ATOM      8  C   UNL     1       2.793   4.817  17.646  0.00  0.00    +0.000 C 
ENDROOT
BRANCH   6   9
ATOM      9  N   UNL     1       5.497   4.872  16.024  0.00  0.00    +0.000 N 
ATOM     10  C   UNL     1       6.652   5.175  15.335  0.00  0.00    +0.000 C 
ATOM     11  O   UNL     1       7.560   5.835  15.818  0.00  0.00    +0.000 OA
ATOM     12  H   UNL     1       4.743   4.420  15.529  0.00  0.00    +0.000 HD
BRANCH  10  13
ATOM     13  C   UNL     1       6.709   4.655  13.975  0.00  0.00    +0.000 A 
ATOM     14  C   UNL     1       5.949   3.648  13.309  0.00  0.00    +0.000 A 
ATOM     15  C   UNL     1       6.446   3.559  12.028  0.00  0.00    +0.000 A 
ATOM     16  O   UNL     1       7.461   4.439  11.853  0.00  0.00    +0.000 OA
ATOM     17  C   UNL     1       7.620   5.094  13.030  0.00  0.00    +0.000 A 
ENDBRANCH  10  13
ENDBRANCH   6   9
BRANCH   1  18
ATOM     18  O   UNL     1       1.090   3.857  19.541  0.00  0.00    +0.000 OA
BRANCH  18  20
ATOM     19  C   UNL     1       1.511   5.919  20.663  0.00  0.00    +0.000 C 
ATOM     20  C   UNL     1       0.741   4.611  20.709  0.00  0.00    +0.000 C 
ENDBRANCH  18  20
ENDBRANCH   1  18
TORSDOF 4
ENDMDL
MODEL 6
REMARK VINA RESULT:      -6.2      1.410      7.395
REMARK  Name = 
REMARK  5 active torsions:
REMARK  status: ('A' for Active; 'I' for Inactive)
REMARK    1  A    between atoms: C_1  and  C_2
REMARK    2  A    between atoms: C_2  and  O_3
REMARK    3  A    between atoms: O_3  and  C_4
REMARK    4  A    between atoms: C_9  and  N_10
REMARK    5  A    between atoms: C_11  and  C_13
REMARK                            x       y       z     vdW  Elec       q    Type
REMARK                         _______ _______ _______ _____ _____    ______ ____
ROOT
ATOM      1  C   UNL     1       2.640   6.147  19.666  0.00  0.00    +0.000 C 
ATOM      2  O   UNL     1       2.213   5.362  20.503  0.00  0.00    +0.000 OA
ATOM      3  N   UNL     1       3.572   5.811  18.704  0.00  0.00    +0.000 N 
ATOM      4  C   UNL     1       4.007   4.430  18.594  0.00  0.00    +0.000 C 
ATOM      5  C   UNL     1       5.526   4.362  18.567  0.00  0.00    +0.000 C 
ATOM      6  C   UNL     1       6.117   5.261  17.476  0.00  0.00    +0.000 C 
ATOM      7  C   UNL     1       5.558   6.690  17.564  0.00  0.00    +0.000 C 
ATOM      8  C   UNL     1       4.035   6.714  17.655  0.00  0.00    +0.000 C 
ENDROOT
BRANCH   6   9
ATOM      9  N   UNL     1       5.916   4.680  16.150  0.00  0.00    +0.000 N 
ATOM     10  C   UNL     1       6.762   4.960  15.098  0.00  0.00    +0.000 C 
ATOM     11  O   UNL     1       7.726   5.702  15.199  0.00  0.00    +0.000 OA
ATOM     12  H   UNL     1       5.078   4.149  15.970  0.00  0.00    +0.000 HD
BRANCH  10  13
ATOM     13  C   UNL     1       6.413   4.309  13.841  0.00  0.00    +0.000 A 
ATOM     14  C   UNL     1       5.220   3.657  13.407  0.00  0.00    +0.000 A 
ATOM     15  C   UNL     1       5.457   3.211  12.126  0.00  0.00    +0.000 A 
ATOM     16  O   UNL     1       6.713   3.538  11.736  0.00  0.00    +0.000 OA
ATOM     17  C   UNL     1       7.287   4.196  12.775  0.00  0.00    +0.000 A 
ENDBRANCH  10  13
ENDBRANCH   6   9
BRANCH   1  18
ATOM     18  O   UNL     1       2.200   7.425  19.536  0.00  0.00    +0.000 OA
BRANCH  18  20
ATOM     19  C   UNL     1       0.896   9.274  20.290  0.00  0.00    +0.000 C 
ATOM     20  C   UNL     1       1.517   7.945  20.684  0.00  0.00    +0.000 C 
ENDBRANCH  18  20
ENDBRANCH   1  18
TORSDOF 4
ENDMDL
MODEL 7
REMARK VINA RESULT:      -6.0      0.890      1.272
REMARK  Name = 
REMARK  5 active torsions:
REMARK  status: ('A' for Active; 'I' for Inactive)
REMARK    1  A    between atoms: C_1  and  C_2
REMARK    2  A    between atoms: C_2  and  O_3
REMARK    3  A    between atoms: O_3  and  C_4
REMARK    4  A    between atoms: C_9  and  N_10
REMARK    5  A    between atoms: C_11  and  C_13
REMARK                            x       y       z     vdW  Elec       q    Type
REMARK                         _______ _______ _______ _____ _____    ______ ____
ROOT
ATOM      1  C   UNL     1       7.054   4.754  16.947  0.00  0.00    +0.000 C 
ATOM      2  O   UNL     1       8.066   4.493  17.586  0.00  0.00    +0.000 OA
ATOM      3  N   UNL     1       5.861   5.141  17.525  0.00  0.00    +0.000 N 
ATOM      4  C   UNL     1       5.808   5.356  18.960  0.00  0.00    +0.000 C 
ATOM      5  C   UNL     1       4.627   4.606  19.557  0.00  0.00    +0.000 C 
ATOM      6  C   UNL     1       3.313   4.961  18.853  0.00  0.00    +0.000 C 
ATOM      7  C   UNL     1       3.438   4.816  17.328  0.00  0.00    +0.000 C 
ATOM      8  C   UNL     1       4.670   5.527  16.775  0.00  0.00    +0.000 C 
ENDROOT
BRANCH   6   9
ATOM      9  N   UNL     1       2.854   6.294  19.237  0.00  0.00    +0.000 N 
ATOM     10  C   UNL     1       1.917   6.483  20.230  0.00  0.00    +0.000 C 
ATOM     11  O   UNL     1       1.412   5.561  20.852  0.00  0.00    +0.000 OA
ATOM     12  H   UNL     1       3.146   7.089  18.689  0.00  0.00    +0.000 HD
BRANCH  10  13
ATOM     13  C   UNL     1       1.561   7.874  20.480  0.00  0.00    +0.000 A 
ATOM     14  C   UNL     1       1.201   8.564  21.676  0.00  0.00    +0.000 A 
ATOM     15  C   UNL     1       0.951   9.870  21.321  0.00  0.00    +0.000 A 
ATOM     16  O   UNL     1       1.129  10.039  19.988  0.00  0.00    +0.000 OA
ATOM     17  C   UNL     1       1.492   8.832  19.484  0.00  0.00    +0.000 A 
ENDBRANCH  10  13
ENDBRANCH   6   9
BRANCH   1  18
ATOM     18  O   UNL     1       6.999   4.765  15.590  0.00  0.00    +0.000 OA
BRANCH  18  20
ATOM     19  C   UNL     1       6.160   3.923  13.523  0.00  0.00    +0.000 C 
ATOM     20  C   UNL     1       6.319   3.646  15.007  0.00  0.00    +0.000 C 
ENDBRANCH  18  20
ENDBRANCH   1  18
TORSDOF 4
ENDMDL
MODEL 8
REMARK VINA RESULT:      -5.9      3.004      7.731
REMARK  Name = 
REMARK  5 active torsions:
REMARK  status: ('A' for Active; 'I' for Inactive)
REMARK    1  A    between atoms: C_1  and  C_2
REMARK    2  A    between atoms: C_2  and  O_3
REMARK    3  A    between atoms: O_3  and  C_4
REMARK    4  A    between atoms: C_9  and  N_10
REMARK    5  A    between atoms: C_11  and  C_13
REMARK                            x       y       z     vdW  Elec       q    Type
REMARK                         _______ _______ _______ _____ _____    ______ ____
ROOT
ATOM      1  C   UNL     1       5.263   5.078  19.109  0.00  0.00    +0.000 C 
ATOM      2  O   UNL     1       6.032   4.676  19.974  0.00  0.00    +0.000 OA
ATOM      3  N   UNL     1       5.513   4.977  17.754  0.00  0.00    +0.000 N 
ATOM      4  C   UNL     1       6.698   4.269  17.305  0.00  0.00    +0.000 C 
ATOM      5  C   UNL     1       7.465   5.118  16.303  0.00  0.00    +0.000 C 
ATOM      6  C   UNL     1       6.571   5.579  15.145  0.00  0.00    +0.000 C 
ATOM      7  C   UNL     1       5.281   6.235  15.661  0.00  0.00    +0.000 C 
ATOM      8  C   UNL     1       4.574   5.384  16.712  0.00  0.00    +0.000 C 
ENDROOT
BRANCH   6   9
ATOM      9  N   UNL     1       6.291   4.477  14.227  0.00  0.00    +0.000 N 
ATOM     10  C   UNL     1       6.905   4.383  12.996  0.00  0.00    +0.000 C 
ATOM     11  O   UNL     1       7.716   5.202  12.593  0.00  0.00    +0.000 OA
ATOM     12  H   UNL     1       5.551   3.830  14.450  0.00  0.00    +0.000 HD
BRANCH  10  13
ATOM     13  C   UNL     1       6.504   3.231  12.198  0.00  0.00    +0.000 A 
ATOM     14  C   UNL     1       7.265   2.224  11.532  0.00  0.00    +0.000 A 
ATOM     15  C   UNL     1       6.362   1.387  10.917  0.00  0.00    +0.000 A 
ATOM     16  O   UNL     1       5.094   1.804  11.154  0.00  0.00    +0.000 OA
ATOM     17  C   UNL     1       5.185   2.918  11.922  0.00  0.00    +0.000 A 
ENDBRANCH  10  13
ENDBRANCH   6   9
BRANCH   1  18
ATOM     18  O   UNL     1       4.040   5.607  19.372  0.00  0.00    +0.000 OA
BRANCH  18  20
ATOM     19  C   UNL     1       1.874   4.624  19.202  0.00  0.00    +0.000 C 
ATOM     20  C   UNL     1       3.134   4.721  20.043  0.00  0.00    +0.000 C 
ENDBRANCH  18  20
ENDBRANCH   1  18
TORSDOF 4
ENDMDL
MODEL 9
REMARK VINA RESULT:      -5.8      1.574      7.433
REMARK  Name = 
REMARK  5 active torsions:
REMARK  status: ('A' for Active; 'I' for Inactive)
REMARK    1  A    between atoms: C_1  and  C_2
REMARK    2  A    between atoms: C_2  and  O_3
REMARK    3  A    between atoms: O_3  and  C_4
REMARK    4  A    between atoms: C_9  and  N_10
REMARK    5  A    between atoms: C_11  and  C_13
REMARK                            x       y       z     vdW  Elec       q    Type
REMARK                         _______ _______ _______ _____ _____    ______ ____
ROOT
ATOM      1  C   UNL     1       3.059   6.006  19.410  0.00  0.00    +0.000 C 
ATOM      2  O   UNL     1       2.809   5.256  20.345  0.00  0.00    +0.000 OA
ATOM      3  N   UNL     1       3.903   5.677  18.367  0.00  0.00    +0.000 N 
ATOM      4  C   UNL     1       4.454   4.336  18.302  0.00  0.00    +0.000 C 
ATOM      5  C   UNL     1       5.960   4.399  18.095  0.00  0.00    +0.000 C 
ATOM      6  C   UNL     1       6.332   5.257  16.880  0.00  0.00    +0.000 C 
ATOM      7  C   UNL     1       5.651   6.633  16.937  0.00  0.00    +0.000 C 
ATOM      8  C   UNL     1       4.153   6.531  17.210  0.00  0.00    +0.000 C 
ENDROOT
BRANCH   6   9
ATOM      9  N   UNL     1       6.039   4.556  15.633  0.00  0.00    +0.000 N 
ATOM     10  C   UNL     1       6.794   4.747  14.495  0.00  0.00    +0.000 C 
ATOM     11  O   UNL     1       7.751   5.505  14.453  0.00  0.00    +0.000 OA
ATOM     12  H   UNL     1       5.198   4.002  15.567  0.00  0.00    +0.000 HD
BRANCH  10  13
ATOM     13  C   UNL     1       6.360   3.981  13.334  0.00  0.00    +0.000 A 
ATOM     14  C   UNL     1       7.090   3.344  12.287  0.00  0.00    +0.000 A 
ATOM     15  C   UNL     1       6.161   2.777  11.444  0.00  0.00    +0.000 A 
ATOM     16  O   UNL     1       4.906   3.018  11.894  0.00  0.00    +0.000 OA
ATOM     17  C   UNL     1       5.030   3.748  13.031  0.00  0.00    +0.000 A 
ENDBRANCH  10  13
ENDBRANCH   6   9
BRANCH   1  18
ATOM     18  O   UNL     1       2.485   7.226  19.246  0.00  0.00    +0.000 OA
BRANCH  18  20
ATOM     19  C   UNL     1       1.119   9.022  20.016  0.00  0.00    +0.000 C 
ATOM     20  C   UNL     1       1.850   7.754  20.418  0.00  0.00    +0.000 C 
ENDBRANCH  18  20
ENDBRANCH   1  18
TORSDOF 4
ENDMDL
