MODEL 1
REMARK VINA RESULT:      -8.4      0.000      0.000
REMARK  Name = 
REMARK  10 active torsions:
REMARK  status: ('A' for Active; 'I' for Inactive)
REMARK    1  A    between atoms: C_1  and  C_2
REMARK    2  A    between atoms: C_2  and  C_3
REMARK    3  A    between atoms: C_2  and  O_4
REMARK    4  A    between atoms: C_2  and  C_5
REMARK    5  A    between atoms: C_5  and  C_7
REMARK    6  A    between atoms: C_7  and  N_8
REMARK    7  A    between atoms: C_9  and  C_11
REMARK    8  A    between atoms: C_14  and  N_15
REMARK    9  A    between atoms: C_26  and  N_27
REMARK   10  A    between atoms: N_27  and  C_28
REMARK                            x       y       z     vdW  Elec       q    Type
REMARK                         _______ _______ _______ _____ _____    ______ ____
ROOT
ATOM      1  C   UNL     1       2.423   7.127  19.573  0.00  0.00    +0.000 A 
ATOM      2  C   UNL     1       2.901   7.493  18.311  0.00  0.00    +0.000 A 
ATOM      3  N   UNL     1       3.794   6.775  17.533  0.00  0.00    +0.000 NA
ATOM      4  C   UNL     1       4.345   5.668  18.083  0.00  0.00    +0.000 A 
ATOM      5  C   UNL     1       3.931   5.218  19.325  0.00  0.00    +0.000 A 
ATOM      6  C   UNL     1       2.866   5.852  20.019  0.00  0.00    +0.000 A 
ENDROOT
BRANCH   4   7
ATOM      7  N   UNL     1       5.443   4.978  17.475  0.00  0.00    +0.000 N 
ATOM      8  N   UNL     1       6.559   4.675  18.226  0.00  0.00    +0.000 NA
ATOM      9  C   UNL     1       7.540   4.661  17.318  0.00  0.00    +0.000 A 
ATOM     10  C   UNL     1       7.054   4.703  16.000  0.00  0.00    +0.000 A 
ATOM     11  C   UNL     1       7.595   4.706  14.706  0.00  0.00    +0.000 A 
ATOM     12  C   UNL     1       6.717   4.401  13.669  0.00  0.00    +0.000 A 
ATOM     13 CL   UNL     1       7.304   4.292  12.057  0.00  0.00    +0.000 Cl
ATOM     14  C   UNL     1       5.379   4.159  13.959  0.00  0.00    +0.000 A 
ATOM     15  N   UNL     1       4.781   4.353  15.166  0.00  0.00    +0.000 NA
ATOM     16  C   UNL     1       5.669   4.660  16.141  0.00  0.00    +0.000 A 
ENDBRANCH   4   7
BRANCH   1  18
ATOM     17  N   UNL     1       1.109   9.280  19.759  0.00  0.00    +0.000 N 
ATOM     18  C   UNL     1       1.402   8.011  20.291  0.00  0.00    +0.000 C 
ATOM     19  O   UNL     1       0.859   7.593  21.309  0.00  0.00    +0.000 OA
ATOM     20  H   UNL     1       1.696   9.647  19.020  0.00  0.00    +0.000 HD
BRANCH  17  21
ATOM     21  C   UNL     1      -0.021  10.204  20.169  0.00  0.00    +0.000 C 
BRANCH  21  22
ATOM     22  C   UNL     1      -0.237  11.465  19.275  0.00  0.00    +0.000 C 
ATOM     23  F   UNL     1       0.867  11.550  18.455  0.00  0.00    +0.000 F 
BRANCH  22  25
ATOM     24  C   UNL     1      -2.751  11.970  19.159  0.00  0.00    +0.000 C 
ATOM     25  C   UNL     1      -1.511  11.545  18.338  0.00  0.00    +0.000 C 
ATOM     26  C   UNL     1      -1.863  10.227  17.634  0.00  0.00    +0.000 C 
BRANCH  25  27
ATOM     27  O   UNL     1      -1.333  12.517  17.302  0.00  0.00    +0.000 OA
ATOM     28  H   UNL     1      -1.837  13.313  17.528  0.00  0.00    +0.000 HD
ENDBRANCH  25  27
ENDBRANCH  22  25
ENDBRANCH  21  22
ENDBRANCH  17  21
ENDBRANCH   1  18
BRANCH   6  29
ATOM     29  N   UNL     1       2.353   5.158  21.161  0.00  0.00    +0.000 N 
ATOM     30  H   UNL     1       2.112   5.832  21.901  0.00  0.00    +0.000 HD
BRANCH  29  31
ATOM     31  C   UNL     1       1.367   4.081  21.002  0.00  0.00    +0.000 C 
ATOM     32  C   UNL     1       1.156   3.554  19.587  0.00  0.00    +0.000 C 
ATOM     33  O   UNL     1       1.594   2.224  19.958  0.00  0.00    +0.000 OA
ATOM     34  C   UNL     1       1.905   2.674  21.300  0.00  0.00    +0.000 C 
ENDBRANCH  29  31
ENDBRANCH   6  29
TORSDOF 8
ENDMDL
MODEL 2
REMARK VINA RESULT:      -8.1      0.883      1.110
REMARK  Name = 
REMARK  10 active torsions:
REMARK  status: ('A' for Active; 'I' for Inactive)
REMARK    1  A    between atoms: C_1  and  C_2
REMARK    2  A    between atoms: C_2  and  C_3
REMARK    3  A    between atoms: C_2  and  O_4
REMARK    4  A    between atoms: C_2  and  C_5
REMARK    5  A    between atoms: C_5  and  C_7
REMARK    6  A    between atoms: C_7  and  N_8
REMARK    7  A    between atoms: C_9  and  C_11
REMARK    8  A    between atoms: C_14  and  N_15
REMARK    9  A    between atoms: C_26  and  N_27
REMARK   10  A    between atoms: N_27  and  C_28
REMARK                            x       y       z     vdW  Elec       q    Type
REMARK                         _______ _______ _______ _____ _____    ______ ____
ROOT
ATOM      1  C   UNL     1       2.459   7.114  19.542  0.00  0.00    +0.000 A 
ATOM      2  C   UNL     1       2.925   7.469  18.274  0.00  0.00    +0.000 A 
ATOM      3  N   UNL     1       3.811   6.743  17.493  0.00  0.00    +0.000 NA
ATOM      4  C   UNL     1       4.366   5.641  18.049  0.00  0.00    +0.000 A 
ATOM      5  C   UNL     1       3.962   5.202  19.297  0.00  0.00    +0.000 A 
ATOM      6  C   UNL     1       2.904   5.842  19.995  0.00  0.00    +0.000 A 
ENDROOT
BRANCH   4   7
ATOM      7  N   UNL     1       5.458   4.944  17.437  0.00  0.00    +0.000 N 
ATOM      8  N   UNL     1       6.577   4.640  18.183  0.00  0.00    +0.000 NA
ATOM      9  C   UNL     1       7.553   4.619  17.269  0.00  0.00    +0.000 A 
ATOM     10  C   UNL     1       7.060   4.659  15.954  0.00  0.00    +0.000 A 
ATOM     11  C   UNL     1       7.594   4.656  14.657  0.00  0.00    +0.000 A 
ATOM     12  C   UNL     1       6.710   4.351  13.625  0.00  0.00    +0.000 A 
ATOM     13 CL   UNL     1       7.287   4.234  12.011  0.00  0.00    +0.000 Cl
ATOM     14  C   UNL     1       5.372   4.115  13.923  0.00  0.00    +0.000 A 
ATOM     15  N   UNL     1       4.781   4.315  15.133  0.00  0.00    +0.000 NA
ATOM     16  C   UNL     1       5.675   4.622  16.103  0.00  0.00    +0.000 A 
ENDBRANCH   4   7
BRANCH   1  18
ATOM     17  N   UNL     1       1.067   9.223  19.666  0.00  0.00    +0.000 N 
ATOM     18  C   UNL     1       1.444   8.005  20.261  0.00  0.00    +0.000 C 
ATOM     19  O   UNL     1       0.980   7.636  21.336  0.00  0.00    +0.000 OA
ATOM     20  H   UNL     1       1.594   9.561  18.871  0.00  0.00    +0.000 HD
BRANCH  17  21
ATOM     21  C   UNL     1      -0.076  10.129  20.083  0.00  0.00    +0.000 C 
BRANCH  21  22
ATOM     22  C   UNL     1      -0.882  10.795  18.925  0.00  0.00    +0.000 C 
ATOM     23  F   UNL     1      -1.945   9.959  18.664  0.00  0.00    +0.000 F 
BRANCH  22  25
ATOM     24  C   UNL     1      -0.577  13.298  18.444  0.00  0.00    +0.000 C 
ATOM     25  C   UNL     1      -1.480  12.247  19.131  0.00  0.00    +0.000 C 
ATOM     26  C   UNL     1      -1.631  12.668  20.599  0.00  0.00    +0.000 C 
BRANCH  25  27
ATOM     27  O   UNL     1      -2.783  12.358  18.546  0.00  0.00    +0.000 OA
ATOM     28  H   UNL     1      -3.004  11.522  18.110  0.00  0.00    +0.000 HD
ENDBRANCH  25  27
ENDBRANCH  22  25
ENDBRANCH  21  22
ENDBRANCH  17  21
ENDBRANCH   1  18
BRANCH   6  29
ATOM     29  N   UNL     1       2.400   5.158  21.147  0.00  0.00    +0.000 N 
ATOM     30  H   UNL     1       2.180   5.838  21.889  0.00  0.00    +0.000 HD
BRANCH  29  31
ATOM     31  C   UNL     1       1.397   4.094  21.007  0.00  0.00    +0.000 C 
ATOM     32  C   UNL     1       1.134   3.588  19.593  0.00  0.00    +0.000 C 
ATOM     33  O   UNL     1       1.569   2.249  19.933  0.00  0.00    +0.000 OA
ATOM     34  C   UNL     1       1.929   2.678  21.269  0.00  0.00    +0.000 C 
ENDBRANCH  29  31
ENDBRANCH   6  29
TORSDOF 8
ENDMDL
MODEL 3
REMARK VINA RESULT:      -8.0      1.089      1.333
REMARK  Name = 
REMARK  10 active torsions:
REMARK  status: ('A' for Active; 'I' for Inactive)
REMARK    1  A    between atoms: C_1  and  C_2
REMARK    2  A    between atoms: C_2  and  C_3
REMARK    3  A    between atoms: C_2  and  O_4
REMARK    4  A    between atoms: C_2  and  C_5
REMARK    5  A    between atoms: C_5  and  C_7
REMARK    6  A    between atoms: C_7  and  N_8
REMARK    7  A    between atoms: C_9  and  C_11
REMARK    8  A    between atoms: C_14  and  N_15
REMARK    9  A    between atoms: C_26  and  N_27
REMARK   10  A    between atoms: N_27  and  C_28
REMARK                            x       y       z     vdW  Elec       q    Type
REMARK                         _______ _______ _______ _____ _____    ______ ____
ROOT
ATOM      1  C   UNL     1       2.465   7.214  19.494  0.00  0.00    +0.000 A 
ATOM      2  C   UNL     1       2.963   7.586  18.242  0.00  0.00    +0.000 A 
ATOM      3  N   UNL     1       3.841   6.855  17.458  0.00  0.00    +0.000 NA
ATOM      4  C   UNL     1       4.354   5.723  17.995  0.00  0.00    +0.000 A 
ATOM      5  C   UNL     1       3.917   5.265  19.225  0.00  0.00    +0.000 A 
ATOM      6  C   UNL     1       2.866   5.919  19.921  0.00  0.00    +0.000 A 
ENDROOT
BRANCH   4   7
ATOM      7  N   UNL     1       5.436   5.011  17.383  0.00  0.00    +0.000 N 
ATOM      8  N   UNL     1       6.567   4.723  18.119  0.00  0.00    +0.000 NA
ATOM      9  C   UNL     1       7.529   4.678  17.192  0.00  0.00    +0.000 A 
ATOM     10  C   UNL     1       7.015   4.687  15.884  0.00  0.00    +0.000 A 
ATOM     11  C   UNL     1       7.529   4.652  14.579  0.00  0.00    +0.000 A 
ATOM     12  C   UNL     1       6.629   4.323  13.569  0.00  0.00    +0.000 A 
ATOM     13 CL   UNL     1       7.182   4.166  11.949  0.00  0.00    +0.000 Cl
ATOM     14  C   UNL     1       5.296   4.096  13.893  0.00  0.00    +0.000 A 
ATOM     15  N   UNL     1       4.724   4.326  15.106  0.00  0.00    +0.000 NA
ATOM     16  C   UNL     1       5.633   4.655  16.054  0.00  0.00    +0.000 A 
ENDBRANCH   4   7
BRANCH   1  18
ATOM     17  N   UNL     1       0.994   9.270  19.566  0.00  0.00    +0.000 N 
ATOM     18  C   UNL     1       1.465   8.116  20.218  0.00  0.00    +0.000 C 
ATOM     19  O   UNL     1       1.093   7.811  21.348  0.00  0.00    +0.000 OA
ATOM     20  H   UNL     1       1.449   9.568  18.713  0.00  0.00    +0.000 HD
BRANCH  17  21
ATOM     21  C   UNL     1      -0.156  10.159  19.998  0.00  0.00    +0.000 C 
BRANCH  21  22
ATOM     22  C   UNL     1       0.194  11.657  20.260  0.00  0.00    +0.000 C 
ATOM     23  F   UNL     1       1.257  11.657  21.137  0.00  0.00    +0.000 F 
BRANCH  22  25
ATOM     24  C   UNL     1       1.385  13.818  19.551  0.00  0.00    +0.000 C 
ATOM     25  C   UNL     1       0.604  12.583  19.043  0.00  0.00    +0.000 C 
ATOM     26  C   UNL     1      -0.580  13.103  18.216  0.00  0.00    +0.000 C 
BRANCH  25  27
ATOM     27  O   UNL     1       1.457  11.888  18.127  0.00  0.00    +0.000 OA
ATOM     28  H   UNL     1       1.041  11.883  17.252  0.00  0.00    +0.000 HD
ENDBRANCH  25  27
ENDBRANCH  22  25
ENDBRANCH  21  22
ENDBRANCH  17  21
ENDBRANCH   1  18
BRANCH   6  29
ATOM     29  N   UNL     1       2.324   5.221  21.047  0.00  0.00    +0.000 N 
ATOM     30  H   UNL     1       2.132   5.885  21.811  0.00  0.00    +0.000 HD
BRANCH  29  31
ATOM     31  C   UNL     1       1.272   4.212  20.867  0.00  0.00    +0.000 C 
ATOM     32  C   UNL     1       1.116   3.634  19.465  0.00  0.00    +0.000 C 
ATOM     33  O   UNL     1       1.428   2.296  19.922  0.00  0.00    +0.000 OA
ATOM     34  C   UNL     1       1.684   2.785  21.261  0.00  0.00    +0.000 C 
ENDBRANCH  29  31
ENDBRANCH   6  29
TORSDOF 8
ENDMDL
MODEL 4
REMARK VINA RESULT:      -8.0      4.179      8.518
REMARK  Name = 
REMARK  10 active torsions:
REMARK  status: ('A' for Active; 'I' for Inactive)
REMARK    1  A    between atoms: C_1  and  C_2
REMARK    2  A    between atoms: C_2  and  C_3
REMARK    3  A    between atoms: C_2  and  O_4
REMARK    4  A    between atoms: C_2  and  C_5
REMARK    5  A    between atoms: C_5  and  C_7
REMARK    6  A    between atoms: C_7  and  N_8
REMARK    7  A    between atoms: C_9  and  C_11
REMARK    8  A    between atoms: C_14  and  N_15
REMARK    9  A    between atoms: C_26  and  N_27
REMARK   10  A    between atoms: N_27  and  C_28
REMARK                            x       y       z     vdW  Elec       q    Type
REMARK                         _______ _______ _______ _____ _____    ______ ____
ROOT
ATOM      1  C   UNL     1       3.445   6.526  18.549  0.00  0.00    +0.000 A 
ATOM      2  C   UNL     1       3.354   7.696  17.789  0.00  0.00    +0.000 A 
ATOM      3  N   UNL     1       2.486   8.753  18.012  0.00  0.00    +0.000 NA
ATOM      4  C   UNL     1       1.562   8.600  18.989  0.00  0.00    +0.000 A 
ATOM      5  C   UNL     1       1.576   7.480  19.803  0.00  0.00    +0.000 A 
ATOM      6  C   UNL     1       2.600   6.504  19.692  0.00  0.00    +0.000 A 
ENDROOT
BRANCH   4   7
ATOM      7  N   UNL     1       0.473   9.515  19.161  0.00  0.00    +0.000 N 
ATOM      8  N   UNL     1      -0.195   9.996  18.054  0.00  0.00    +0.000 NA
ATOM      9  C   UNL     1      -0.632  11.192  18.461  0.00  0.00    +0.000 A 
ATOM     10  C   UNL     1      -0.474  11.381  19.844  0.00  0.00    +0.000 A 
ATOM     11  C   UNL     1      -0.745  12.390  20.780  0.00  0.00    +0.000 A 
ATOM     12  C   UNL     1      -0.743  12.008  22.119  0.00  0.00    +0.000 A 
ATOM     13 CL   UNL     1      -1.152  13.151  23.335  0.00  0.00    +0.000 Cl
ATOM     14  C   UNL     1      -0.438  10.692  22.451  0.00  0.00    +0.000 A 
ATOM     15  N   UNL     1       0.032   9.746  21.592  0.00  0.00    +0.000 NA
ATOM     16  C   UNL     1       0.025  10.165  20.305  0.00  0.00    +0.000 A 
ENDBRANCH   4   7
BRANCH   1  18
ATOM     17  N   UNL     1       5.571   5.824  17.373  0.00  0.00    +0.000 N 
ATOM     18  C   UNL     1       4.489   5.465  18.198  0.00  0.00    +0.000 C 
ATOM     19  O   UNL     1       4.362   4.329  18.646  0.00  0.00    +0.000 OA
ATOM     20  H   UNL     1       5.547   6.716  16.896  0.00  0.00    +0.000 HD
BRANCH  17  21
ATOM     21  C   UNL     1       6.821   5.009  17.099  0.00  0.00    +0.000 C 
BRANCH  21  22
ATOM     22  C   UNL     1       6.802   4.138  15.805  0.00  0.00    +0.000 C 
ATOM     23  F   UNL     1       5.839   3.173  16.002  0.00  0.00    +0.000 F 
BRANCH  22  25
ATOM     24  C   UNL     1       5.690   3.850  13.509  0.00  0.00    +0.000 C 
ATOM     25  C   UNL     1       6.485   4.822  14.412  0.00  0.00    +0.000 C 
ATOM     26  C   UNL     1       7.727   5.259  13.624  0.00  0.00    +0.000 C 
BRANCH  25  27
ATOM     27  O   UNL     1       5.685   5.997  14.582  0.00  0.00    +0.000 OA
ATOM     28  H   UNL     1       5.835   6.354  15.470  0.00  0.00    +0.000 HD
ENDBRANCH  25  27
ENDBRANCH  22  25
ENDBRANCH  21  22
ENDBRANCH  17  21
ENDBRANCH   1  18
BRANCH   6  29
ATOM     29  N   UNL     1       2.664   5.531  20.741  0.00  0.00    +0.000 N 
ATOM     30  H   UNL     1       2.979   5.978  21.614  0.00  0.00    +0.000 HD
BRANCH  29  31
ATOM     31  C   UNL     1       1.573   4.567  20.934  0.00  0.00    +0.000 C 
ATOM     32  C   UNL     1       1.169   3.742  19.716  0.00  0.00    +0.000 C 
ATOM     33  O   UNL     1       1.521   2.500  20.373  0.00  0.00    +0.000 OA
ATOM     34  C   UNL     1       2.010   3.221  21.531  0.00  0.00    +0.000 C 
ENDBRANCH  29  31
ENDBRANCH   6  29
TORSDOF 8
ENDMDL
MODEL 5
REMARK VINA RESULT:      -8.0      1.424      1.775
REMARK  Name = 
REMARK  10 active torsions:
REMARK  status: ('A' for Active; 'I' for Inactive)
REMARK    1  A    between atoms: C_1  and  C_2
REMARK    2  A    between atoms: C_2  and  C_3
REMARK    3  A    between atoms: C_2  and  O_4
REMARK    4  A    between atoms: C_2  and  C_5
REMARK    5  A    between atoms: C_5  and  C_7
REMARK    6  A    between atoms: C_7  and  N_8
REMARK    7  A    between atoms: C_9  and  C_11
REMARK    8  A    between atoms: C_14  and  N_15
REMARK    9  A    between atoms: C_26  and  N_27
REMARK   10  A    between atoms: N_27  and  C_28
REMARK                            x       y       z     vdW  Elec       q    Type
REMARK                         _______ _______ _______ _____ _____    ______ ____
ROOT
ATOM      1  C   UNL     1       2.445   7.249  19.561  0.00  0.00    +0.000 A 
ATOM      2  C   UNL     1       2.990   7.646  18.337  0.00  0.00    +0.000 A 
ATOM      3  N   UNL     1       3.875   6.917  17.559  0.00  0.00    +0.000 NA
ATOM      4  C   UNL     1       4.345   5.758  18.076  0.00  0.00    +0.000 A 
ATOM      5  C   UNL     1       3.859   5.275  19.278  0.00  0.00    +0.000 A 
ATOM      6  C   UNL     1       2.802   5.932  19.961  0.00  0.00    +0.000 A 
ENDROOT
BRANCH   4   7
ATOM      7  N   UNL     1       5.429   5.038  17.477  0.00  0.00    +0.000 N 
ATOM      8  N   UNL     1       6.550   4.746  18.225  0.00  0.00    +0.000 NA
ATOM      9  C   UNL     1       7.521   4.694  17.307  0.00  0.00    +0.000 A 
ATOM     10  C   UNL     1       7.021   4.703  15.994  0.00  0.00    +0.000 A 
ATOM     11  C   UNL     1       7.547   4.662  14.694  0.00  0.00    +0.000 A 
ATOM     12  C   UNL     1       6.656   4.336  13.676  0.00  0.00    +0.000 A 
ATOM     13 CL   UNL     1       7.224   4.173  12.062  0.00  0.00    +0.000 Cl
ATOM     14  C   UNL     1       5.318   4.117  13.987  0.00  0.00    +0.000 A 
ATOM     15  N   UNL     1       4.736   4.353  15.194  0.00  0.00    +0.000 NA
ATOM     16  C   UNL     1       5.637   4.679  16.150  0.00  0.00    +0.000 A 
ENDBRANCH   4   7
BRANCH   1  18
ATOM     17  N   UNL     1       1.003   9.326  19.641  0.00  0.00    +0.000 N 
ATOM     18  C   UNL     1       1.443   8.153  20.281  0.00  0.00    +0.000 C 
ATOM     19  O   UNL     1       1.043   7.833  21.397  0.00  0.00    +0.000 OA
ATOM     20  H   UNL     1       1.480   9.633  18.803  0.00  0.00    +0.000 HD
BRANCH  17  21
ATOM     21  C   UNL     1      -0.142  10.225  20.066  0.00  0.00    +0.000 C 
BRANCH  21  22
ATOM     22  C   UNL     1       0.231  11.420  20.997  0.00  0.00    +0.000 C 
ATOM     23  F   UNL     1       0.372  12.519  20.177  0.00  0.00    +0.000 F 
BRANCH  22  25
ATOM     24  C   UNL     1      -1.009  10.642  23.106  0.00  0.00    +0.000 C 
ATOM     25  C   UNL     1      -0.760  11.840  22.158  0.00  0.00    +0.000 C 
ATOM     26  C   UNL     1      -2.132  12.328  21.674  0.00  0.00    +0.000 C 
BRANCH  25  27
ATOM     27  O   UNL     1      -0.214  12.901  22.949  0.00  0.00    +0.000 OA
ATOM     28  H   UNL     1      -0.625  12.884  23.826  0.00  0.00    +0.000 HD
ENDBRANCH  25  27
ENDBRANCH  22  25
ENDBRANCH  21  22
ENDBRANCH  17  21
ENDBRANCH   1  18
BRANCH   6  29
ATOM     29  N   UNL     1       2.208   5.215  21.048  0.00  0.00    +0.000 N 
ATOM     30  H   UNL     1       1.960   5.869  21.805  0.00  0.00    +0.000 HD
BRANCH  29  31
ATOM     31  C   UNL     1       1.187   4.189  20.799  0.00  0.00    +0.000 C 
ATOM     32  C   UNL     1       1.187   3.550  19.415  0.00  0.00    +0.000 C 
ATOM     33  O   UNL     1       1.454   2.235  19.962  0.00  0.00    +0.000 OA
ATOM     34  C   UNL     1       1.560   2.785  21.298  0.00  0.00    +0.000 C 
ENDBRANCH  29  31
ENDBRANCH   6  29
TORSDOF 8
ENDMDL
MODEL 6
REMARK VINA RESULT:      -7.9      5.152     10.554
REMARK  Name = 
REMARK  10 active torsions:
REMARK  status: ('A' for Active; 'I' for Inactive)
REMARK    1  A    between atoms: C_1  and  C_2
REMARK    2  A    between atoms: C_2  and  C_3
REMARK    3  A    between atoms: C_2  and  O_4
REMARK    4  A    between atoms: C_2  and  C_5
REMARK    5  A    between atoms: C_5  and  C_7
REMARK    6  A    between atoms: C_7  and  N_8
REMARK    7  A    between atoms: C_9  and  C_11
REMARK    8  A    between atoms: C_14  and  N_15
REMARK    9  A    between atoms: C_26  and  N_27
REMARK   10  A    between atoms: N_27  and  C_28
REMARK                            x       y       z     vdW  Elec       q    Type
REMARK                         _______ _______ _______ _____ _____    ______ ____
ROOT
ATOM      1  C   UNL     1       0.820   9.988  19.356  0.00  0.00    +0.000 A 
ATOM      2  C   UNL     1       1.039  10.107  20.731  0.00  0.00    +0.000 A 
ATOM      3  N   UNL     1       0.297  10.872  21.617  0.00  0.00    +0.000 NA
ATOM      4  C   UNL     1      -0.665  11.666  21.093  0.00  0.00    +0.000 A 
ATOM      5  C   UNL     1      -0.965  11.614  19.743  0.00  0.00    +0.000 A 
ATOM      6  C   UNL     1      -0.334  10.674  18.886  0.00  0.00    +0.000 A 
ENDROOT
BRANCH   4   7
ATOM      7  N   UNL     1      -1.337  12.665  21.870  0.00  0.00    +0.000 N 
ATOM      8  N   UNL     1      -0.599  13.558  22.619  0.00  0.00    +0.000 NA
ATOM      9  C   UNL     1      -1.424  13.862  23.626  0.00  0.00    +0.000 A 
ATOM     10  C   UNL     1      -2.729  13.386  23.415  0.00  0.00    +0.000 A 
ATOM     11  C   UNL     1      -3.954  13.412  24.098  0.00  0.00    +0.000 A 
ATOM     12  C   UNL     1      -5.087  13.112  23.346  0.00  0.00    +0.000 A 
ATOM     13 CL   UNL     1      -6.643  13.204  24.070  0.00  0.00    +0.000 Cl
ATOM     14  C   UNL     1      -4.944  12.770  22.005  0.00  0.00    +0.000 A 
ATOM     15  N   UNL     1      -3.765  12.532  21.370  0.00  0.00    +0.000 NA
ATOM     16  C   UNL     1      -2.691  12.824  22.141  0.00  0.00    +0.000 A 
ENDBRANCH   4   7
BRANCH   1  18
ATOM     17  N   UNL     1       2.153   7.857  19.080  0.00  0.00    +0.000 N 
ATOM     18  C   UNL     1       1.705   9.065  18.517  0.00  0.00    +0.000 C 
ATOM     19  O   UNL     1       2.000   9.398  17.372  0.00  0.00    +0.000 OA
ATOM     20  H   UNL     1       2.025   7.703  20.072  0.00  0.00    +0.000 HD
BRANCH  17  21
ATOM     21  C   UNL     1       2.831   6.708  18.358  0.00  0.00    +0.000 C 
BRANCH  21  22
ATOM     22  C   UNL     1       2.158   5.308  18.509  0.00  0.00    +0.000 C 
ATOM     23  F   UNL     1       2.746   4.493  17.568  0.00  0.00    +0.000 F 
BRANCH  22  25
ATOM     24  C   UNL     1       3.398   3.510  19.858  0.00  0.00    +0.000 C 
ATOM     25  C   UNL     1       2.252   4.548  19.896  0.00  0.00    +0.000 C 
ATOM     26  C   UNL     1       0.973   3.798  20.294  0.00  0.00    +0.000 C 
BRANCH  25  27
ATOM     27  O   UNL     1       2.534   5.455  20.967  0.00  0.00    +0.000 OA
ATOM     28  H   UNL     1       3.490   5.609  21.005  0.00  0.00    +0.000 HD
ENDBRANCH  25  27
ENDBRANCH  22  25
ENDBRANCH  21  22
ENDBRANCH  17  21
ENDBRANCH   1  18
BRANCH   6  29
ATOM     29  N   UNL     1      -0.897  10.532  17.578  0.00  0.00    +0.000 N 
ATOM     30  H   UNL     1      -0.271   9.966  16.987  0.00  0.00    +0.000 HD
BRANCH  29  31
ATOM     31  C   UNL     1      -2.320  10.209  17.407  0.00  0.00    +0.000 C 
ATOM     32  C   UNL     1      -3.272  11.390  17.252  0.00  0.00    +0.000 C 
ATOM     33  O   UNL     1      -3.677  10.961  15.930  0.00  0.00    +0.000 OA
ATOM     34  C   UNL     1      -2.727   9.867  15.966  0.00  0.00    +0.000 C 
ENDBRANCH  29  31
ENDBRANCH   6  29
TORSDOF 8
ENDMDL
MODEL 7
REMARK VINA RESULT:      -7.8      4.267      8.578
REMARK  Name = 
REMARK  10 active torsions:
REMARK  status: ('A' for Active; 'I' for Inactive)
REMARK    1  A    between atoms: C_1  and  C_2
REMARK    2  A    between atoms: C_2  and  C_3
REMARK    3  A    between atoms: C_2  and  O_4
REMARK    4  A    between atoms: C_2  and  C_5
REMARK    5  A    between atoms: C_5  and  C_7
REMARK    6  A    between atoms: C_7  and  N_8
REMARK    7  A    between atoms: C_9  and  C_11
REMARK    8  A    between atoms: C_14  and  N_15
REMARK    9  A    between atoms: C_26  and  N_27
REMARK   10  A    between atoms: N_27  and  C_28
REMARK                            x       y       z     vdW  Elec       q    Type
REMARK                         _______ _______ _______ _____ _____    ______ ____
ROOT
ATOM      1  C   UNL     1       2.562   6.843  18.724  0.00  0.00    +0.000 A 
ATOM      2  C   UNL     1       2.284   8.166  18.368  0.00  0.00    +0.000 A 
ATOM      3  N   UNL     1       1.811   9.159  19.211  0.00  0.00    +0.000 NA
ATOM      4  C   UNL     1       1.484   8.797  20.473  0.00  0.00    +0.000 A 
ATOM      5  C   UNL     1       1.731   7.512  20.923  0.00  0.00    +0.000 A 
ATOM      6  C   UNL     1       2.405   6.564  20.109  0.00  0.00    +0.000 A 
ENDROOT
BRANCH   4   7
ATOM      7  N   UNL     1       0.776   9.672  21.359  0.00  0.00    +0.000 N 
ATOM      8  N   UNL     1       0.346   9.202  22.583  0.00  0.00    +0.000 NA
ATOM      9  C   UNL     1      -0.734   9.950  22.832  0.00  0.00    +0.000 A 
ATOM     10  C   UNL     1      -0.861  11.026  21.938  0.00  0.00    +0.000 A 
ATOM     11  C   UNL     1      -1.751  12.090  21.732  0.00  0.00    +0.000 A 
ATOM     12  C   UNL     1      -1.293  13.133  20.931  0.00  0.00    +0.000 A 
ATOM     13 CL   UNL     1      -2.276  14.523  20.693  0.00  0.00    +0.000 Cl
ATOM     14  C   UNL     1      -0.029  13.047  20.358  0.00  0.00    +0.000 A 
ATOM     15  N   UNL     1       0.771  11.946  20.364  0.00  0.00    +0.000 NA
ATOM     16  C   UNL     1       0.281  10.953  21.143  0.00  0.00    +0.000 A 
ENDBRANCH   4   7
BRANCH   1  18
ATOM     17  N   UNL     1       4.293   6.222  16.988  0.00  0.00    +0.000 N 
ATOM     18  C   UNL     1       3.122   5.872  17.682  0.00  0.00    +0.000 C 
ATOM     19  O   UNL     1       2.539   4.811  17.481  0.00  0.00    +0.000 OA
ATOM     20  H   UNL     1       4.643   7.169  17.065  0.00  0.00    +0.000 HD
BRANCH  17  21
ATOM     21  C   UNL     1       5.134   5.323  16.102  0.00  0.00    +0.000 C 
BRANCH  21  22
ATOM     22  C   UNL     1       6.277   4.533  16.811  0.00  0.00    +0.000 C 
ATOM     23  F   UNL     1       7.212   4.251  15.839  0.00  0.00    +0.000 F 
BRANCH  22  25
ATOM     24  C   UNL     1       6.167   5.226  19.280  0.00  0.00    +0.000 C 
ATOM     25  C   UNL     1       7.056   5.207  18.014  0.00  0.00    +0.000 C 
ATOM     26  C   UNL     1       7.502   6.651  17.751  0.00  0.00    +0.000 C 
BRANCH  25  27
ATOM     27  O   UNL     1       8.242   4.474  18.339  0.00  0.00    +0.000 OA
ATOM     28  H   UNL     1       8.434   4.588  19.282  0.00  0.00    +0.000 HD
ENDBRANCH  25  27
ENDBRANCH  22  25
ENDBRANCH  21  22
ENDBRANCH  17  21
ENDBRANCH   1  18
BRANCH   6  29
ATOM     29  N   UNL     1       2.833   5.363  20.759  0.00  0.00    +0.000 N 
ATOM     30  H   UNL     1       3.577   5.579  21.438  0.00  0.00    +0.000 HD
BRANCH  29  31
ATOM     31  C   UNL     1       1.852   4.387  21.250  0.00  0.00    +0.000 C 
ATOM     32  C   UNL     1       0.922   3.774  20.209  0.00  0.00    +0.000 C 
ATOM     33  O   UNL     1       1.421   2.439  20.469  0.00  0.00    +0.000 OA
ATOM     34  C   UNL     1       2.396   2.959  21.406  0.00  0.00    +0.000 C 
ENDBRANCH  29  31
ENDBRANCH   6  29
TORSDOF 8
ENDMDL
MODEL 8
REMARK VINA RESULT:      -7.8      4.155      8.501
REMARK  Name = 
REMARK  10 active torsions:
REMARK  status: ('A' for Active; 'I' for Inactive)
REMARK    1  A    between atoms: C_1  and  C_2
REMARK    2  A    between atoms: C_2  and  C_3
REMARK    3  A    between atoms: C_2  and  O_4
REMARK    4  A    between atoms: C_2  and  C_5
REMARK    5  A    between atoms: C_5  and  C_7
REMARK    6  A    between atoms: C_7  and  N_8
REMARK    7  A    between atoms: C_9  and  C_11
REMARK    8  A    between atoms: C_14  and  N_15
REMARK    9  A    between atoms: C_26  and  N_27
REMARK   10  A    between atoms: N_27  and  C_28
REMARK                            x       y       z     vdW  Elec       q    Type
REMARK                         _______ _______ _______ _____ _____    ______ ____
ROOT
ATOM      1  C   UNL     1       3.066   6.464  18.793  0.00  0.00    +0.000 A 
ATOM      2  C   UNL     1       3.055   7.606  17.988  0.00  0.00    +0.000 A 
ATOM      3  N   UNL     1       2.270   8.733  18.175  0.00  0.00    +0.000 NA
ATOM      4  C   UNL     1       1.347   8.687  19.164  0.00  0.00    +0.000 A 
ATOM      5  C   UNL     1       1.286   7.603  20.021  0.00  0.00    +0.000 A 
ATOM      6  C   UNL     1       2.234   6.549  19.943  0.00  0.00    +0.000 A 
ENDROOT
BRANCH   4   7
ATOM      7  N   UNL     1       0.331   9.687  19.307  0.00  0.00    +0.000 N 
ATOM      8  N   UNL     1      -0.261  10.223  18.183  0.00  0.00    +0.000 NA
ATOM      9  C   UNL     1      -0.612  11.450  18.581  0.00  0.00    +0.000 A 
ATOM     10  C   UNL     1      -0.482  11.622  19.970  0.00  0.00    +0.000 A 
ATOM     11  C   UNL     1      -0.699  12.647  20.902  0.00  0.00    +0.000 A 
ATOM     12  C   UNL     1      -0.770  12.263  22.239  0.00  0.00    +0.000 A 
ATOM     13 CL   UNL     1      -1.122  13.433  23.447  0.00  0.00    +0.000 Cl
ATOM     14  C   UNL     1      -0.583  10.926  22.573  0.00  0.00    +0.000 A 
ATOM     15  N   UNL     1      -0.165   9.948  21.725  0.00  0.00    +0.000 NA
ATOM     16  C   UNL     1      -0.098  10.368  20.440  0.00  0.00    +0.000 A 
ENDBRANCH   4   7
BRANCH   1  18
ATOM     17  N   UNL     1       3.829   4.569  17.301  0.00  0.00    +0.000 N 
ATOM     18  C   UNL     1       4.026   5.315  18.477  0.00  0.00    +0.000 C 
ATOM     19  O   UNL     1       4.946   5.074  19.253  0.00  0.00    +0.000 OA
ATOM     20  H   UNL     1       2.969   4.694  16.782  0.00  0.00    +0.000 HD
BRANCH  17  21
ATOM     21  C   UNL     1       4.782   3.560  16.688  0.00  0.00    +0.000 C 
BRANCH  21  22
ATOM     22  C   UNL     1       5.738   4.103  15.581  0.00  0.00    +0.000 C 
ATOM     23  F   UNL     1       4.939   4.741  14.658  0.00  0.00    +0.000 F 
BRANCH  22  25
ATOM     24  C   UNL     1       7.685   4.583  17.185  0.00  0.00    +0.000 C 
ATOM     25  C   UNL     1       6.884   5.123  15.977  0.00  0.00    +0.000 C 
ATOM     26  C   UNL     1       6.383   6.523  16.353  0.00  0.00    +0.000 C 
BRANCH  25  27
ATOM     27  O   UNL     1       7.810   5.304  14.900  0.00  0.00    +0.000 OA
ATOM     28  H   UNL     1       7.416   4.960  14.084  0.00  0.00    +0.000 HD
ENDBRANCH  25  27
ENDBRANCH  22  25
ENDBRANCH  21  22
ENDBRANCH  17  21
ENDBRANCH   1  18
BRANCH   6  29
ATOM     29  N   UNL     1       2.236   5.617  21.029  0.00  0.00    +0.000 N 
ATOM     30  H   UNL     1       2.248   6.123  21.925  0.00  0.00    +0.000 HD
BRANCH  29  31
ATOM     31  C   UNL     1       1.335   4.456  21.020  0.00  0.00    +0.000 C 
ATOM     32  C   UNL     1       1.221   3.692  19.706  0.00  0.00    +0.000 C 
ATOM     33  O   UNL     1       1.735   2.478  20.305  0.00  0.00    +0.000 OA
ATOM     34  C   UNL     1       1.958   3.161  21.562  0.00  0.00    +0.000 C 
ENDBRANCH  29  31
ENDBRANCH   6  29
TORSDOF 8
ENDMDL
MODEL 9
REMARK VINA RESULT:      -7.7      4.145      8.618
REMARK  Name = 
REMARK  10 active torsions:
REMARK  status: ('A' for Active; 'I' for Inactive)
REMARK    1  A    between atoms: C_1  and  C_2
REMARK    2  A    between atoms: C_2  and  C_3
REMARK    3  A    between atoms: C_2  and  O_4
REMARK    4  A    between atoms: C_2  and  C_5
REMARK    5  A    between atoms: C_5  and  C_7
REMARK    6  A    between atoms: C_7  and  N_8
REMARK    7  A    between atoms: C_9  and  C_11
REMARK    8  A    between atoms: C_14  and  N_15
REMARK    9  A    between atoms: C_26  and  N_27
REMARK   10  A    between atoms: N_27  and  C_28
REMARK                            x       y       z     vdW  Elec       q    Type
REMARK                         _______ _______ _______ _____ _____    ______ ____
ROOT
ATOM      1  C   UNL     1       2.726   7.125  18.616  0.00  0.00    +0.000 A 
ATOM      2  C   UNL     1       2.629   8.317  17.893  0.00  0.00    +0.000 A 
ATOM      3  N   UNL     1       1.922   9.448  18.268  0.00  0.00    +0.000 NA
ATOM      4  C   UNL     1       1.162   9.362  19.384  0.00  0.00    +0.000 A 
ATOM      5  C   UNL     1       1.197   8.226  20.174  0.00  0.00    +0.000 A 
ATOM      6  C   UNL     1       2.085   7.156  19.884  0.00  0.00    +0.000 A 
ENDROOT
BRANCH   4   7
ATOM      7  N   UNL     1       0.216  10.375  19.744  0.00  0.00    +0.000 N 
ATOM      8  N   UNL     1      -1.127  10.170  19.505  0.00  0.00    +0.000 NA
ATOM      9  C   UNL     1      -1.597  11.410  19.335  0.00  0.00    +0.000 A 
ATOM     10  C   UNL     1      -0.660  12.394  19.692  0.00  0.00    +0.000 A 
ATOM     11  C   UNL     1      -0.605  13.795  19.724  0.00  0.00    +0.000 A 
ATOM     12  C   UNL     1       0.415  14.356  20.489  0.00  0.00    +0.000 A 
ATOM     13 CL   UNL     1       0.512  16.063  20.665  0.00  0.00    +0.000 Cl
ATOM     14  C   UNL     1       1.325  13.520  21.128  0.00  0.00    +0.000 A 
ATOM     15  N   UNL     1       1.427  12.175  20.948  0.00  0.00    +0.000 NA
ATOM     16  C   UNL     1       0.425  11.675  20.188  0.00  0.00    +0.000 A 
ENDBRANCH   4   7
BRANCH   1  18
ATOM     17  N   UNL     1       4.967   5.985  18.344  0.00  0.00    +0.000 N 
ATOM     18  C   UNL     1       3.585   5.975  18.085  0.00  0.00    +0.000 C 
ATOM     19  O   UNL     1       3.049   5.071  17.451  0.00  0.00    +0.000 OA
ATOM     20  H   UNL     1       5.387   6.824  18.723  0.00  0.00    +0.000 HD
BRANCH  17  21
ATOM     21  C   UNL     1       5.947   4.849  18.119  0.00  0.00    +0.000 C 
BRANCH  21  22
ATOM     22  C   UNL     1       7.050   5.096  17.044  0.00  0.00    +0.000 C 
ATOM     23  F   UNL     1       8.028   4.153  17.270  0.00  0.00    +0.000 F 
BRANCH  22  25
ATOM     24  C   UNL     1       5.557   6.022  15.172  0.00  0.00    +0.000 C 
ATOM     25  C   UNL     1       6.672   5.004  15.508  0.00  0.00    +0.000 C 
ATOM     26  C   UNL     1       6.177   3.623  15.060  0.00  0.00    +0.000 C 
BRANCH  25  27
ATOM     27  O   UNL     1       7.796   5.316  14.678  0.00  0.00    +0.000 OA
ATOM     28  H   UNL     1       7.487   5.803  13.900  0.00  0.00    +0.000 HD
ENDBRANCH  25  27
ENDBRANCH  22  25
ENDBRANCH  21  22
ENDBRANCH  17  21
ENDBRANCH   1  18
BRANCH   6  29
ATOM     29  N   UNL     1       2.222   6.155  20.899  0.00  0.00    +0.000 N 
ATOM     30  H   UNL     1       1.580   6.358  21.679  0.00  0.00    +0.000 HD
BRANCH  29  31
ATOM     31  C   UNL     1       2.285   4.732  20.542  0.00  0.00    +0.000 C 
ATOM     32  C   UNL     1       2.303   3.740  21.700  0.00  0.00    +0.000 C 
ATOM     33  O   UNL     1       1.061   3.132  21.269  0.00  0.00    +0.000 OA
ATOM     34  C   UNL     1       0.928   4.099  20.199  0.00  0.00    +0.000 C 
ENDBRANCH  29  31
ENDBRANCH   6  29
TORSDOF 8
ENDMDL
