MODEL 1
REMARK VINA RESULT:      -7.5      0.000      0.000
REMARK  Name = 
REMARK  3 active torsions:
REMARK  status: ('A' for Active; 'I' for Inactive)
REMARK    1  A    between atoms: C_2  and  C_3
REMARK    2  A    between atoms: C_4  and  C_5
REMARK    3  A    between atoms: C_8  and  C_9
REMARK                            x       y       z     vdW  Elec       q    Type
REMARK                         _______ _______ _______ _____ _____    ______ ____
ROOT
ATOM      1  C   UNL     1       1.812   7.425  20.220  0.00  0.00    +0.000 A 
ATOM      2  C   UNL     1       2.121   8.120  19.051  0.00  0.00    +0.000 A 
ATOM      3  C   UNL     1       2.931   7.531  18.071  0.00  0.00    +0.000 A 
ATOM      4  C   UNL     1       3.463   6.239  18.232  0.00  0.00    +0.000 A 
ATOM      5  C   UNL     1       3.140   5.561  19.422  0.00  0.00    +0.000 A 
ATOM      6  C   UNL     1       2.315   6.138  20.399  0.00  0.00    +0.000 A 
ENDROOT
BRANCH   4   7
ATOM      7  C   UNL     1       4.296   5.613  17.175  0.00  0.00    +0.000 A 
ATOM      8  C   UNL     1       4.955   6.387  16.201  0.00  0.00    +0.000 A 
ATOM      9  C   UNL     1       5.687   5.797  15.165  0.00  0.00    +0.000 A 
ATOM     10  C   UNL     1       5.797   4.413  15.090  0.00  0.00    +0.000 A 
ATOM     11  C   UNL     1       5.182   3.622  16.053  0.00  0.00    +0.000 A 
ATOM     12  C   UNL     1       4.438   4.215  17.079  0.00  0.00    +0.000 A 
ENDBRANCH   4   7
BRANCH   1  14
ATOM     13  C   UNL     1       1.059   9.313  21.529  0.00  0.00    +0.000 C 
ATOM     14  C   UNL     1       0.909   8.022  21.204  0.00  0.00    +0.000 C 
BRANCH  13  16
ATOM     15  O   UNL     1       0.364   9.602  23.790  0.00  0.00    +0.000 OA
ATOM     16  C   UNL     1       0.259   9.946  22.613  0.00  0.00    +0.000 C 
ATOM     17  N   UNL     1      -0.524  11.019  22.256  0.00  0.00    +0.000 N 
ATOM     18  C   UNL     1      -1.014  11.398  21.037  0.00  0.00    +0.000 C 
ATOM     19  N   UNL     1      -1.067  10.666  19.981  0.00  0.00    +0.000 NA
ATOM     20  C   UNL     1      -1.576  11.461  18.852  0.00  0.00    +0.000 C 
ATOM     21  C   UNL     1      -2.359  12.662  19.363  0.00  0.00    +0.000 C 
ATOM     22  S   UNL     1      -1.610  13.020  20.965  0.00  0.00    +0.000 S 
ATOM     23  H   UNL     1      -0.840  11.567  23.041  0.00  0.00    +0.000 HD
ENDBRANCH  13  16
ENDBRANCH   1  14
TORSDOF 3
ENDMDL
MODEL 2
REMARK VINA RESULT:      -7.5      0.145      1.033
REMARK  Name = 
REMARK  3 active torsions:
REMARK  status: ('A' for Active; 'I' for Inactive)
REMARK    1  A    between atoms: C_2  and  C_3
REMARK    2  A    between atoms: C_4  and  C_5
REMARK    3  A    between atoms: C_8  and  C_9
REMARK                            x       y       z     vdW  Elec       q    Type
REMARK                         _______ _______ _______ _____ _____    ______ ____
ROOT
ATOM      1  C   UNL     1       1.792   7.303  20.163  0.00  0.00    +0.000 A 
ATOM      2  C   UNL     1       2.264   5.997  20.300  0.00  0.00    +0.000 A 
ATOM      3  C   UNL     1       3.081   5.433  19.312  0.00  0.00    +0.000 A 
ATOM      4  C   UNL     1       3.444   6.148  18.156  0.00  0.00    +0.000 A 
ATOM      5  C   UNL     1       2.950   7.461  18.039  0.00  0.00    +0.000 A 
ATOM      6  C   UNL     1       2.147   8.038  19.033  0.00  0.00    +0.000 A 
ENDROOT
BRANCH   4   7
ATOM      7  C   UNL     1       4.334   5.551  17.129  0.00  0.00    +0.000 A 
ATOM      8  C   UNL     1       4.980   6.344  16.162  0.00  0.00    +0.000 A 
ATOM      9  C   UNL     1       5.766   5.778  15.153  0.00  0.00    +0.000 A 
ATOM     10  C   UNL     1       5.947   4.400  15.101  0.00  0.00    +0.000 A 
ATOM     11  C   UNL     1       5.346   3.592  16.059  0.00  0.00    +0.000 A 
ATOM     12  C   UNL     1       4.547   4.160  17.057  0.00  0.00    +0.000 A 
ENDBRANCH   4   7
BRANCH   1  14
ATOM     13  C   UNL     1       1.029   9.235  21.398  0.00  0.00    +0.000 C 
ATOM     14  C   UNL     1       0.998   7.906  21.232  0.00  0.00    +0.000 C 
BRANCH  13  16
ATOM     15  O   UNL     1       0.512   9.529  23.705  0.00  0.00    +0.000 OA
ATOM     16  C   UNL     1       0.348   9.899  22.543  0.00  0.00    +0.000 C 
ATOM     17  N   UNL     1      -0.389  11.024  22.254  0.00  0.00    +0.000 N 
ATOM     18  C   UNL     1      -0.936  11.454  21.077  0.00  0.00    +0.000 C 
ATOM     19  N   UNL     1      -1.108  10.745  20.019  0.00  0.00    +0.000 NA
ATOM     20  C   UNL     1      -1.643  11.589  18.938  0.00  0.00    +0.000 C 
ATOM     21  C   UNL     1      -2.311  12.827  19.517  0.00  0.00    +0.000 C 
ATOM     22  S   UNL     1      -1.432  13.111  21.068  0.00  0.00    +0.000 S 
ATOM     23  H   UNL     1      -0.615  11.577  23.066  0.00  0.00    +0.000 HD
ENDBRANCH  13  16
ENDBRANCH   1  14
TORSDOF 3
ENDMDL
MODEL 3
REMARK VINA RESULT:      -7.4      4.706      8.638
REMARK  Name = 
REMARK  3 active torsions:
REMARK  status: ('A' for Active; 'I' for Inactive)
REMARK    1  A    between atoms: C_2  and  C_3
REMARK    2  A    between atoms: C_4  and  C_5
REMARK    3  A    between atoms: C_8  and  C_9
REMARK                            x       y       z     vdW  Elec       q    Type
REMARK                         _______ _______ _______ _____ _____    ______ ____
ROOT
ATOM      1  C   UNL     1       2.248   7.037  18.642  0.00  0.00    +0.000 A 
ATOM      2  C   UNL     1       2.022   6.788  19.995  0.00  0.00    +0.000 A 
ATOM      3  C   UNL     1       1.441   7.770  20.809  0.00  0.00    +0.000 A 
ATOM      4  C   UNL     1       1.079   9.031  20.299  0.00  0.00    +0.000 A 
ATOM      5  C   UNL     1       1.322   9.258  18.932  0.00  0.00    +0.000 A 
ATOM      6  C   UNL     1       1.886   8.272  18.109  0.00  0.00    +0.000 A 
ENDROOT
BRANCH   4   7
ATOM      7  C   UNL     1       0.438  10.054  21.163  0.00  0.00    +0.000 A 
ATOM      8  C   UNL     1      -0.306   9.694  22.303  0.00  0.00    +0.000 A 
ATOM      9  C   UNL     1      -0.966  10.652  23.081  0.00  0.00    +0.000 A 
ATOM     10  C   UNL     1      -0.880  11.999  22.750  0.00  0.00    +0.000 A 
ATOM     11  C   UNL     1      -0.129  12.389  21.647  0.00  0.00    +0.000 A 
ATOM     12  C   UNL     1       0.517  11.427  20.862  0.00  0.00    +0.000 A 
ENDBRANCH   4   7
BRANCH   1  14
ATOM     13  C   UNL     1       2.686   4.705  18.183  0.00  0.00    +0.000 C 
ATOM     14  C   UNL     1       2.789   5.981  17.788  0.00  0.00    +0.000 C 
BRANCH  13  16
ATOM     15  O   UNL     1       2.670   2.691  16.909  0.00  0.00    +0.000 OA
ATOM     16  C   UNL     1       3.326   3.595  17.425  0.00  0.00    +0.000 C 
ATOM     17  N   UNL     1       4.684   3.685  17.229  0.00  0.00    +0.000 N 
ATOM     18  C   UNL     1       5.638   4.396  17.904  0.00  0.00    +0.000 C 
ATOM     19  N   UNL     1       5.500   4.936  19.063  0.00  0.00    +0.000 NA
ATOM     20  C   UNL     1       6.718   5.686  19.408  0.00  0.00    +0.000 C 
ATOM     21  C   UNL     1       7.901   5.172  18.601  0.00  0.00    +0.000 C 
ATOM     22  S   UNL     1       7.153   4.545  17.083  0.00  0.00    +0.000 S 
ATOM     23  H   UNL     1       5.030   3.068  16.511  0.00  0.00    +0.000 HD
ENDBRANCH  13  16
ENDBRANCH   1  14
TORSDOF 3
ENDMDL
MODEL 4
REMARK VINA RESULT:      -7.3      0.486      1.497
REMARK  Name = 
REMARK  3 active torsions:
REMARK  status: ('A' for Active; 'I' for Inactive)
REMARK    1  A    between atoms: C_2  and  C_3
REMARK    2  A    between atoms: C_4  and  C_5
REMARK    3  A    between atoms: C_8  and  C_9
REMARK                            x       y       z     vdW  Elec       q    Type
REMARK                         _______ _______ _______ _____ _____    ______ ____
ROOT
ATOM      1  C   UNL     1       2.011   7.268  19.994  0.00  0.00    +0.000 A 
ATOM      2  C   UNL     1       2.594   6.022  20.226  0.00  0.00    +0.000 A 
ATOM      3  C   UNL     1       3.448   5.452  19.274  0.00  0.00    +0.000 A 
ATOM      4  C   UNL     1       3.739   6.101  18.059  0.00  0.00    +0.000 A 
ATOM      5  C   UNL     1       3.135   7.354  17.847  0.00  0.00    +0.000 A 
ATOM      6  C   UNL     1       2.293   7.939  18.805  0.00  0.00    +0.000 A 
ENDROOT
BRANCH   4   7
ATOM      7  C   UNL     1       4.669   5.501  17.070  0.00  0.00    +0.000 A 
ATOM      8  C   UNL     1       4.545   4.159  16.661  0.00  0.00    +0.000 A 
ATOM      9  C   UNL     1       5.459   3.573  15.779  0.00  0.00    +0.000 A 
ATOM     10  C   UNL     1       6.511   4.323  15.264  0.00  0.00    +0.000 A 
ATOM     11  C   UNL     1       6.643   5.659  15.626  0.00  0.00    +0.000 A 
ATOM     12  C   UNL     1       5.736   6.238  16.520  0.00  0.00    +0.000 A 
ENDBRANCH   4   7
BRANCH   1  14
ATOM     13  C   UNL     1       1.189   9.218  21.162  0.00  0.00    +0.000 C 
ATOM     14  C   UNL     1       1.177   7.885  21.024  0.00  0.00    +0.000 C 
BRANCH  13  16
ATOM     15  O   UNL     1       0.671   9.623  23.452  0.00  0.00    +0.000 OA
ATOM     16  C   UNL     1       0.465   9.898  22.270  0.00  0.00    +0.000 C 
ATOM     17  N   UNL     1      -0.367  10.935  21.918  0.00  0.00    +0.000 N 
ATOM     18  C   UNL     1      -0.960  11.236  20.724  0.00  0.00    +0.000 C 
ATOM     19  N   UNL     1      -1.082  10.444  19.718  0.00  0.00    +0.000 NA
ATOM     20  C   UNL     1      -1.696  11.165  18.592  0.00  0.00    +0.000 C 
ATOM     21  C   UNL     1      -2.462  12.379  19.096  0.00  0.00    +0.000 C 
ATOM     22  S   UNL     1      -1.596  12.840  20.610  0.00  0.00    +0.000 S 
ATOM     23  H   UNL     1      -0.632  11.521  22.695  0.00  0.00    +0.000 HD
ENDBRANCH  13  16
ENDBRANCH   1  14
TORSDOF 3
ENDMDL
MODEL 5
REMARK VINA RESULT:      -7.3      4.379      8.684
REMARK  Name = 
REMARK  3 active torsions:
REMARK  status: ('A' for Active; 'I' for Inactive)
REMARK    1  A    between atoms: C_2  and  C_3
REMARK    2  A    between atoms: C_4  and  C_5
REMARK    3  A    between atoms: C_8  and  C_9
REMARK                            x       y       z     vdW  Elec       q    Type
REMARK                         _______ _______ _______ _____ _____    ______ ____
ROOT
ATOM      1  C   UNL     1       1.862   8.656  18.515  0.00  0.00    +0.000 A 
ATOM      2  C   UNL     1       1.658   8.291  19.845  0.00  0.00    +0.000 A 
ATOM      3  C   UNL     1       0.836   9.066  20.674  0.00  0.00    +0.000 A 
ATOM      4  C   UNL     1       0.202  10.231  20.204  0.00  0.00    +0.000 A 
ATOM      5  C   UNL     1       0.428  10.580  18.859  0.00  0.00    +0.000 A 
ATOM      6  C   UNL     1       1.235   9.797  18.019  0.00  0.00    +0.000 A 
ENDROOT
BRANCH   4   7
ATOM      7  C   UNL     1      -0.689  11.029  21.081  0.00  0.00    +0.000 A 
ATOM      8  C   UNL     1      -0.795  10.765  22.461  0.00  0.00    +0.000 A 
ATOM      9  C   UNL     1      -1.684  11.473  23.277  0.00  0.00    +0.000 A 
ATOM     10  C   UNL     1      -2.475  12.481  22.738  0.00  0.00    +0.000 A 
ATOM     11  C   UNL     1      -2.372  12.785  21.386  0.00  0.00    +0.000 A 
ATOM     12  C   UNL     1      -1.494  12.065  20.568  0.00  0.00    +0.000 A 
ENDBRANCH   4   7
BRANCH   1  14
ATOM     13  C   UNL     1       3.365   6.793  18.177  0.00  0.00    +0.000 C 
ATOM     14  C   UNL     1       2.665   7.801  17.640  0.00  0.00    +0.000 C 
BRANCH  13  16
ATOM     15  O   UNL     1       5.185   6.471  16.674  0.00  0.00    +0.000 OA
ATOM     16  C   UNL     1       4.300   5.968  17.364  0.00  0.00    +0.000 C 
ATOM     17  N   UNL     1       4.203   4.603  17.509  0.00  0.00    +0.000 N 
ATOM     18  C   UNL     1       3.175   3.826  17.965  0.00  0.00    +0.000 C 
ATOM     19  N   UNL     1       1.952   4.196  18.108  0.00  0.00    +0.000 NA
ATOM     20  C   UNL     1       1.170   3.101  18.705  0.00  0.00    +0.000 C 
ATOM     21  C   UNL     1       1.865   1.768  18.471  0.00  0.00    +0.000 C 
ATOM     22  S   UNL     1       3.613   2.200  18.363  0.00  0.00    +0.000 S 
ATOM     23  H   UNL     1       5.001   4.102  17.151  0.00  0.00    +0.000 HD
ENDBRANCH  13  16
ENDBRANCH   1  14
TORSDOF 3
ENDMDL
MODEL 6
REMARK VINA RESULT:      -7.3      2.720      3.841
REMARK  Name = 
REMARK  3 active torsions:
REMARK  status: ('A' for Active; 'I' for Inactive)
REMARK    1  A    between atoms: C_2  and  C_3
REMARK    2  A    between atoms: C_4  and  C_5
REMARK    3  A    between atoms: C_8  and  C_9
REMARK                            x       y       z     vdW  Elec       q    Type
REMARK                         _______ _______ _______ _____ _____    ______ ____
ROOT
ATOM      1  C   UNL     1       1.311   9.485  18.998  0.00  0.00    +0.000 A 
ATOM      2  C   UNL     1       1.953   8.716  18.028  0.00  0.00    +0.000 A 
ATOM      3  C   UNL     1       2.400   7.423  18.330  0.00  0.00    +0.000 A 
ATOM      4  C   UNL     1       2.230   6.863  19.609  0.00  0.00    +0.000 A 
ATOM      5  C   UNL     1       1.583   7.661  20.572  0.00  0.00    +0.000 A 
ATOM      6  C   UNL     1       1.117   8.949  20.270  0.00  0.00    +0.000 A 
ENDROOT
BRANCH   4   7
ATOM      7  C   UNL     1       2.681   5.482  19.911  0.00  0.00    +0.000 A 
ATOM      8  C   UNL     1       3.773   4.900  19.238  0.00  0.00    +0.000 A 
ATOM      9  C   UNL     1       4.159   3.576  19.473  0.00  0.00    +0.000 A 
ATOM     10  C   UNL     1       3.476   2.806  20.407  0.00  0.00    +0.000 A 
ATOM     11  C   UNL     1       2.412   3.361  21.109  0.00  0.00    +0.000 A 
ATOM     12  C   UNL     1       2.018   4.680  20.860  0.00  0.00    +0.000 A 
ENDBRANCH   4   7
BRANCH   1  14
ATOM     13  C   UNL     1      -0.281  11.276  19.311  0.00  0.00    +0.000 C 
ATOM     14  C   UNL     1       0.786  10.805  18.652  0.00  0.00    +0.000 C 
BRANCH  13  16
ATOM     15  O   UNL     1      -0.642  13.158  17.894  0.00  0.00    +0.000 OA
ATOM     16  C   UNL     1      -0.942  12.553  18.923  0.00  0.00    +0.000 C 
ATOM     17  N   UNL     1      -1.989  12.970  19.711  0.00  0.00    +0.000 N 
ATOM     18  C   UNL     1      -2.317  12.651  20.999  0.00  0.00    +0.000 C 
ATOM     19  N   UNL     1      -1.547  12.085  21.859  0.00  0.00    +0.000 NA
ATOM     20  C   UNL     1      -2.293  11.832  23.102  0.00  0.00    +0.000 C 
ATOM     21  C   UNL     1      -3.500  12.754  23.190  0.00  0.00    +0.000 C 
ATOM     22  S   UNL     1      -3.927  13.079  21.468  0.00  0.00    +0.000 S 
ATOM     23  H   UNL     1      -2.561  13.679  19.279  0.00  0.00    +0.000 HD
ENDBRANCH  13  16
ENDBRANCH   1  14
TORSDOF 3
ENDMDL
MODEL 7
REMARK VINA RESULT:      -7.3      4.288      8.709
REMARK  Name = 
REMARK  3 active torsions:
REMARK  status: ('A' for Active; 'I' for Inactive)
REMARK    1  A    between atoms: C_2  and  C_3
REMARK    2  A    between atoms: C_4  and  C_5
REMARK    3  A    between atoms: C_8  and  C_9
REMARK                            x       y       z     vdW  Elec       q    Type
REMARK                         _______ _______ _______ _____ _____    ______ ____
ROOT
ATOM      1  C   UNL     1       1.579   8.947  18.582  0.00  0.00    +0.000 A 
ATOM      2  C   UNL     1       0.780   9.945  18.026  0.00  0.00    +0.000 A 
ATOM      3  C   UNL     1      -0.078  10.699  18.836  0.00  0.00    +0.000 A 
ATOM      4  C   UNL     1      -0.173  10.473  20.222  0.00  0.00    +0.000 A 
ATOM      5  C   UNL     1       0.640   9.457  20.758  0.00  0.00    +0.000 A 
ATOM      6  C   UNL     1       1.515   8.711  19.954  0.00  0.00    +0.000 A 
ENDROOT
BRANCH   4   7
ATOM      7  C   UNL     1      -1.064  11.297  21.077  0.00  0.00    +0.000 A 
ATOM      8  C   UNL     1      -1.084  11.150  22.477  0.00  0.00    +0.000 A 
ATOM      9  C   UNL     1      -1.969  11.878  23.279  0.00  0.00    +0.000 A 
ATOM     10  C   UNL     1      -2.844  12.791  22.701  0.00  0.00    +0.000 A 
ATOM     11  C   UNL     1      -2.828  12.980  21.324  0.00  0.00    +0.000 A 
ATOM     12  C   UNL     1      -1.953  12.239  20.523  0.00  0.00    +0.000 A 
ENDBRANCH   4   7
BRANCH   1  14
ATOM     13  C   UNL     1       3.045   7.065  18.188  0.00  0.00    +0.000 C 
ATOM     14  C   UNL     1       2.522   8.214  17.738  0.00  0.00    +0.000 C 
BRANCH  13  16
ATOM     15  O   UNL     1       4.983   6.928  16.809  0.00  0.00    +0.000 OA
ATOM     16  C   UNL     1       4.104   6.338  17.437  0.00  0.00    +0.000 C 
ATOM     17  N   UNL     1       4.126   4.970  17.570  0.00  0.00    +0.000 N 
ATOM     18  C   UNL     1       3.146   4.095  17.953  0.00  0.00    +0.000 C 
ATOM     19  N   UNL     1       1.888   4.349  18.015  0.00  0.00    +0.000 NA
ATOM     20  C   UNL     1       1.173   3.181  18.555  0.00  0.00    +0.000 C 
ATOM     21  C   UNL     1       2.002   1.920  18.363  0.00  0.00    +0.000 C 
ATOM     22  S   UNL     1       3.706   2.514  18.374  0.00  0.00    +0.000 S 
ATOM     23  H   UNL     1       4.989   4.548  17.264  0.00  0.00    +0.000 HD
ENDBRANCH  13  16
ENDBRANCH   1  14
TORSDOF 3
ENDMDL
MODEL 8
REMARK VINA RESULT:      -7.3      0.620      1.127
REMARK  Name = 
REMARK  3 active torsions:
REMARK  status: ('A' for Active; 'I' for Inactive)
REMARK    1  A    between atoms: C_2  and  C_3
REMARK    2  A    between atoms: C_4  and  C_5
REMARK    3  A    between atoms: C_8  and  C_9
REMARK                            x       y       z     vdW  Elec       q    Type
REMARK                         _______ _______ _______ _____ _____    ______ ____
ROOT
ATOM      1  C   UNL     1       2.064   7.365  19.962  0.00  0.00    +0.000 A 
ATOM      2  C   UNL     1       2.349   7.987  18.747  0.00  0.00    +0.000 A 
ATOM      3  C   UNL     1       3.226   7.389  17.833  0.00  0.00    +0.000 A 
ATOM      4  C   UNL     1       3.852   6.160  18.107  0.00  0.00    +0.000 A 
ATOM      5  C   UNL     1       3.553   5.554  19.342  0.00  0.00    +0.000 A 
ATOM      6  C   UNL     1       2.661   6.139  20.253  0.00  0.00    +0.000 A 
ENDROOT
BRANCH   4   7
ATOM      7  C   UNL     1       4.757   5.520  17.120  0.00  0.00    +0.000 A 
ATOM      8  C   UNL     1       4.501   4.233  16.610  0.00  0.00    +0.000 A 
ATOM      9  C   UNL     1       5.386   3.601  15.730  0.00  0.00    +0.000 A 
ATOM     10  C   UNL     1       6.543   4.253  15.318  0.00  0.00    +0.000 A 
ATOM     11  C   UNL     1       6.810   5.537  15.781  0.00  0.00    +0.000 A 
ATOM     12  C   UNL     1       5.931   6.159  16.673  0.00  0.00    +0.000 A 
ENDBRANCH   4   7
BRANCH   1  14
ATOM     13  C   UNL     1       1.241   9.245  21.238  0.00  0.00    +0.000 C 
ATOM     14  C   UNL     1       1.094   7.963  20.877  0.00  0.00    +0.000 C 
BRANCH  13  16
ATOM     15  O   UNL     1       0.489   9.642  23.464  0.00  0.00    +0.000 OA
ATOM     16  C   UNL     1       0.365   9.877  22.262  0.00  0.00    +0.000 C 
ATOM     17  N   UNL     1      -0.521  10.829  21.814  0.00  0.00    +0.000 N 
ATOM     18  C   UNL     1      -1.030  11.056  20.566  0.00  0.00    +0.000 C 
ATOM     19  N   UNL     1      -0.993  10.239  19.574  0.00  0.00    +0.000 NA
ATOM     20  C   UNL     1      -1.567  10.882  18.381  0.00  0.00    +0.000 C 
ATOM     21  C   UNL     1      -2.477  12.032  18.788  0.00  0.00    +0.000 C 
ATOM     22  S   UNL     1      -1.791  12.595  20.359  0.00  0.00    +0.000 S 
ATOM     23  H   UNL     1      -0.902  11.403  22.550  0.00  0.00    +0.000 HD
ENDBRANCH  13  16
ENDBRANCH   1  14
TORSDOF 3
ENDMDL
MODEL 9
REMARK VINA RESULT:      -7.3      1.043      1.461
REMARK  Name = 
REMARK  3 active torsions:
REMARK  status: ('A' for Active; 'I' for Inactive)
REMARK    1  A    between atoms: C_2  and  C_3
REMARK    2  A    between atoms: C_4  and  C_5
REMARK    3  A    between atoms: C_8  and  C_9
REMARK                            x       y       z     vdW  Elec       q    Type
REMARK                         _______ _______ _______ _____ _____    ______ ____
ROOT
ATOM      1  C   UNL     1       1.650   7.720  20.293  0.00  0.00    +0.000 A 
ATOM      2  C   UNL     1       2.083   6.406  20.471  0.00  0.00    +0.000 A 
ATOM      3  C   UNL     1       2.869   5.781  19.495  0.00  0.00    +0.000 A 
ATOM      4  C   UNL     1       3.239   6.442  18.310  0.00  0.00    +0.000 A 
ATOM      5  C   UNL     1       2.785   7.765  18.151  0.00  0.00    +0.000 A 
ATOM      6  C   UNL     1       2.013   8.403  19.134  0.00  0.00    +0.000 A 
ENDROOT
BRANCH   4   7
ATOM      7  C   UNL     1       4.096   5.781  17.295  0.00  0.00    +0.000 A 
ATOM      8  C   UNL     1       4.796   6.523  16.324  0.00  0.00    +0.000 A 
ATOM      9  C   UNL     1       5.553   5.899  15.327  0.00  0.00    +0.000 A 
ATOM     10  C   UNL     1       5.647   4.512  15.288  0.00  0.00    +0.000 A 
ATOM     11  C   UNL     1       4.992   3.752  16.250  0.00  0.00    +0.000 A 
ATOM     12  C   UNL     1       4.223   4.379  17.237  0.00  0.00    +0.000 A 
ENDBRANCH   4   7
BRANCH   1  14
ATOM     13  C   UNL     1       0.373   9.600  21.115  0.00  0.00    +0.000 C 
ATOM     14  C   UNL     1       0.889   8.386  21.349  0.00  0.00    +0.000 C 
BRANCH  13  16
ATOM     15  O   UNL     1      -0.667   9.871  23.242  0.00  0.00    +0.000 OA
ATOM     16  C   UNL     1      -0.300  10.385  22.186  0.00  0.00    +0.000 C 
ATOM     17  N   UNL     1      -0.393  11.743  21.989  0.00  0.00    +0.000 N 
ATOM     18  C   UNL     1      -0.329  12.484  20.841  0.00  0.00    +0.000 C 
ATOM     19  N   UNL     1      -0.436  12.034  19.642  0.00  0.00    +0.000 NA
ATOM     20  C   UNL     1      -0.224  13.127  18.681  0.00  0.00    +0.000 C 
ATOM     21  C   UNL     1      -0.479  14.472  19.346  0.00  0.00    +0.000 C 
ATOM     22  S   UNL     1      -0.087  14.180  21.082  0.00  0.00    +0.000 S 
ATOM     23  H   UNL     1      -0.616  12.258  22.827  0.00  0.00    +0.000 HD
ENDBRANCH  13  16
ENDBRANCH   1  14
TORSDOF 3
ENDMDL
