MODEL 1
REMARK VINA RESULT:      -8.0      0.000      0.000
REMARK  Name = 
REMARK  5 active torsions:
REMARK  status: ('A' for Active; 'I' for Inactive)
REMARK    1  A    between atoms: C_1  and  O_2
REMARK    2  A    between atoms: O_2  and  C_3
REMARK    3  A    between atoms: C_5  and  C_6
REMARK    4  A    between atoms: N_8  and  C_9
REMARK    5  A    between atoms: C_23  and  N_24
REMARK                            x       y       z     vdW  Elec       q    Type
REMARK                         _______ _______ _______ _____ _____    ______ ____
ROOT
ATOM      1  C   UNL     1       3.703   5.660  18.587  0.00  0.00    +0.000 A 
ATOM      2  N   UNL     1       3.078   6.835  18.807  0.00  0.00    +0.000 NA
ATOM      3  N   UNL     1       2.192   6.563  19.789  0.00  0.00    +0.000 N 
ATOM      4  C   UNL     1       2.265   5.275  20.245  0.00  0.00    +0.000 A 
ATOM      5  N   UNL     1       1.531   4.722  21.224  0.00  0.00    +0.000 NA
ATOM      6  C   UNL     1       1.862   3.434  21.415  0.00  0.00    +0.000 A 
ATOM      7  N   UNL     1       2.806   2.715  20.781  0.00  0.00    +0.000 NA
ATOM      8  C   UNL     1       3.525   3.314  19.805  0.00  0.00    +0.000 A 
ATOM      9  N   UNL     1       4.499   2.531  19.201  0.00  0.00    +0.000 N 
ATOM     10  C   UNL     1       3.251   4.655  19.494  0.00  0.00    +0.000 A 
ATOM     11  H   UNL     1       4.672   1.688  19.734  0.00  0.00    +0.000 HD
ATOM     12  H   UNL     1       5.321   3.027  18.880  0.00  0.00    +0.000 HD
ENDROOT
BRANCH   1  15
ATOM     13  C   UNL     1       6.852   6.308  16.619  0.00  0.00    +0.000 A 
ATOM     14  C   UNL     1       5.826   6.426  17.565  0.00  0.00    +0.000 A 
ATOM     15  C   UNL     1       4.729   5.556  17.550  0.00  0.00    +0.000 A 
ATOM     16  C   UNL     1       4.643   4.604  16.532  0.00  0.00    +0.000 A 
ATOM     17  C   UNL     1       5.658   4.482  15.581  0.00  0.00    +0.000 A 
ATOM     18  C   UNL     1       6.786   5.304  15.630  0.00  0.00    +0.000 A 
BRANCH  18  19
ATOM     19  N   UNL     1       7.710   5.245  14.572  0.00  0.00    +0.000 N 
ATOM     20  H   UNL     1       8.645   4.971  14.839  0.00  0.00    +0.000 HD
ATOM     21  H   UNL     1       7.673   6.083  13.993  0.00  0.00    +0.000 HD
ENDBRANCH  18  19
BRANCH  13  23
ATOM     22  C   UNL     1       7.915   8.211  17.527  0.00  0.00    +0.000 C 
ATOM     23  O   UNL     1       7.953   7.133  16.594  0.00  0.00    +0.000 OA
ENDBRANCH  13  23
ENDBRANCH   1  15
BRANCH   3  24
ATOM     24  C   UNL     1       1.285   7.592  20.264  0.00  0.00    +0.000 C 
ATOM     25  C   UNL     1       1.631   8.151  21.645  0.00  0.00    +0.000 C 
ATOM     26  C   UNL     1       0.831   9.445  21.725  0.00  0.00    +0.000 C 
ATOM     27  C   UNL     1       0.702   9.952  20.290  0.00  0.00    +0.000 C 
ATOM     28  C   UNL     1       1.238   8.844  19.384  0.00  0.00    +0.000 C 
ENDBRANCH   3  24
TORSDOF 4
ENDMDL
MODEL 2
REMARK VINA RESULT:      -7.7      2.359      6.102
REMARK  Name = 
REMARK  5 active torsions:
REMARK  status: ('A' for Active; 'I' for Inactive)
REMARK    1  A    between atoms: C_1  and  O_2
REMARK    2  A    between atoms: O_2  and  C_3
REMARK    3  A    between atoms: C_5  and  C_6
REMARK    4  A    between atoms: N_8  and  C_9
REMARK    5  A    between atoms: C_23  and  N_24
REMARK                            x       y       z     vdW  Elec       q    Type
REMARK                         _______ _______ _______ _____ _____    ______ ____
ROOT
ATOM      1  C   UNL     1       2.994   5.662  18.554  0.00  0.00    +0.000 A 
ATOM      2  N   UNL     1       4.018   5.785  17.685  0.00  0.00    +0.000 NA
ATOM      3  N   UNL     1       4.359   4.513  17.389  0.00  0.00    +0.000 N 
ATOM      4  C   UNL     1       3.557   3.582  17.990  0.00  0.00    +0.000 A 
ATOM      5  N   UNL     1       3.637   2.247  17.867  0.00  0.00    +0.000 NA
ATOM      6  C   UNL     1       2.692   1.631  18.596  0.00  0.00    +0.000 A 
ATOM      7  N   UNL     1       1.733   2.190  19.357  0.00  0.00    +0.000 NA
ATOM      8  C   UNL     1       1.686   3.538  19.447  0.00  0.00    +0.000 A 
ATOM      9  N   UNL     1       0.663   4.059  20.226  0.00  0.00    +0.000 N 
ATOM     10  C   UNL     1       2.642   4.293  18.749  0.00  0.00    +0.000 A 
ATOM     11  H   UNL     1      -0.031   3.353  20.438  0.00  0.00    +0.000 HD
ATOM     12  H   UNL     1       0.302   4.958  19.930  0.00  0.00    +0.000 HD
ENDROOT
BRANCH   1  15
ATOM     13  C   UNL     1       1.483   9.104  18.836  0.00  0.00    +0.000 A 
ATOM     14  C   UNL     1       2.133   7.974  18.324  0.00  0.00    +0.000 A 
ATOM     15  C   UNL     1       2.370   6.854  19.130  0.00  0.00    +0.000 A 
ATOM     16  C   UNL     1       2.003   6.907  20.476  0.00  0.00    +0.000 A 
ATOM     17  C   UNL     1       1.360   8.031  20.997  0.00  0.00    +0.000 A 
ATOM     18  C   UNL     1       1.062   9.125  20.182  0.00  0.00    +0.000 A 
BRANCH  18  19
ATOM     19  N   UNL     1       0.547  10.289  20.779  0.00  0.00    +0.000 N 
ATOM     20  H   UNL     1       1.013  10.572  21.631  0.00  0.00    +0.000 HD
ATOM     21  H   UNL     1      -0.469  10.257  20.854  0.00  0.00    +0.000 HD
ENDBRANCH  18  19
BRANCH  13  23
ATOM     22  C   UNL     1       2.313  11.139  17.971  0.00  0.00    +0.000 C 
ATOM     23  O   UNL     1       1.221  10.228  18.086  0.00  0.00    +0.000 OA
ENDBRANCH  13  23
ENDBRANCH   1  15
BRANCH   3  24
ATOM     24  C   UNL     1       5.480   4.242  16.507  0.00  0.00    +0.000 C 
ATOM     25  C   UNL     1       5.137   4.289  15.017  0.00  0.00    +0.000 C 
ATOM     26  C   UNL     1       6.496   4.392  14.334  0.00  0.00    +0.000 C 
ATOM     27  C   UNL     1       7.408   5.123  15.318  0.00  0.00    +0.000 C 
ATOM     28  C   UNL     1       6.634   5.239  16.630  0.00  0.00    +0.000 C 
ENDBRANCH   3  24
TORSDOF 4
ENDMDL
MODEL 3
REMARK VINA RESULT:      -7.7      2.467      6.281
REMARK  Name = 
REMARK  5 active torsions:
REMARK  status: ('A' for Active; 'I' for Inactive)
REMARK    1  A    between atoms: C_1  and  O_2
REMARK    2  A    between atoms: O_2  and  C_3
REMARK    3  A    between atoms: C_5  and  C_6
REMARK    4  A    between atoms: N_8  and  C_9
REMARK    5  A    between atoms: C_23  and  N_24
REMARK                            x       y       z     vdW  Elec       q    Type
REMARK                         _______ _______ _______ _____ _____    ______ ____
ROOT
ATOM      1  C   UNL     1       3.025   5.993  18.297  0.00  0.00    +0.000 A 
ATOM      2  N   UNL     1       4.016   5.998  17.382  0.00  0.00    +0.000 NA
ATOM      3  N   UNL     1       4.415   4.711  17.314  0.00  0.00    +0.000 N 
ATOM      4  C   UNL     1       3.681   3.872  18.108  0.00  0.00    +0.000 A 
ATOM      5  N   UNL     1       3.828   2.543  18.232  0.00  0.00    +0.000 NA
ATOM      6  C   UNL     1       2.939   2.031  19.099  0.00  0.00    +0.000 A 
ATOM      7  N   UNL     1       1.974   2.677  19.779  0.00  0.00    +0.000 NA
ATOM      8  C   UNL     1       1.859   4.015  19.619  0.00  0.00    +0.000 A 
ATOM      9  N   UNL     1       0.833   4.625  20.327  0.00  0.00    +0.000 N 
ATOM     10  C   UNL     1       2.752   4.670  18.756  0.00  0.00    +0.000 A 
ATOM     11  H   UNL     1       0.184   3.940  20.693  0.00  0.00    +0.000 HD
ATOM     12  H   UNL     1       0.417   5.434  19.884  0.00  0.00    +0.000 HD
ENDROOT
BRANCH   1  15
ATOM     13  C   UNL     1       1.423   8.688  20.389  0.00  0.00    +0.000 A 
ATOM     14  C   UNL     1       2.010   7.477  20.001  0.00  0.00    +0.000 A 
ATOM     15  C   UNL     1       2.357   7.241  18.665  0.00  0.00    +0.000 A 
ATOM     16  C   UNL     1       2.047   8.212  17.711  0.00  0.00    +0.000 A 
ATOM     17  C   UNL     1       1.457   9.420  18.087  0.00  0.00    +0.000 A 
ATOM     18  C   UNL     1       1.170   9.688  19.427  0.00  0.00    +0.000 A 
BRANCH  18  19
ATOM     19  N   UNL     1       0.446  10.852  19.741  0.00  0.00    +0.000 N 
ATOM     20  H   UNL     1      -0.289  10.724  20.423  0.00  0.00    +0.000 HD
ATOM     21  H   UNL     1       0.150  11.350  18.902  0.00  0.00    +0.000 HD
ENDBRANCH  18  19
BRANCH  13  23
ATOM     22  C   UNL     1      -0.252   8.575  22.049  0.00  0.00    +0.000 C 
ATOM     23  O   UNL     1       1.069   8.972  21.689  0.00  0.00    +0.000 OA
ENDBRANCH  13  23
ENDBRANCH   1  15
BRANCH   3  24
ATOM     24  C   UNL     1       5.522   4.331  16.455  0.00  0.00    +0.000 C 
ATOM     25  C   UNL     1       5.167   4.241  14.969  0.00  0.00    +0.000 C 
ATOM     26  C   UNL     1       6.522   4.249  14.271  0.00  0.00    +0.000 C 
ATOM     27  C   UNL     1       7.458   5.051  15.173  0.00  0.00    +0.000 C 
ATOM     28  C   UNL     1       6.697   5.310  16.473  0.00  0.00    +0.000 C 
ENDBRANCH   3  24
TORSDOF 4
ENDMDL
MODEL 4
REMARK VINA RESULT:      -7.3      1.133      1.963
REMARK  Name = 
REMARK  5 active torsions:
REMARK  status: ('A' for Active; 'I' for Inactive)
REMARK    1  A    between atoms: C_1  and  O_2
REMARK    2  A    between atoms: O_2  and  C_3
REMARK    3  A    between atoms: C_5  and  C_6
REMARK    4  A    between atoms: N_8  and  C_9
REMARK    5  A    between atoms: C_23  and  N_24
REMARK                            x       y       z     vdW  Elec       q    Type
REMARK                         _______ _______ _______ _____ _____    ______ ____
ROOT
ATOM      1  C   UNL     1       3.938   5.694  18.411  0.00  0.00    +0.000 A 
ATOM      2  N   UNL     1       3.254   6.849  18.545  0.00  0.00    +0.000 NA
ATOM      3  N   UNL     1       2.364   6.598  19.529  0.00  0.00    +0.000 N 
ATOM      4  C   UNL     1       2.489   5.346  20.068  0.00  0.00    +0.000 A 
ATOM      5  N   UNL     1       1.763   4.823  21.069  0.00  0.00    +0.000 NA
ATOM      6  C   UNL     1       2.150   3.567  21.348  0.00  0.00    +0.000 A 
ATOM      7  N   UNL     1       3.138   2.854  20.776  0.00  0.00    +0.000 NA
ATOM      8  C   UNL     1       3.846   3.424  19.774  0.00  0.00    +0.000 A 
ATOM      9  N   UNL     1       4.867   2.652  19.237  0.00  0.00    +0.000 N 
ATOM     10  C   UNL     1       3.516   4.728  19.374  0.00  0.00    +0.000 A 
ATOM     11  H   UNL     1       5.069   1.853  19.826  0.00  0.00    +0.000 HD
ATOM     12  H   UNL     1       5.670   3.165  18.898  0.00  0.00    +0.000 HD
ENDROOT
BRANCH   1  15
ATOM     13  C   UNL     1       5.865   4.465  15.414  0.00  0.00    +0.000 A 
ATOM     14  C   UNL     1       4.906   4.565  16.430  0.00  0.00    +0.000 A 
ATOM     15  C   UNL     1       4.987   5.572  17.399  0.00  0.00    +0.000 A 
ATOM     16  C   UNL     1       6.080   6.440  17.374  0.00  0.00    +0.000 A 
ATOM     17  C   UNL     1       7.045   6.345  16.369  0.00  0.00    +0.000 A 
ATOM     18  C   UNL     1       6.934   5.384  15.362  0.00  0.00    +0.000 A 
BRANCH  18  19
ATOM     19  N   UNL     1       8.000   5.230  14.458  0.00  0.00    +0.000 N 
ATOM     20  H   UNL     1       7.727   5.147  13.489  0.00  0.00    +0.000 HD
ATOM     21  H   UNL     1       8.655   4.512  14.767  0.00  0.00    +0.000 HD
ENDBRANCH  18  19
BRANCH  13  23
ATOM     22  C   UNL     1       5.186   3.894  13.226  0.00  0.00    +0.000 C 
ATOM     23  O   UNL     1       5.829   3.498  14.435  0.00  0.00    +0.000 OA
ENDBRANCH  13  23
ENDBRANCH   1  15
BRANCH   3  24
ATOM     24  C   UNL     1       1.402   7.611  19.922  0.00  0.00    +0.000 C 
ATOM     25  C   UNL     1       1.577   8.127  21.352  0.00  0.00    +0.000 C 
ATOM     26  C   UNL     1       0.766   9.417  21.375  0.00  0.00    +0.000 C 
ATOM     27  C   UNL     1       0.809   9.968  19.950  0.00  0.00    +0.000 C 
ATOM     28  C   UNL     1       1.455   8.889  19.083  0.00  0.00    +0.000 C 
ENDBRANCH   3  24
TORSDOF 4
ENDMDL
MODEL 5
REMARK VINA RESULT:      -7.3      2.495      6.462
REMARK  Name = 
REMARK  5 active torsions:
REMARK  status: ('A' for Active; 'I' for Inactive)
REMARK    1  A    between atoms: C_1  and  O_2
REMARK    2  A    between atoms: O_2  and  C_3
REMARK    3  A    between atoms: C_5  and  C_6
REMARK    4  A    between atoms: N_8  and  C_9
REMARK    5  A    between atoms: C_23  and  N_24
REMARK                            x       y       z     vdW  Elec       q    Type
REMARK                         _______ _______ _______ _____ _____    ______ ____
ROOT
ATOM      1  C   UNL     1       2.893   6.514  18.467  0.00  0.00    +0.000 A 
ATOM      2  N   UNL     1       3.806   6.870  17.540  0.00  0.00    +0.000 NA
ATOM      3  N   UNL     1       4.303   5.698  17.092  0.00  0.00    +0.000 N 
ATOM      4  C   UNL     1       3.704   4.604  17.655  0.00  0.00    +0.000 A 
ATOM      5  N   UNL     1       3.968   3.314  17.392  0.00  0.00    +0.000 NA
ATOM      6  C   UNL     1       3.194   2.496  18.125  0.00  0.00    +0.000 A 
ATOM      7  N   UNL     1       2.235   2.830  19.009  0.00  0.00    +0.000 NA
ATOM      8  C   UNL     1       1.999   4.142  19.237  0.00  0.00    +0.000 A 
ATOM      9  N   UNL     1       0.984   4.427  20.141  0.00  0.00    +0.000 N 
ATOM     10  C   UNL     1       2.766   5.095  18.549  0.00  0.00    +0.000 A 
ATOM     11  H   UNL     1       0.424   3.606  20.332  0.00  0.00    +0.000 HD
ATOM     12  H   UNL     1       0.470   5.281  19.965  0.00  0.00    +0.000 HD
ENDROOT
BRANCH   1  15
ATOM     13  C   UNL     1       0.832   9.585  19.195  0.00  0.00    +0.000 A 
ATOM     14  C   UNL     1       1.594   8.623  18.519  0.00  0.00    +0.000 A 
ATOM     15  C   UNL     1       2.155   7.538  19.205  0.00  0.00    +0.000 A 
ATOM     16  C   UNL     1       1.995   7.466  20.591  0.00  0.00    +0.000 A 
ATOM     17  C   UNL     1       1.242   8.423  21.273  0.00  0.00    +0.000 A 
ATOM     18  C   UNL     1       0.625   9.471  20.585  0.00  0.00    +0.000 A 
BRANCH  18  19
ATOM     19  N   UNL     1       0.002  10.489  21.327  0.00  0.00    +0.000 N 
ATOM     20  H   UNL     1       0.590  10.932  22.019  0.00  0.00    +0.000 HD
ATOM     21  H   UNL     1      -0.906  10.194  21.684  0.00  0.00    +0.000 HD
ENDBRANCH  18  19
BRANCH  13  23
ATOM     22  C   UNL     1      -0.988  10.393  17.926  0.00  0.00    +0.000 C 
ATOM     23  O   UNL     1       0.256  10.666  18.567  0.00  0.00    +0.000 OA
ENDBRANCH  13  23
ENDBRANCH   1  15
BRANCH   3  24
ATOM     24  C   UNL     1       5.367   5.682  16.105  0.00  0.00    +0.000 C 
ATOM     25  C   UNL     1       6.709   5.168  16.631  0.00  0.00    +0.000 C 
ATOM     26  C   UNL     1       7.501   4.859  15.366  0.00  0.00    +0.000 C 
ATOM     27  C   UNL     1       6.470   4.478  14.305  0.00  0.00    +0.000 C 
ATOM     28  C   UNL     1       5.095   4.777  14.902  0.00  0.00    +0.000 C 
ENDBRANCH   3  24
TORSDOF 4
ENDMDL
MODEL 6
REMARK VINA RESULT:      -7.0      2.495      6.499
REMARK  Name = 
REMARK  5 active torsions:
REMARK  status: ('A' for Active; 'I' for Inactive)
REMARK    1  A    between atoms: C_1  and  O_2
REMARK    2  A    between atoms: O_2  and  C_3
REMARK    3  A    between atoms: C_5  and  C_6
REMARK    4  A    between atoms: N_8  and  C_9
REMARK    5  A    between atoms: C_23  and  N_24
REMARK                            x       y       z     vdW  Elec       q    Type
REMARK                         _______ _______ _______ _____ _____    ______ ____
ROOT
ATOM      1  C   UNL     1       2.939   7.002  18.292  0.00  0.00    +0.000 A 
ATOM      2  N   UNL     1       3.724   7.147  17.206  0.00  0.00    +0.000 NA
ATOM      3  N   UNL     1       4.401   5.983  17.125  0.00  0.00    +0.000 N 
ATOM      4  C   UNL     1       4.039   5.076  18.083  0.00  0.00    +0.000 A 
ATOM      5  N   UNL     1       4.519   3.831  18.240  0.00  0.00    +0.000 NA
ATOM      6  C   UNL     1       3.944   3.214  19.285  0.00  0.00    +0.000 A 
ATOM      7  N   UNL     1       2.986   3.685  20.106  0.00  0.00    +0.000 NA
ATOM      8  C   UNL     1       2.529   4.942  19.906  0.00  0.00    +0.000 A 
ATOM      9  N   UNL     1       1.526   5.366  20.768  0.00  0.00    +0.000 N 
ATOM     10  C   UNL     1       3.075   5.699  18.859  0.00  0.00    +0.000 A 
ATOM     11  H   UNL     1       1.134   4.588  21.284  0.00  0.00    +0.000 HD
ATOM     12  H   UNL     1       0.858   6.016  20.374  0.00  0.00    +0.000 HD
ENDROOT
BRANCH   1  15
ATOM     13  C   UNL     1       1.013   9.350  20.525  0.00  0.00    +0.000 A 
ATOM     14  C   UNL     1       1.796   8.276  20.084  0.00  0.00    +0.000 A 
ATOM     15  C   UNL     1       2.066   8.095  18.722  0.00  0.00    +0.000 A 
ATOM     16  C   UNL     1       1.486   8.970  17.801  0.00  0.00    +0.000 A 
ATOM     17  C   UNL     1       0.699  10.040  18.231  0.00  0.00    +0.000 A 
ATOM     18  C   UNL     1       0.480  10.264  19.592  0.00  0.00    +0.000 A 
BRANCH  18  19
ATOM     19  N   UNL     1      -0.434  11.262  19.972  0.00  0.00    +0.000 N 
ATOM     20  H   UNL     1      -0.370  11.552  20.938  0.00  0.00    +0.000 HD
ATOM     21  H   UNL     1      -1.381  11.042  19.667  0.00  0.00    +0.000 HD
ENDBRANCH  18  19
BRANCH  13  23
ATOM     22  C   UNL     1      -0.367   8.814  22.365  0.00  0.00    +0.000 C 
ATOM     23  O   UNL     1       0.723   9.576  21.852  0.00  0.00    +0.000 OA
ENDBRANCH  13  23
ENDBRANCH   1  15
BRANCH   3  24
ATOM     24  C   UNL     1       5.399   5.785  16.089  0.00  0.00    +0.000 C 
ATOM     25  C   UNL     1       6.814   5.534  16.614  0.00  0.00    +0.000 C 
ATOM     26  C   UNL     1       7.552   4.961  15.410  0.00  0.00    +0.000 C 
ATOM     27  C   UNL     1       6.499   4.232  14.577  0.00  0.00    +0.000 C 
ATOM     28  C   UNL     1       5.142   4.574  15.190  0.00  0.00    +0.000 C 
ENDBRANCH   3  24
TORSDOF 4
ENDMDL
MODEL 7
REMARK VINA RESULT:      -6.8      1.156      1.214
REMARK  Name = 
REMARK  5 active torsions:
REMARK  status: ('A' for Active; 'I' for Inactive)
REMARK    1  A    between atoms: C_1  and  O_2
REMARK    2  A    between atoms: O_2  and  C_3
REMARK    3  A    between atoms: C_5  and  C_6
REMARK    4  A    between atoms: N_8  and  C_9
REMARK    5  A    between atoms: C_23  and  N_24
REMARK                            x       y       z     vdW  Elec       q    Type
REMARK                         _______ _______ _______ _____ _____    ______ ____
ROOT
ATOM      1  C   UNL     1       3.584   5.665  18.455  0.00  0.00    +0.000 A 
ATOM      2  N   UNL     1       3.078   6.874  18.776  0.00  0.00    +0.000 NA
ATOM      3  N   UNL     1       2.095   6.600  19.660  0.00  0.00    +0.000 N 
ATOM      4  C   UNL     1       1.990   5.270  19.961  0.00  0.00    +0.000 A 
ATOM      5  N   UNL     1       1.127   4.701  20.818  0.00  0.00    +0.000 NA
ATOM      6  C   UNL     1       1.296   3.370  20.873  0.00  0.00    +0.000 A 
ATOM      7  N   UNL     1       2.200   2.619  20.216  0.00  0.00    +0.000 NA
ATOM      8  C   UNL     1       3.054   3.235  19.367  0.00  0.00    +0.000 A 
ATOM      9  N   UNL     1       3.978   2.414  18.735  0.00  0.00    +0.000 N 
ATOM     10  C   UNL     1       2.955   4.625  19.204  0.00  0.00    +0.000 A 
ATOM     11  H   UNL     1       4.015   1.502  19.171  0.00  0.00    +0.000 HD
ATOM     12  H   UNL     1       4.872   2.842  18.528  0.00  0.00    +0.000 HD
ENDROOT
BRANCH   1  15
ATOM     13  C   UNL     1       6.934   4.843  16.934  0.00  0.00    +0.000 A 
ATOM     14  C   UNL     1       5.900   5.013  17.864  0.00  0.00    +0.000 A 
ATOM     15  C   UNL     1       4.668   5.556  17.479  0.00  0.00    +0.000 A 
ATOM     16  C   UNL     1       4.509   5.988  16.160  0.00  0.00    +0.000 A 
ATOM     17  C   UNL     1       5.535   5.827  15.228  0.00  0.00    +0.000 A 
ATOM     18  C   UNL     1       6.742   5.225  15.590  0.00  0.00    +0.000 A 
BRANCH  18  19
ATOM     19  N   UNL     1       7.797   5.217  14.661  0.00  0.00    +0.000 N 
ATOM     20  H   UNL     1       8.637   5.688  14.967  0.00  0.00    +0.000 HD
ATOM     21  H   UNL     1       7.482   5.494  13.731  0.00  0.00    +0.000 HD
ENDBRANCH  18  19
BRANCH  13  23
ATOM     22  C   UNL     1       8.550   4.491  18.620  0.00  0.00    +0.000 C 
ATOM     23  O   UNL     1       8.160   4.309  17.260  0.00  0.00    +0.000 OA
ENDBRANCH  13  23
ENDBRANCH   1  15
BRANCH   3  24
ATOM     24  C   UNL     1       1.276   7.670  20.198  0.00  0.00    +0.000 C 
ATOM     25  C   UNL     1       1.680   8.133  21.599  0.00  0.00    +0.000 C 
ATOM     26  C   UNL     1       0.981   9.478  21.754  0.00  0.00    +0.000 C 
ATOM     27  C   UNL     1       0.874  10.063  20.347  0.00  0.00    +0.000 C 
ATOM     28  C   UNL     1       1.313   8.964  19.381  0.00  0.00    +0.000 C 
ENDBRANCH   3  24
TORSDOF 4
ENDMDL
MODEL 8
REMARK VINA RESULT:      -6.7      2.620      6.210
REMARK  Name = 
REMARK  5 active torsions:
REMARK  status: ('A' for Active; 'I' for Inactive)
REMARK    1  A    between atoms: C_1  and  O_2
REMARK    2  A    between atoms: O_2  and  C_3
REMARK    3  A    between atoms: C_5  and  C_6
REMARK    4  A    between atoms: N_8  and  C_9
REMARK    5  A    between atoms: C_23  and  N_24
REMARK                            x       y       z     vdW  Elec       q    Type
REMARK                         _______ _______ _______ _____ _____    ______ ____
ROOT
ATOM      1  C   UNL     1       2.791   6.165  19.033  0.00  0.00    +0.000 A 
ATOM      2  N   UNL     1       3.963   6.054  18.375  0.00  0.00    +0.000 NA
ATOM      3  N   UNL     1       4.296   4.753  18.503  0.00  0.00    +0.000 N 
ATOM      4  C   UNL     1       3.356   4.014  19.169  0.00  0.00    +0.000 A 
ATOM      5  N   UNL     1       3.399   2.697  19.428  0.00  0.00    +0.000 NA
ATOM      6  C   UNL     1       2.310   2.296  20.103  0.00  0.00    +0.000 A 
ATOM      7  N   UNL     1       1.251   3.033  20.488  0.00  0.00    +0.000 NA
ATOM      8  C   UNL     1       1.248   4.355  20.200  0.00  0.00    +0.000 A 
ATOM      9  N   UNL     1       0.122   5.060  20.601  0.00  0.00    +0.000 N 
ATOM     10  C   UNL     1       2.349   4.898  19.520  0.00  0.00    +0.000 A 
ATOM     11  H   UNL     1      -0.629   4.433  20.860  0.00  0.00    +0.000 HD
ATOM     12  H   UNL     1      -0.137   5.841  20.011  0.00  0.00    +0.000 HD
ENDROOT
BRANCH   1  15
ATOM     13  C   UNL     1       1.110   9.193  20.521  0.00  0.00    +0.000 A 
ATOM     14  C   UNL     1       1.696   7.928  20.386  0.00  0.00    +0.000 A 
ATOM     15  C   UNL     1       2.124   7.463  19.137  0.00  0.00    +0.000 A 
ATOM     16  C   UNL     1       1.897   8.258  18.011  0.00  0.00    +0.000 A 
ATOM     17  C   UNL     1       1.308   9.518  18.135  0.00  0.00    +0.000 A 
ATOM     18  C   UNL     1       0.939  10.015  19.388  0.00  0.00    +0.000 A 
BRANCH  18  19
ATOM     19  N   UNL     1       0.219  11.221  19.449  0.00  0.00    +0.000 N 
ATOM     20  H   UNL     1      -0.362  11.410  18.644  0.00  0.00    +0.000 HD
ATOM     21  H   UNL     1       0.814  12.002  19.723  0.00  0.00    +0.000 HD
ENDBRANCH  18  19
BRANCH  13  23
ATOM     22  C   UNL     1      -0.309   8.910  22.387  0.00  0.00    +0.000 C 
ATOM     23  O   UNL     1       0.678   9.699  21.726  0.00  0.00    +0.000 OA
ENDBRANCH  13  23
ENDBRANCH   1  15
BRANCH   3  24
ATOM     24  C   UNL     1       5.547   4.260  17.957  0.00  0.00    +0.000 C 
ATOM     25  C   UNL     1       5.698   4.455  16.447  0.00  0.00    +0.000 C 
ATOM     26  C   UNL     1       7.190   4.260  16.202  0.00  0.00    +0.000 C 
ATOM     27  C   UNL     1       7.890   4.704  17.484  0.00  0.00    +0.000 C 
ATOM     28  C   UNL     1       6.794   4.945  18.522  0.00  0.00    +0.000 C 
ENDBRANCH   3  24
TORSDOF 4
ENDMDL
MODEL 9
REMARK VINA RESULT:      -6.7      2.484      6.338
REMARK  Name = 
REMARK  5 active torsions:
REMARK  status: ('A' for Active; 'I' for Inactive)
REMARK    1  A    between atoms: C_1  and  O_2
REMARK    2  A    between atoms: O_2  and  C_3
REMARK    3  A    between atoms: C_5  and  C_6
REMARK    4  A    between atoms: N_8  and  C_9
REMARK    5  A    between atoms: C_23  and  N_24
REMARK                            x       y       z     vdW  Elec       q    Type
REMARK                         _______ _______ _______ _____ _____    ______ ____
ROOT
ATOM      1  C   UNL     1       5.531   5.180  18.273  0.00  0.00    +0.000 A 
ATOM      2  N   UNL     1       6.182   6.304  18.634  0.00  0.00    +0.000 NA
ATOM      3  N   UNL     1       6.997   6.568  17.590  0.00  0.00    +0.000 N 
ATOM      4  C   UNL     1       6.851   5.689  16.552  0.00  0.00    +0.000 A 
ATOM      5  N   UNL     1       7.504   5.710  15.378  0.00  0.00    +0.000 NA
ATOM      6  C   UNL     1       7.118   4.697  14.586  0.00  0.00    +0.000 A 
ATOM      7  N   UNL     1       6.190   3.754  14.834  0.00  0.00    +0.000 NA
ATOM      8  C   UNL     1       5.553   3.776  16.026  0.00  0.00    +0.000 A 
ATOM      9  N   UNL     1       4.590   2.794  16.218  0.00  0.00    +0.000 N 
ATOM     10  C   UNL     1       5.892   4.774  16.953  0.00  0.00    +0.000 A 
ATOM     11  H   UNL     1       4.356   2.337  15.345  0.00  0.00    +0.000 HD
ATOM     12  H   UNL     1       3.808   3.058  16.803  0.00  0.00    +0.000 HD
ENDROOT
BRANCH   1  15
ATOM     13  C   UNL     1       2.516   4.728  20.489  0.00  0.00    +0.000 A 
ATOM     14  C   UNL     1       3.485   5.312  19.664  0.00  0.00    +0.000 A 
ATOM     15  C   UNL     1       4.567   4.563  19.183  0.00  0.00    +0.000 A 
ATOM     16  C   UNL     1       4.698   3.235  19.594  0.00  0.00    +0.000 A 
ATOM     17  C   UNL     1       3.739   2.645  20.421  0.00  0.00    +0.000 A 
ATOM     18  C   UNL     1       2.624   3.368  20.850  0.00  0.00    +0.000 A 
BRANCH  18  19
ATOM     19  N   UNL     1       1.764   2.782  21.795  0.00  0.00    +0.000 N 
ATOM     20  H   UNL     1       2.177   2.039  22.341  0.00  0.00    +0.000 HD
ATOM     21  H   UNL     1       0.861   2.545  21.388  0.00  0.00    +0.000 HD
ENDBRANCH  18  19
BRANCH  13  23
ATOM     22  C   UNL     1       1.489   6.831  20.803  0.00  0.00    +0.000 C 
ATOM     23  O   UNL     1       1.432   5.418  20.984  0.00  0.00    +0.000 OA
ENDBRANCH  13  23
ENDBRANCH   1  15
BRANCH   3  24
ATOM     24  C   UNL     1       7.908   7.697  17.639  0.00  0.00    +0.000 C 
ATOM     25  C   UNL     1       7.247   9.055  17.394  0.00  0.00    +0.000 C 
ATOM     26  C   UNL     1       8.277  10.058  17.899  0.00  0.00    +0.000 C 
ATOM     27  C   UNL     1       9.048   9.349  19.011  0.00  0.00    +0.000 C 
ATOM     28  C   UNL     1       8.602   7.887  18.990  0.00  0.00    +0.000 C 
ENDBRANCH   3  24
TORSDOF 4
ENDMDL
