MODEL 1
REMARK VINA RESULT:      -8.2      0.000      0.000
REMARK  Name = 
REMARK  4 active torsions:
REMARK  status: ('A' for Active; 'I' for Inactive)
REMARK    1  A    between atoms: C_2  and  C_4
REMARK    2  A    between atoms: C_5  and  C_6
REMARK    3  A    between atoms: N_23  and  C_24
REMARK    4  A    between atoms: C_24  and  C_25
REMARK                            x       y       z     vdW  Elec       q    Type
REMARK                         _______ _______ _______ _____ _____    ______ ____
ROOT
ATOM      1  C   UNL     1      -1.113  12.280  21.011  0.00  0.00    +0.000 A 
ATOM      2  C   UNL     1      -2.427  12.517  20.605  0.00  0.00    +0.000 A 
ATOM      3  C   UNL     1      -2.562  11.839  19.364  0.00  0.00    +0.000 A 
ATOM      4  C   UNL     1      -3.648  11.780  18.521  0.00  0.00    +0.000 A 
ATOM      5  O   UNL     1      -4.803  12.390  18.738  0.00  0.00    +0.000 OA
ATOM      6  C   UNL     1      -5.580  12.110  17.649  0.00  0.00    +0.000 A 
ATOM      7  C   UNL     1      -4.900  11.306  16.756  0.00  0.00    +0.000 A 
ATOM      8  C   UNL     1      -3.627  11.076  17.330  0.00  0.00    +0.000 A 
ATOM      9  C   UNL     1      -2.446  10.381  17.016  0.00  0.00    +0.000 A 
ATOM     10  F   UNL     1      -2.373   9.664  15.884  0.00  0.00    +0.000 F 
ATOM     11  C   UNL     1      -1.314  10.416  17.864  0.00  0.00    +0.000 A 
ATOM     12  C   UNL     1      -1.389  11.181  19.042  0.00  0.00    +0.000 A 
ATOM     13  N   UNL     1      -0.499  11.478  20.054  0.00  0.00    +0.000 N 
ENDROOT
BRANCH   2  14
ATOM     14  C   UNL     1      -3.411  13.246  21.336  0.00  0.00    +0.000 A 
ATOM     15  C   UNL     1      -4.337  12.638  22.110  0.00  0.00    +0.000 A 
ATOM     16  C   UNL     1      -5.314  13.383  22.875  0.00  0.00    +0.000 A 
ATOM     17  C   UNL     1      -5.310  14.723  22.827  0.00  0.00    +0.000 A 
ATOM     18  N   UNL     1      -4.402  15.377  22.045  0.00  0.00    +0.000 N 
ATOM     19  C   UNL     1      -3.440  14.756  21.273  0.00  0.00    +0.000 A 
ATOM     20  O   UNL     1      -2.676  15.417  20.575  0.00  0.00    +0.000 OA
ATOM     21  H   UNL     1      -4.396  16.387  21.999  0.00  0.00    +0.000 HD
ENDBRANCH   2  14
BRANCH   1  23
ATOM     22  O   UNL     1       0.378  13.791  22.050  0.00  0.00    +0.000 OA
ATOM     23  C   UNL     1      -0.431  12.814  22.188  0.00  0.00    +0.000 C 
ATOM     24  O   UNL     1      -0.738  12.460  23.369  0.00  0.00    +0.000 OA
ENDBRANCH   1  23
BRANCH  13  25
ATOM     25  C   UNL     1       0.931  11.149  19.999  0.00  0.00    +0.000 C 
BRANCH  25  26
ATOM     26  C   UNL     1       1.228   9.667  19.895  0.00  0.00    +0.000 A 
ATOM     27  C   UNL     1       1.830   9.150  18.727  0.00  0.00    +0.000 A 
ATOM     28  C   UNL     1       2.238   7.817  18.740  0.00  0.00    +0.000 A 
ATOM     29  N   UNL     1       2.861   7.040  17.800  0.00  0.00    +0.000 N 
ATOM     30  C   UNL     1       3.081   5.811  18.354  0.00  0.00    +0.000 A 
ATOM     31  N   UNL     1       2.609   5.739  19.578  0.00  0.00    +0.000 NA
ATOM     32  C   UNL     1       2.075   6.979  19.833  0.00  0.00    +0.000 A 
ATOM     33  C   UNL     1       1.441   7.468  20.980  0.00  0.00    +0.000 A 
ATOM     34  C   UNL     1       1.026   8.809  20.998  0.00  0.00    +0.000 A 
ATOM     35 CL   UNL     1       0.274   9.360  22.461  0.00  0.00    +0.000 Cl
ATOM     36  H   UNL     1       3.123   7.332  16.870  0.00  0.00    +0.000 HD
ENDBRANCH  25  26
ENDBRANCH  13  25
TORSDOF 4
ENDMDL
MODEL 2
REMARK VINA RESULT:      -8.2      0.871      1.212
REMARK  Name = 
REMARK  4 active torsions:
REMARK  status: ('A' for Active; 'I' for Inactive)
REMARK    1  A    between atoms: C_2  and  C_4
REMARK    2  A    between atoms: C_5  and  C_6
REMARK    3  A    between atoms: N_23  and  C_24
REMARK    4  A    between atoms: C_24  and  C_25
REMARK                            x       y       z     vdW  Elec       q    Type
REMARK                         _______ _______ _______ _____ _____    ______ ____
ROOT
ATOM      1  C   UNL     1      -1.083  12.766  20.927  0.00  0.00    +0.000 A 
ATOM      2  C   UNL     1      -2.441  12.951  20.663  0.00  0.00    +0.000 A 
ATOM      3  C   UNL     1      -2.722  12.114  19.550  0.00  0.00    +0.000 A 
ATOM      4  C   UNL     1      -3.905  11.946  18.866  0.00  0.00    +0.000 A 
ATOM      5  O   UNL     1      -5.031  12.583  19.144  0.00  0.00    +0.000 OA
ATOM      6  C   UNL     1      -5.935  12.164  18.210  0.00  0.00    +0.000 A 
ATOM      7  C   UNL     1      -5.362  11.245  17.353  0.00  0.00    +0.000 A 
ATOM      8  C   UNL     1      -4.024  11.090  17.786  0.00  0.00    +0.000 A 
ATOM      9  C   UNL     1      -2.882  10.355  17.420  0.00  0.00    +0.000 A 
ATOM     10  F   UNL     1      -2.943   9.494  16.392  0.00  0.00    +0.000 F 
ATOM     11  C   UNL     1      -1.653  10.500  18.105  0.00  0.00    +0.000 A 
ATOM     12  C   UNL     1      -1.590  11.415  19.171  0.00  0.00    +0.000 A 
ATOM     13  N   UNL     1      -0.583  11.842  20.014  0.00  0.00    +0.000 N 
ENDROOT
BRANCH   2  14
ATOM     14  C   UNL     1      -3.335  13.774  21.409  0.00  0.00    +0.000 A 
ATOM     15  C   UNL     1      -3.625  15.044  21.049  0.00  0.00    +0.000 A 
ATOM     16  C   UNL     1      -4.558  15.864  21.791  0.00  0.00    +0.000 A 
ATOM     17  C   UNL     1      -5.165  15.360  22.874  0.00  0.00    +0.000 A 
ATOM     18  N   UNL     1      -4.890  14.086  23.282  0.00  0.00    +0.000 N 
ATOM     19  C   UNL     1      -4.010  13.232  22.649  0.00  0.00    +0.000 A 
ATOM     20  O   UNL     1      -3.796  12.109  23.096  0.00  0.00    +0.000 OA
ATOM     21  H   UNL     1      -5.340  13.700  24.102  0.00  0.00    +0.000 HD
ENDBRANCH   2  14
BRANCH   1  23
ATOM     22  O   UNL     1       0.438  14.454  21.575  0.00  0.00    +0.000 OA
ATOM     23  C   UNL     1      -0.266  13.450  21.926  0.00  0.00    +0.000 C 
ATOM     24  O   UNL     1      -0.357  13.195  23.167  0.00  0.00    +0.000 OA
ENDBRANCH   1  23
BRANCH  13  25
ATOM     25  C   UNL     1       0.832  11.504  19.822  0.00  0.00    +0.000 C 
BRANCH  25  26
ATOM     26  C   UNL     1       1.125  10.018  19.814  0.00  0.00    +0.000 A 
ATOM     27  C   UNL     1       1.701   9.420  18.672  0.00  0.00    +0.000 A 
ATOM     28  C   UNL     1       2.107   8.090  18.768  0.00  0.00    +0.000 A 
ATOM     29  N   UNL     1       2.709   7.249  17.870  0.00  0.00    +0.000 N 
ATOM     30  C   UNL     1       2.940   6.060  18.502  0.00  0.00    +0.000 A 
ATOM     31  N   UNL     1       2.493   6.073  19.738  0.00  0.00    +0.000 NA
ATOM     32  C   UNL     1       1.966   7.328  19.918  0.00  0.00    +0.000 A 
ATOM     33  C   UNL     1       1.358   7.897  21.042  0.00  0.00    +0.000 A 
ATOM     34  C   UNL     1       0.945   9.238  20.977  0.00  0.00    +0.000 A 
ATOM     35 CL   UNL     1       0.224   9.889  22.414  0.00  0.00    +0.000 Cl
ATOM     36  H   UNL     1       2.952   7.476  16.917  0.00  0.00    +0.000 HD
ENDBRANCH  25  26
ENDBRANCH  13  25
TORSDOF 4
ENDMDL
MODEL 3
REMARK VINA RESULT:      -8.1      1.530      2.027
REMARK  Name = 
REMARK  4 active torsions:
REMARK  status: ('A' for Active; 'I' for Inactive)
REMARK    1  A    between atoms: C_2  and  C_4
REMARK    2  A    between atoms: C_5  and  C_6
REMARK    3  A    between atoms: N_23  and  C_24
REMARK    4  A    between atoms: C_24  and  C_25
REMARK                            x       y       z     vdW  Elec       q    Type
REMARK                         _______ _______ _______ _____ _____    ______ ____
ROOT
ATOM      1  C   UNL     1      -2.160  13.373  21.465  0.00  0.00    +0.000 A 
ATOM      2  C   UNL     1      -3.545  13.373  21.295  0.00  0.00    +0.000 A 
ATOM      3  C   UNL     1      -3.777  12.596  20.128  0.00  0.00    +0.000 A 
ATOM      4  C   UNL     1      -4.967  12.309  19.500  0.00  0.00    +0.000 A 
ATOM      5  O   UNL     1      -6.152  12.745  19.897  0.00  0.00    +0.000 OA
ATOM      6  C   UNL     1      -7.048  12.271  18.980  0.00  0.00    +0.000 A 
ATOM      7  C   UNL     1      -6.408  11.522  18.013  0.00  0.00    +0.000 A 
ATOM      8  C   UNL     1      -5.035  11.535  18.355  0.00  0.00    +0.000 A 
ATOM      9  C   UNL     1      -3.827  11.012  17.860  0.00  0.00    +0.000 A 
ATOM     10  F   UNL     1      -3.832  10.237  16.765  0.00  0.00    +0.000 F 
ATOM     11  C   UNL     1      -2.588  11.284  18.487  0.00  0.00    +0.000 A 
ATOM     12  C   UNL     1      -2.585  12.108  19.626  0.00  0.00    +0.000 A 
ATOM     13  N   UNL     1      -1.595  12.612  20.446  0.00  0.00    +0.000 N 
ENDROOT
BRANCH   2  14
ATOM     14  C   UNL     1      -4.495  13.989  22.161  0.00  0.00    +0.000 A 
ATOM     15  C   UNL     1      -5.011  15.215  21.919  0.00  0.00    +0.000 A 
ATOM     16  C   UNL     1      -5.999  15.822  22.784  0.00  0.00    +0.000 A 
ATOM     17  C   UNL     1      -6.430  15.157  23.865  0.00  0.00    +0.000 A 
ATOM     18  N   UNL     1      -5.925  13.922  24.155  0.00  0.00    +0.000 N 
ATOM     19  C   UNL     1      -4.974  13.266  23.399  0.00  0.00    +0.000 A 
ATOM     20  O   UNL     1      -4.550  12.167  23.745  0.00  0.00    +0.000 OA
ATOM     21  H   UNL     1      -6.241  13.416  24.972  0.00  0.00    +0.000 HD
ENDBRANCH   2  14
BRANCH   1  23
ATOM     22  O   UNL     1      -0.950  15.260  22.214  0.00  0.00    +0.000 OA
ATOM     23  C   UNL     1      -1.383  14.088  22.475  0.00  0.00    +0.000 C 
ATOM     24  O   UNL     1      -1.266  13.665  23.667  0.00  0.00    +0.000 OA
ENDBRANCH   1  23
BRANCH  13  25
ATOM     25  C   UNL     1      -0.162  12.507  20.146  0.00  0.00    +0.000 C 
BRANCH  25  26
ATOM     26  C   UNL     1       0.339  11.087  19.974  0.00  0.00    +0.000 A 
ATOM     27  C   UNL     1       0.904  10.684  18.744  0.00  0.00    +0.000 A 
ATOM     28  C   UNL     1       1.502   9.427  18.683  0.00  0.00    +0.000 A 
ATOM     29  N   UNL     1       2.147   8.767  17.671  0.00  0.00    +0.000 N 
ATOM     30  C   UNL     1       2.593   7.576  18.167  0.00  0.00    +0.000 A 
ATOM     31  N   UNL     1       2.247   7.413  19.425  0.00  0.00    +0.000 NA
ATOM     32  C   UNL     1       1.562   8.556  19.761  0.00  0.00    +0.000 A 
ATOM     33  C   UNL     1       0.968   8.926  20.972  0.00  0.00    +0.000 A 
ATOM     34  C   UNL     1       0.363  10.191  21.064  0.00  0.00    +0.000 A 
ATOM     35 CL   UNL     1      -0.328  10.599  22.602  0.00  0.00    +0.000 Cl
ATOM     36  H   UNL     1       2.279   9.110  16.731  0.00  0.00    +0.000 HD
ENDBRANCH  25  26
ENDBRANCH  13  25
TORSDOF 4
ENDMDL
MODEL 4
REMARK VINA RESULT:      -7.7      2.274      3.346
REMARK  Name = 
REMARK  4 active torsions:
REMARK  status: ('A' for Active; 'I' for Inactive)
REMARK    1  A    between atoms: C_2  and  C_4
REMARK    2  A    between atoms: C_5  and  C_6
REMARK    3  A    between atoms: N_23  and  C_24
REMARK    4  A    between atoms: C_24  and  C_25
REMARK                            x       y       z     vdW  Elec       q    Type
REMARK                         _______ _______ _______ _____ _____    ______ ____
ROOT
ATOM      1  C   UNL     1      -3.194  13.829  22.087  0.00  0.00    +0.000 A 
ATOM      2  C   UNL     1      -4.528  13.540  21.802  0.00  0.00    +0.000 A 
ATOM      3  C   UNL     1      -4.500  12.818  20.578  0.00  0.00    +0.000 A 
ATOM      4  C   UNL     1      -5.549  12.326  19.836  0.00  0.00    +0.000 A 
ATOM      5  O   UNL     1      -6.826  12.463  20.156  0.00  0.00    +0.000 OA
ATOM      6  C   UNL     1      -7.528  11.874  19.142  0.00  0.00    +0.000 A 
ATOM      7  C   UNL     1      -6.672  11.355  18.191  0.00  0.00    +0.000 A 
ATOM      8  C   UNL     1      -5.363  11.642  18.648  0.00  0.00    +0.000 A 
ATOM      9  C   UNL     1      -4.038  11.432  18.228  0.00  0.00    +0.000 A 
ATOM     10  F   UNL     1      -3.794  10.757  17.094  0.00  0.00    +0.000 F 
ATOM     11  C   UNL     1      -2.937  11.920  18.971  0.00  0.00    +0.000 A 
ATOM     12  C   UNL     1      -3.197  12.640  20.151  0.00  0.00    +0.000 A 
ATOM     13  N   UNL     1      -2.404  13.285  21.078  0.00  0.00    +0.000 N 
ENDROOT
BRANCH   2  14
ATOM     14  C   UNL     1      -5.650  13.868  22.618  0.00  0.00    +0.000 A 
ATOM     15  C   UNL     1      -6.439  14.938  22.371  0.00  0.00    +0.000 A 
ATOM     16  C   UNL     1      -7.596  15.249  23.183  0.00  0.00    +0.000 A 
ATOM     17  C   UNL     1      -7.909  14.457  24.218  0.00  0.00    +0.000 A 
ATOM     18  N   UNL     1      -7.130  13.375  24.513  0.00  0.00    +0.000 N 
ATOM     19  C   UNL     1      -6.005  13.003  23.806  0.00  0.00    +0.000 A 
ATOM     20  O   UNL     1      -5.341  12.030  24.153  0.00  0.00    +0.000 OA
ATOM     21  H   UNL     1      -7.357  12.776  25.296  0.00  0.00    +0.000 HD
ENDBRANCH   2  14
BRANCH   1  23
ATOM     22  O   UNL     1      -2.747  15.892  23.149  0.00  0.00    +0.000 OA
ATOM     23  C   UNL     1      -2.668  14.620  23.197  0.00  0.00    +0.000 C 
ATOM     24  O   UNL     1      -2.291  14.091  24.289  0.00  0.00    +0.000 OA
ENDBRANCH   1  23
BRANCH  13  25
ATOM     25  C   UNL     1      -0.966  13.517  20.894  0.00  0.00    +0.000 C 
BRANCH  25  26
ATOM     26  C   UNL     1      -0.154  12.260  20.659  0.00  0.00    +0.000 A 
ATOM     27  C   UNL     1      -0.203  11.205  21.597  0.00  0.00    +0.000 A 
ATOM     28  C   UNL     1       0.423  10.006  21.260  0.00  0.00    +0.000 A 
ATOM     29  N   UNL     1       0.532   8.812  21.923  0.00  0.00    +0.000 N 
ATOM     30  C   UNL     1       1.208   7.945  21.113  0.00  0.00    +0.000 A 
ATOM     31  N   UNL     1       1.570   8.517  19.985  0.00  0.00    +0.000 NA
ATOM     32  C   UNL     1       1.093   9.802  20.063  0.00  0.00    +0.000 A 
ATOM     33  C   UNL     1       1.185  10.854  19.146  0.00  0.00    +0.000 A 
ATOM     34  C   UNL     1       0.558  12.072  19.455  0.00  0.00    +0.000 A 
ATOM     35 CL   UNL     1       0.686  13.325  18.262  0.00  0.00    +0.000 Cl
ATOM     36  H   UNL     1       0.164   8.608  22.841  0.00  0.00    +0.000 HD
ENDBRANCH  25  26
ENDBRANCH  13  25
TORSDOF 4
ENDMDL
MODEL 5
REMARK VINA RESULT:      -7.6      1.588      2.128
REMARK  Name = 
REMARK  4 active torsions:
REMARK  status: ('A' for Active; 'I' for Inactive)
REMARK    1  A    between atoms: C_2  and  C_4
REMARK    2  A    between atoms: C_5  and  C_6
REMARK    3  A    between atoms: N_23  and  C_24
REMARK    4  A    between atoms: C_24  and  C_25
REMARK                            x       y       z     vdW  Elec       q    Type
REMARK                         _______ _______ _______ _____ _____    ______ ____
ROOT
ATOM      1  C   UNL     1      -2.806  13.278  21.742  0.00  0.00    +0.000 A 
ATOM      2  C   UNL     1      -4.167  13.261  21.434  0.00  0.00    +0.000 A 
ATOM      3  C   UNL     1      -4.251  12.648  20.155  0.00  0.00    +0.000 A 
ATOM      4  C   UNL     1      -5.361  12.416  19.375  0.00  0.00    +0.000 A 
ATOM      5  O   UNL     1      -6.597  12.758  19.704  0.00  0.00    +0.000 OA
ATOM      6  C   UNL     1      -7.378  12.391  18.645  0.00  0.00    +0.000 A 
ATOM      7  C   UNL     1      -6.616  11.802  17.656  0.00  0.00    +0.000 A 
ATOM      8  C   UNL     1      -5.284  11.808  18.135  0.00  0.00    +0.000 A 
ATOM      9  C   UNL     1      -4.013  11.394  17.700  0.00  0.00    +0.000 A 
ATOM     10  F   UNL     1      -3.878  10.780  16.514  0.00  0.00    +0.000 F 
ATOM     11  C   UNL     1      -2.853  11.612  18.480  0.00  0.00    +0.000 A 
ATOM     12  C   UNL     1      -2.996  12.269  19.715  0.00  0.00    +0.000 A 
ATOM     13  N   UNL     1      -2.113  12.682  20.692  0.00  0.00    +0.000 N 
ENDROOT
BRANCH   2  14
ATOM     14  C   UNL     1      -5.222  13.722  22.274  0.00  0.00    +0.000 A 
ATOM     15  C   UNL     1      -5.880  12.906  23.127  0.00  0.00    +0.000 A 
ATOM     16  C   UNL     1      -6.929  13.385  24.001  0.00  0.00    +0.000 A 
ATOM     17  C   UNL     1      -7.269  14.681  23.977  0.00  0.00    +0.000 A 
ATOM     18  N   UNL     1      -6.641  15.538  23.119  0.00  0.00    +0.000 N 
ATOM     19  C   UNL     1      -5.639  15.175  22.243  0.00  0.00    +0.000 A 
ATOM     20  O   UNL     1      -5.143  16.003  21.483  0.00  0.00    +0.000 OA
ATOM     21  H   UNL     1      -6.896  16.516  23.092  0.00  0.00    +0.000 HD
ENDBRANCH   2  14
BRANCH   1  23
ATOM     22  O   UNL     1      -1.736  15.069  22.853  0.00  0.00    +0.000 OA
ATOM     23  C   UNL     1      -2.163  13.868  22.914  0.00  0.00    +0.000 C 
ATOM     24  O   UNL     1      -2.163  13.296  24.048  0.00  0.00    +0.000 OA
ENDBRANCH   1  23
BRANCH  13  25
ATOM     25  C   UNL     1      -0.654  12.662  20.529  0.00  0.00    +0.000 C 
BRANCH  25  26
ATOM     26  C   UNL     1      -0.073  11.288  20.268  0.00  0.00    +0.000 A 
ATOM     27  C   UNL     1       0.502  10.993  19.012  0.00  0.00    +0.000 A 
ATOM     28  C   UNL     1       1.172   9.779  18.872  0.00  0.00    +0.000 A 
ATOM     29  N   UNL     1       1.844   9.219  17.817  0.00  0.00    +0.000 N 
ATOM     30  C   UNL     1       2.364   8.029  18.238  0.00  0.00    +0.000 A 
ATOM     31  N   UNL     1       2.041   7.772  19.486  0.00  0.00    +0.000 NA
ATOM     32  C   UNL     1       1.293   8.850  19.895  0.00  0.00    +0.000 A 
ATOM     33  C   UNL     1       0.691   9.111  21.129  0.00  0.00    +0.000 A 
ATOM     34  C   UNL     1       0.015  10.330  21.302  0.00  0.00    +0.000 A 
ATOM     35 CL   UNL     1      -0.684  10.605  22.866  0.00  0.00    +0.000 Cl
ATOM     36  H   UNL     1       1.947   9.625  16.899  0.00  0.00    +0.000 HD
ENDBRANCH  25  26
ENDBRANCH  13  25
TORSDOF 4
ENDMDL
MODEL 6
REMARK VINA RESULT:      -7.6      2.869      7.232
REMARK  Name = 
REMARK  4 active torsions:
REMARK  status: ('A' for Active; 'I' for Inactive)
REMARK    1  A    between atoms: C_2  and  C_4
REMARK    2  A    between atoms: C_5  and  C_6
REMARK    3  A    between atoms: N_23  and  C_24
REMARK    4  A    between atoms: C_24  and  C_25
REMARK                            x       y       z     vdW  Elec       q    Type
REMARK                         _______ _______ _______ _____ _____    ______ ____
ROOT
ATOM      1  C   UNL     1      -1.549  12.122  21.038  0.00  0.00    +0.000 A 
ATOM      2  C   UNL     1      -1.341  11.745  19.711  0.00  0.00    +0.000 A 
ATOM      3  C   UNL     1      -2.625  11.794  19.103  0.00  0.00    +0.000 A 
ATOM      4  C   UNL     1      -2.987  11.482  17.813  0.00  0.00    +0.000 A 
ATOM      5  O   UNL     1      -2.153  11.050  16.881  0.00  0.00    +0.000 OA
ATOM      6  C   UNL     1      -2.920  10.819  15.774  0.00  0.00    +0.000 A 
ATOM      7  C   UNL     1      -4.243  11.127  16.023  0.00  0.00    +0.000 A 
ATOM      8  C   UNL     1      -4.293  11.574  17.365  0.00  0.00    +0.000 A 
ATOM      9  C   UNL     1      -5.255  12.038  18.280  0.00  0.00    +0.000 A 
ATOM     10  F   UNL     1      -6.535  12.167  17.897  0.00  0.00    +0.000 F 
ATOM     11  C   UNL     1      -4.914  12.373  19.611  0.00  0.00    +0.000 A 
ATOM     12  C   UNL     1      -3.575  12.221  20.013  0.00  0.00    +0.000 A 
ATOM     13  N   UNL     1      -2.903  12.399  21.206  0.00  0.00    +0.000 N 
ENDROOT
BRANCH   2  14
ATOM     14  C   UNL     1      -0.083  11.436  19.114  0.00  0.00    +0.000 A 
ATOM     15  C   UNL     1       0.344  10.166  18.938  0.00  0.00    +0.000 A 
ATOM     16  C   UNL     1       1.607   9.857  18.303  0.00  0.00    +0.000 A 
ATOM     17  C   UNL     1       2.390  10.854  17.868  0.00  0.00    +0.000 A 
ATOM     18  N   UNL     1       2.004  12.152  18.040  0.00  0.00    +0.000 N 
ATOM     19  C   UNL     1       0.826  12.547  18.641  0.00  0.00    +0.000 A 
ATOM     20  O   UNL     1       0.565  13.739  18.783  0.00  0.00    +0.000 OA
ATOM     21  H   UNL     1       2.592  12.910  17.720  0.00  0.00    +0.000 HD
ENDBRANCH   2  14
BRANCH   1  23
ATOM     22  O   UNL     1       0.096  13.238  22.316  0.00  0.00    +0.000 OA
ATOM     23  C   UNL     1      -0.568  12.166  22.118  0.00  0.00    +0.000 C 
ATOM     24  O   UNL     1      -0.468  11.240  22.983  0.00  0.00    +0.000 OA
ENDBRANCH   1  23
BRANCH  13  25
ATOM     25  C   UNL     1      -3.575  12.650  22.486  0.00  0.00    +0.000 C 
BRANCH  25  26
ATOM     26  C   UNL     1      -4.036  14.080  22.682  0.00  0.00    +0.000 A 
ATOM     27  C   UNL     1      -3.123  15.143  22.510  0.00  0.00    +0.000 A 
ATOM     28  C   UNL     1      -3.626  16.443  22.534  0.00  0.00    +0.000 A 
ATOM     29  N   UNL     1      -3.022  17.662  22.376  0.00  0.00    +0.000 N 
ATOM     30  C   UNL     1      -3.994  18.620  22.436  0.00  0.00    +0.000 A 
ATOM     31  N   UNL     1      -5.179  18.096  22.658  0.00  0.00    +0.000 NA
ATOM     32  C   UNL     1      -4.967  16.741  22.726  0.00  0.00    +0.000 A 
ATOM     33  C   UNL     1      -5.873  15.698  22.941  0.00  0.00    +0.000 A 
ATOM     34  C   UNL     1      -5.396  14.377  22.915  0.00  0.00    +0.000 A 
ATOM     35 CL   UNL     1      -6.578  13.130  23.160  0.00  0.00    +0.000 Cl
ATOM     36  H   UNL     1      -2.036  17.819  22.226  0.00  0.00    +0.000 HD
ENDBRANCH  25  26
ENDBRANCH  13  25
TORSDOF 4
ENDMDL
MODEL 7
REMARK VINA RESULT:      -7.6      2.675      7.000
REMARK  Name = 
REMARK  4 active torsions:
REMARK  status: ('A' for Active; 'I' for Inactive)
REMARK    1  A    between atoms: C_2  and  C_4
REMARK    2  A    between atoms: C_5  and  C_6
REMARK    3  A    between atoms: N_23  and  C_24
REMARK    4  A    between atoms: C_24  and  C_25
REMARK                            x       y       z     vdW  Elec       q    Type
REMARK                         _______ _______ _______ _____ _____    ______ ____
ROOT
ATOM      1  C   UNL     1      -2.076  12.147  20.749  0.00  0.00    +0.000 A 
ATOM      2  C   UNL     1      -1.713  11.697  19.479  0.00  0.00    +0.000 A 
ATOM      3  C   UNL     1      -2.907  11.745  18.711  0.00  0.00    +0.000 A 
ATOM      4  C   UNL     1      -3.112  11.375  17.401  0.00  0.00    +0.000 A 
ATOM      5  O   UNL     1      -2.179  10.876  16.606  0.00  0.00    +0.000 OA
ATOM      6  C   UNL     1      -2.806  10.607  15.422  0.00  0.00    +0.000 A 
ATOM      7  C   UNL     1      -4.140  10.959  15.484  0.00  0.00    +0.000 A 
ATOM      8  C   UNL     1      -4.346  11.476  16.785  0.00  0.00    +0.000 A 
ATOM      9  C   UNL     1      -5.402  12.009  17.545  0.00  0.00    +0.000 A 
ATOM     10  F   UNL     1      -6.618  12.149  16.996  0.00  0.00    +0.000 F 
ATOM     11  C   UNL     1      -5.223  12.404  18.892  0.00  0.00    +0.000 A 
ATOM     12  C   UNL     1      -3.951  12.241  19.470  0.00  0.00    +0.000 A 
ATOM     13  N   UNL     1      -3.431  12.465  20.728  0.00  0.00    +0.000 N 
ENDROOT
BRANCH   2  14
ATOM     14  C   UNL     1      -0.399  11.327  19.065  0.00  0.00    +0.000 A 
ATOM     15  C   UNL     1       0.026  10.044  19.058  0.00  0.00    +0.000 A 
ATOM     16  C   UNL     1       1.349   9.671  18.607  0.00  0.00    +0.000 A 
ATOM     17  C   UNL     1       2.192  10.619  18.175  0.00  0.00    +0.000 A 
ATOM     18  N   UNL     1       1.809  11.929  18.180  0.00  0.00    +0.000 N 
ATOM     19  C   UNL     1       0.576  12.385  18.600  0.00  0.00    +0.000 A 
ATOM     20  O   UNL     1       0.319  13.585  18.599  0.00  0.00    +0.000 OA
ATOM     21  H   UNL     1       2.442  12.651  17.861  0.00  0.00    +0.000 HD
ENDBRANCH   2  14
BRANCH   1  23
ATOM     22  O   UNL     1      -1.223  11.241  22.759  0.00  0.00    +0.000 OA
ATOM     23  C   UNL     1      -1.239  12.223  21.944  0.00  0.00    +0.000 C 
ATOM     24  O   UNL     1      -0.391  13.153  22.120  0.00  0.00    +0.000 OA
ENDBRANCH   1  23
BRANCH  13  25
ATOM     25  C   UNL     1      -4.253  12.797  21.899  0.00  0.00    +0.000 C 
BRANCH  25  26
ATOM     26  C   UNL     1      -3.820  14.051  22.631  0.00  0.00    +0.000 A 
ATOM     27  C   UNL     1      -3.555  15.234  21.907  0.00  0.00    +0.000 A 
ATOM     28  C   UNL     1      -3.325  16.402  22.630  0.00  0.00    +0.000 A 
ATOM     29  N   UNL     1      -3.071  17.689  22.236  0.00  0.00    +0.000 N 
ATOM     30  C   UNL     1      -2.978  18.459  23.360  0.00  0.00    +0.000 A 
ATOM     31  N   UNL     1      -3.123  17.743  24.453  0.00  0.00    +0.000 NA
ATOM     32  C   UNL     1      -3.335  16.458  24.016  0.00  0.00    +0.000 A 
ATOM     33  C   UNL     1      -3.553  15.285  24.745  0.00  0.00    +0.000 A 
ATOM     34  C   UNL     1      -3.795  14.093  24.042  0.00  0.00    +0.000 A 
ATOM     35 CL   UNL     1      -4.087  12.680  25.006  0.00  0.00    +0.000 Cl
ATOM     36  H   UNL     1      -2.983  18.010  21.283  0.00  0.00    +0.000 HD
ENDBRANCH  25  26
ENDBRANCH  13  25
TORSDOF 4
ENDMDL
MODEL 8
REMARK VINA RESULT:      -7.5      3.590      5.429
REMARK  Name = 
REMARK  4 active torsions:
REMARK  status: ('A' for Active; 'I' for Inactive)
REMARK    1  A    between atoms: C_2  and  C_4
REMARK    2  A    between atoms: C_5  and  C_6
REMARK    3  A    between atoms: N_23  and  C_24
REMARK    4  A    between atoms: C_24  and  C_25
REMARK                            x       y       z     vdW  Elec       q    Type
REMARK                         _______ _______ _______ _____ _____    ______ ____
ROOT
ATOM      1  C   UNL     1      -1.568  13.868  21.570  0.00  0.00    +0.000 A 
ATOM      2  C   UNL     1      -2.900  13.527  21.330  0.00  0.00    +0.000 A 
ATOM      3  C   UNL     1      -2.879  12.763  20.132  0.00  0.00    +0.000 A 
ATOM      4  C   UNL     1      -3.931  12.212  19.436  0.00  0.00    +0.000 A 
ATOM      5  O   UNL     1      -5.203  12.320  19.785  0.00  0.00    +0.000 OA
ATOM      6  C   UNL     1      -5.911  11.675  18.811  0.00  0.00    +0.000 A 
ATOM      7  C   UNL     1      -5.063  11.149  17.857  0.00  0.00    +0.000 A 
ATOM      8  C   UNL     1      -3.753  11.492  18.268  0.00  0.00    +0.000 A 
ATOM      9  C   UNL     1      -2.432  11.310  17.821  0.00  0.00    +0.000 A 
ATOM     10  F   UNL     1      -2.196  10.603  16.705  0.00  0.00    +0.000 F 
ATOM     11  C   UNL     1      -1.329  11.858  18.517  0.00  0.00    +0.000 A 
ATOM     12  C   UNL     1      -1.582  12.611  19.677  0.00  0.00    +0.000 A 
ATOM     13  N   UNL     1      -0.787  13.314  20.560  0.00  0.00    +0.000 N 
ENDROOT
BRANCH   2  14
ATOM     14  C   UNL     1      -4.010  13.849  22.165  0.00  0.00    +0.000 A 
ATOM     15  C   UNL     1      -4.793  14.929  21.946  0.00  0.00    +0.000 A 
ATOM     16  C   UNL     1      -5.938  15.235  22.776  0.00  0.00    +0.000 A 
ATOM     17  C   UNL     1      -6.248  14.426  23.799  0.00  0.00    +0.000 A 
ATOM     18  N   UNL     1      -5.475  13.332  24.065  0.00  0.00    +0.000 N 
ATOM     19  C   UNL     1      -4.360  12.964  23.339  0.00  0.00    +0.000 A 
ATOM     20  O   UNL     1      -3.701  11.979  23.661  0.00  0.00    +0.000 OA
ATOM     21  H   UNL     1      -5.699  12.720  24.839  0.00  0.00    +0.000 HD
ENDBRANCH   2  14
BRANCH   1  23
ATOM     22  O   UNL     1      -0.922  15.969  22.438  0.00  0.00    +0.000 OA
ATOM     23  C   UNL     1      -1.040  14.714  22.638  0.00  0.00    +0.000 C 
ATOM     24  O   UNL     1      -0.855  14.281  23.818  0.00  0.00    +0.000 OA
ENDBRANCH   1  23
BRANCH  13  25
ATOM     25  C   UNL     1       0.638  13.584  20.330  0.00  0.00    +0.000 C 
BRANCH  25  26
ATOM     26  C   UNL     1       0.912  14.781  19.443  0.00  0.00    +0.000 A 
ATOM     27  C   UNL     1      -0.164  15.506  18.886  0.00  0.00    +0.000 A 
ATOM     28  C   UNL     1       0.129  16.693  18.218  0.00  0.00    +0.000 A 
ATOM     29  N   UNL     1      -0.672  17.619  17.602  0.00  0.00    +0.000 N 
ATOM     30  C   UNL     1       0.130  18.629  17.151  0.00  0.00    +0.000 A 
ATOM     31  N   UNL     1       1.398  18.394  17.407  0.00  0.00    +0.000 NA
ATOM     32  C   UNL     1       1.415  17.189  18.066  0.00  0.00    +0.000 A 
ATOM     33  C   UNL     1       2.493  16.458  18.576  0.00  0.00    +0.000 A 
ATOM     34  C   UNL     1       2.228  15.260  19.261  0.00  0.00    +0.000 A 
ATOM     35 CL   UNL     1       3.606  14.418  19.894  0.00  0.00    +0.000 Cl
ATOM     36  H   UNL     1      -1.676  17.569  17.514  0.00  0.00    +0.000 HD
ENDBRANCH  25  26
ENDBRANCH  13  25
TORSDOF 4
ENDMDL
MODEL 9
REMARK VINA RESULT:      -7.5      2.732      3.981
REMARK  Name = 
REMARK  4 active torsions:
REMARK  status: ('A' for Active; 'I' for Inactive)
REMARK    1  A    between atoms: C_2  and  C_4
REMARK    2  A    between atoms: C_5  and  C_6
REMARK    3  A    between atoms: N_23  and  C_24
REMARK    4  A    between atoms: C_24  and  C_25
REMARK                            x       y       z     vdW  Elec       q    Type
REMARK                         _______ _______ _______ _____ _____    ______ ____
ROOT
ATOM      1  C   UNL     1      -1.631  12.585  21.286  0.00  0.00    +0.000 A 
ATOM      2  C   UNL     1      -2.923  12.721  20.778  0.00  0.00    +0.000 A 
ATOM      3  C   UNL     1      -2.897  12.070  19.515  0.00  0.00    +0.000 A 
ATOM      4  C   UNL     1      -3.901  11.943  18.583  0.00  0.00    +0.000 A 
ATOM      5  O   UNL     1      -5.119  12.446  18.716  0.00  0.00    +0.000 OA
ATOM      6  C   UNL     1      -5.777  12.133  17.560  0.00  0.00    +0.000 A 
ATOM      7  C   UNL     1      -4.959  11.416  16.709  0.00  0.00    +0.000 A 
ATOM      8  C   UNL     1      -3.722  11.279  17.382  0.00  0.00    +0.000 A 
ATOM      9  C   UNL     1      -2.463  10.697  17.152  0.00  0.00    +0.000 A 
ATOM     10  F   UNL     1      -2.236  10.023  16.014  0.00  0.00    +0.000 F 
ATOM     11  C   UNL     1      -1.412  10.804  18.092  0.00  0.00    +0.000 A 
ATOM     12  C   UNL     1      -1.649  11.524  19.277  0.00  0.00    +0.000 A 
ATOM     13  N   UNL     1      -0.873  11.867  20.366  0.00  0.00    +0.000 N 
ENDROOT
BRANCH   2  14
ATOM     14  C   UNL     1      -4.023  13.341  21.439  0.00  0.00    +0.000 A 
ATOM     15  C   UNL     1      -4.924  12.639  22.163  0.00  0.00    +0.000 A 
ATOM     16  C   UNL     1      -6.021  13.277  22.859  0.00  0.00    +0.000 A 
ATOM     17  C   UNL     1      -6.159  14.608  22.796  0.00  0.00    +0.000 A 
ATOM     18  N   UNL     1      -5.280  15.354  22.064  0.00  0.00    +0.000 N 
ATOM     19  C   UNL     1      -4.212  14.839  21.359  0.00  0.00    +0.000 A 
ATOM     20  O   UNL     1      -3.482  15.576  20.701  0.00  0.00    +0.000 OA
ATOM     21  H   UNL     1      -5.381  16.359  22.008  0.00  0.00    +0.000 HD
ENDBRANCH   2  14
BRANCH   1  23
ATOM     22  O   UNL     1      -0.780  12.350  23.479  0.00  0.00    +0.000 OA
ATOM     23  C   UNL     1      -1.096  13.140  22.527  0.00  0.00    +0.000 C 
ATOM     24  O   UNL     1      -0.769  14.362  22.638  0.00  0.00    +0.000 OA
ENDBRANCH   1  23
BRANCH  13  25
ATOM     25  C   UNL     1       0.580  11.663  20.423  0.00  0.00    +0.000 C 
BRANCH  25  26
ATOM     26  C   UNL     1       1.381  12.618  19.562  0.00  0.00    +0.000 A 
ATOM     27  C   UNL     1       1.448  13.987  19.905  0.00  0.00    +0.000 A 
ATOM     28  C   UNL     1       2.328  14.794  19.187  0.00  0.00    +0.000 A 
ATOM     29  N   UNL     1       2.639  16.125  19.287  0.00  0.00    +0.000 N 
ATOM     30  C   UNL     1       3.613  16.395  18.368  0.00  0.00    +0.000 A 
ATOM     31  N   UNL     1       3.922  15.331  17.661  0.00  0.00    +0.000 NA
ATOM     32  C   UNL     1       3.127  14.326  18.154  0.00  0.00    +0.000 A 
ATOM     33  C   UNL     1       3.036  12.982  17.777  0.00  0.00    +0.000 A 
ATOM     34  C   UNL     1       2.163  12.142  18.488  0.00  0.00    +0.000 A 
ATOM     35 CL   UNL     1       2.121  10.481  17.989  0.00  0.00    +0.000 Cl
ATOM     36  H   UNL     1       2.231  16.781  19.936  0.00  0.00    +0.000 HD
ENDBRANCH  25  26
ENDBRANCH  13  25
TORSDOF 4
ENDMDL
