MODEL 1
REMARK VINA RESULT:      -7.2      0.000      0.000
REMARK  Name = 
REMARK  7 active torsions:
REMARK  status: ('A' for Active; 'I' for Inactive)
REMARK    1  A    between atoms: C_1  and  O_2
REMARK    2  A    between atoms: O_2  and  C_3
REMARK    3  A    between atoms: N_13  and  C_14
REMARK    4  A    between atoms: C_19  and  C_20
REMARK    5  A    between atoms: N_23  and  C_24
REMARK    6  A    between atoms: C_24  and  C_25
REMARK    7  A    between atoms: N_33  and  C_34
REMARK                            x       y       z     vdW  Elec       q    Type
REMARK                         _______ _______ _______ _____ _____    ______ ____
ROOT
ATOM      1  C   UNL     1      -3.444  10.577  17.449  0.00  0.00    +0.000 A 
ATOM      2  C   UNL     1      -4.809  10.812  17.516  0.00  0.00    +0.000 A 
ATOM      3  C   UNL     1      -5.346  11.666  18.483  0.00  0.00    +0.000 A 
ATOM      4  C   UNL     1      -4.467  12.291  19.384  0.00  0.00    +0.000 A 
ATOM      5  C   UNL     1      -3.085  12.081  19.353  0.00  0.00    +0.000 A 
ATOM      6  C   UNL     1      -2.580  11.205  18.362  0.00  0.00    +0.000 A 
ATOM      7  C   UNL     1      -2.532  12.898  20.392  0.00  0.00    +0.000 A 
ATOM      8  C   UNL     1      -3.562  13.580  20.999  0.00  0.00    +0.000 A 
ATOM      9  C   UNL     1      -3.364  14.535  22.054  0.00  0.00    +0.000 A 
ATOM     10  O   UNL     1      -4.282  15.231  22.492  0.00  0.00    +0.000 OA
ATOM     11  N   UNL     1      -2.038  14.630  22.492  0.00  0.00    +0.000 N 
ATOM     12  C   UNL     1      -0.939  14.099  21.784  0.00  0.00    +0.000 A 
ATOM     13  O   UNL     1       0.232  14.417  22.025  0.00  0.00    +0.000 OA
ATOM     14  N   UNL     1      -1.216  13.129  20.801  0.00  0.00    +0.000 N 
ATOM     15  N   UNL     1      -4.734  13.182  20.407  0.00  0.00    +0.000 N 
ATOM     16  C   UNL     1      -6.082  13.597  20.743  0.00  0.00    +0.000 C 
ENDROOT
BRANCH  11  17
ATOM     17  C   UNL     1      -1.771  15.442  23.648  0.00  0.00    +0.000 A 
ATOM     18  C   UNL     1      -1.791  14.857  24.925  0.00  0.00    +0.000 A 
ATOM     19  C   UNL     1      -1.622  15.631  26.075  0.00  0.00    +0.000 A 
ATOM     20  C   UNL     1      -1.413  17.000  25.964  0.00  0.00    +0.000 A 
ATOM     21  C   UNL     1      -1.371  17.597  24.705  0.00  0.00    +0.000 A 
ATOM     22  C   UNL     1      -1.558  16.837  23.534  0.00  0.00    +0.000 A 
ATOM     23  C   UNL     1      -1.630  17.573  22.222  0.00  0.00    +0.000 C 
ENDBRANCH  11  17
BRANCH   1  25
ATOM     24  C   UNL     1      -2.991  10.111  15.166  0.00  0.00    +0.000 C 
ATOM     25  O   UNL     1      -2.825   9.763  16.534  0.00  0.00    +0.000 OA
ENDBRANCH   1  25
BRANCH  14  26
ATOM     26  C   UNL     1      -0.067  12.432  20.223  0.00  0.00    +0.000 C 
BRANCH  26  27
ATOM     27  C   UNL     1       0.201  11.022  20.709  0.00  0.00    +0.000 A 
ATOM     28  C   UNL     1      -0.157  10.582  21.989  0.00  0.00    +0.000 A 
ATOM     29  F   UNL     1      -0.780  11.389  22.855  0.00  0.00    +0.000 F 
ATOM     30  C   UNL     1       0.121   9.287  22.427  0.00  0.00    +0.000 A 
ATOM     31  C   UNL     1       0.738   8.379  21.576  0.00  0.00    +0.000 A 
ATOM     32  C   UNL     1       1.081   8.777  20.288  0.00  0.00    +0.000 A 
ATOM     33  C   UNL     1       0.821  10.087  19.860  0.00  0.00    +0.000 A 
ATOM     34 CL   UNL     1       1.314  10.500  18.253  0.00  0.00    +0.000 Cl
ENDBRANCH  26  27
ENDBRANCH  14  26
TORSDOF 4
ENDMDL
MODEL 2
REMARK VINA RESULT:      -7.0      0.946      1.495
REMARK  Name = 
REMARK  7 active torsions:
REMARK  status: ('A' for Active; 'I' for Inactive)
REMARK    1  A    between atoms: C_1  and  O_2
REMARK    2  A    between atoms: O_2  and  C_3
REMARK    3  A    between atoms: N_13  and  C_14
REMARK    4  A    between atoms: C_19  and  C_20
REMARK    5  A    between atoms: N_23  and  C_24
REMARK    6  A    between atoms: C_24  and  C_25
REMARK    7  A    between atoms: N_33  and  C_34
REMARK                            x       y       z     vdW  Elec       q    Type
REMARK                         _______ _______ _______ _____ _____    ______ ____
ROOT
ATOM      1  C   UNL     1      -4.031  10.644  17.825  0.00  0.00    +0.000 A 
ATOM      2  C   UNL     1      -5.391  10.914  17.792  0.00  0.00    +0.000 A 
ATOM      3  C   UNL     1      -5.947  11.908  18.603  0.00  0.00    +0.000 A 
ATOM      4  C   UNL     1      -5.093  12.636  19.448  0.00  0.00    +0.000 A 
ATOM      5  C   UNL     1      -3.718  12.395  19.514  0.00  0.00    +0.000 A 
ATOM      6  C   UNL     1      -3.192  11.377  18.682  0.00  0.00    +0.000 A 
ATOM      7  C   UNL     1      -3.189  13.340  20.453  0.00  0.00    +0.000 A 
ATOM      8  C   UNL     1      -4.227  14.122  20.908  0.00  0.00    +0.000 A 
ATOM      9  C   UNL     1      -4.051  15.212  21.827  0.00  0.00    +0.000 A 
ATOM     10  O   UNL     1      -4.968  15.983  22.117  0.00  0.00    +0.000 OA
ATOM     11  N   UNL     1      -2.743  15.341  22.311  0.00  0.00    +0.000 N 
ATOM     12  C   UNL     1      -1.629  14.692  21.739  0.00  0.00    +0.000 A 
ATOM     13  O   UNL     1      -0.461  15.016  21.989  0.00  0.00    +0.000 OA
ATOM     14  N   UNL     1      -1.887  13.599  20.890  0.00  0.00    +0.000 N 
ATOM     15  N   UNL     1      -5.381  13.668  20.322  0.00  0.00    +0.000 N 
ATOM     16  C   UNL     1      -6.731  14.154  20.530  0.00  0.00    +0.000 C 
ENDROOT
BRANCH  11  17
ATOM     17  C   UNL     1      -2.507  16.303  23.353  0.00  0.00    +0.000 A 
ATOM     18  C   UNL     1      -2.105  17.606  23.015  0.00  0.00    +0.000 A 
ATOM     19  C   UNL     1      -1.784  18.539  24.002  0.00  0.00    +0.000 A 
ATOM     20  C   UNL     1      -1.876  18.189  25.344  0.00  0.00    +0.000 A 
ATOM     21  C   UNL     1      -2.292  16.907  25.700  0.00  0.00    +0.000 A 
ATOM     22  C   UNL     1      -2.602  15.945  24.719  0.00  0.00    +0.000 A 
ATOM     23  C   UNL     1      -2.915  14.546  25.180  0.00  0.00    +0.000 C 
ENDBRANCH  11  17
BRANCH   1  25
ATOM     24  C   UNL     1      -2.960  10.108  15.775  0.00  0.00    +0.000 C 
ATOM     25  O   UNL     1      -3.394   9.696  17.065  0.00  0.00    +0.000 OA
ENDBRANCH   1  25
BRANCH  14  26
ATOM     26  C   UNL     1      -0.733  12.803  20.472  0.00  0.00    +0.000 C 
BRANCH  26  27
ATOM     27  C   UNL     1      -0.557  11.447  21.124  0.00  0.00    +0.000 A 
ATOM     28  C   UNL     1      -0.792  11.226  22.487  0.00  0.00    +0.000 A 
ATOM     29  F   UNL     1      -1.206  12.211  23.291  0.00  0.00    +0.000 F 
ATOM     30  C   UNL     1      -0.599   9.976  23.075  0.00  0.00    +0.000 A 
ATOM     31  C   UNL     1      -0.198   8.894  22.300  0.00  0.00    +0.000 A 
ATOM     32  C   UNL     1       0.015   9.075  20.938  0.00  0.00    +0.000 A 
ATOM     33  C   UNL     1      -0.157  10.339  20.356  0.00  0.00    +0.000 A 
ATOM     34 CL   UNL     1       0.166  10.473  18.660  0.00  0.00    +0.000 Cl
ENDBRANCH  26  27
ENDBRANCH  14  26
TORSDOF 4
ENDMDL
MODEL 3
REMARK VINA RESULT:      -7.0      2.784      4.691
REMARK  Name = 
REMARK  7 active torsions:
REMARK  status: ('A' for Active; 'I' for Inactive)
REMARK    1  A    between atoms: C_1  and  O_2
REMARK    2  A    between atoms: O_2  and  C_3
REMARK    3  A    between atoms: N_13  and  C_14
REMARK    4  A    between atoms: C_19  and  C_20
REMARK    5  A    between atoms: N_23  and  C_24
REMARK    6  A    between atoms: C_24  and  C_25
REMARK    7  A    between atoms: N_33  and  C_34
REMARK                            x       y       z     vdW  Elec       q    Type
REMARK                         _______ _______ _______ _____ _____    ______ ____
ROOT
ATOM      1  C   UNL     1      -5.343  12.925  21.497  0.00  0.00    +0.000 A 
ATOM      2  C   UNL     1      -5.730  14.156  22.006  0.00  0.00    +0.000 A 
ATOM      3  C   UNL     1      -4.856  15.247  21.993  0.00  0.00    +0.000 A 
ATOM      4  C   UNL     1      -3.575  15.070  21.444  0.00  0.00    +0.000 A 
ATOM      5  C   UNL     1      -3.143  13.846  20.925  0.00  0.00    +0.000 A 
ATOM      6  C   UNL     1      -4.055  12.764  20.959  0.00  0.00    +0.000 A 
ATOM      7  C   UNL     1      -1.812  14.063  20.440  0.00  0.00    +0.000 A 
ATOM      8  C   UNL     1      -1.484  15.383  20.656  0.00  0.00    +0.000 A 
ATOM      9  C   UNL     1      -0.238  15.965  20.245  0.00  0.00    +0.000 A 
ATOM     10  O   UNL     1      -0.017  17.176  20.326  0.00  0.00    +0.000 OA
ATOM     11  N   UNL     1       0.667  15.044  19.702  0.00  0.00    +0.000 N 
ATOM     12  C   UNL     1       0.310  13.741  19.296  0.00  0.00    +0.000 A 
ATOM     13  O   UNL     1       1.033  13.040  18.578  0.00  0.00    +0.000 OA
ATOM     14  N   UNL     1      -0.905  13.226  19.787  0.00  0.00    +0.000 N 
ATOM     15  N   UNL     1      -2.543  15.978  21.295  0.00  0.00    +0.000 N 
ATOM     16  C   UNL     1      -2.639  17.347  21.763  0.00  0.00    +0.000 C 
ENDROOT
BRANCH  11  17
ATOM     17  C   UNL     1       1.997  15.506  19.409  0.00  0.00    +0.000 A 
ATOM     18  C   UNL     1       2.278  16.053  18.146  0.00  0.00    +0.000 A 
ATOM     19  C   UNL     1       3.576  16.432  17.797  0.00  0.00    +0.000 A 
ATOM     20  C   UNL     1       4.610  16.284  18.713  0.00  0.00    +0.000 A 
ATOM     21  C   UNL     1       4.349  15.761  19.978  0.00  0.00    +0.000 A 
ATOM     22  C   UNL     1       3.051  15.356  20.343  0.00  0.00    +0.000 A 
ATOM     23  C   UNL     1       2.873  14.679  21.676  0.00  0.00    +0.000 C 
ENDBRANCH  11  17
BRANCH   1  25
ATOM     24  C   UNL     1      -7.457  11.977  20.983  0.00  0.00    +0.000 C 
ATOM     25  O   UNL     1      -6.129  11.802  21.460  0.00  0.00    +0.000 OA
ENDBRANCH   1  25
BRANCH  14  26
ATOM     26  C   UNL     1      -1.166  11.808  19.537  0.00  0.00    +0.000 C 
BRANCH  26  27
ATOM     27  C   UNL     1      -0.443  10.808  20.416  0.00  0.00    +0.000 A 
ATOM     28  C   UNL     1      -0.560  10.803  21.811  0.00  0.00    +0.000 A 
ATOM     29  F   UNL     1      -1.340  11.683  22.449  0.00  0.00    +0.000 F 
ATOM     30  C   UNL     1       0.134   9.890  22.605  0.00  0.00    +0.000 A 
ATOM     31  C   UNL     1       0.942   8.925  22.017  0.00  0.00    +0.000 A 
ATOM     32  C   UNL     1       1.056   8.885  20.631  0.00  0.00    +0.000 A 
ATOM     33  C   UNL     1       0.376   9.820  19.838  0.00  0.00    +0.000 A 
ATOM     34 CL   UNL     1       0.607   9.713  18.126  0.00  0.00    +0.000 Cl
ENDBRANCH  26  27
ENDBRANCH  14  26
TORSDOF 4
ENDMDL
MODEL 4
REMARK VINA RESULT:      -6.9      0.776      1.399
REMARK  Name = 
REMARK  7 active torsions:
REMARK  status: ('A' for Active; 'I' for Inactive)
REMARK    1  A    between atoms: C_1  and  O_2
REMARK    2  A    between atoms: O_2  and  C_3
REMARK    3  A    between atoms: N_13  and  C_14
REMARK    4  A    between atoms: C_19  and  C_20
REMARK    5  A    between atoms: N_23  and  C_24
REMARK    6  A    between atoms: C_24  and  C_25
REMARK    7  A    between atoms: N_33  and  C_34
REMARK                            x       y       z     vdW  Elec       q    Type
REMARK                         _______ _______ _______ _____ _____    ______ ____
ROOT
ATOM      1  C   UNL     1      -3.237  10.557  16.769  0.00  0.00    +0.000 A 
ATOM      2  C   UNL     1      -4.606  10.761  16.684  0.00  0.00    +0.000 A 
ATOM      3  C   UNL     1      -5.277  11.544  17.628  0.00  0.00    +0.000 A 
ATOM      4  C   UNL     1      -4.529  12.128  18.664  0.00  0.00    +0.000 A 
ATOM      5  C   UNL     1      -3.149  11.946  18.789  0.00  0.00    +0.000 A 
ATOM      6  C   UNL     1      -2.506  11.143  17.817  0.00  0.00    +0.000 A 
ATOM      7  C   UNL     1      -2.746  12.707  19.934  0.00  0.00    +0.000 A 
ATOM      8  C   UNL     1      -3.859  13.331  20.452  0.00  0.00    +0.000 A 
ATOM      9  C   UNL     1      -3.815  14.221  21.577  0.00  0.00    +0.000 A 
ATOM     10  O   UNL     1      -4.797  14.872  21.941  0.00  0.00    +0.000 OA
ATOM     11  N   UNL     1      -2.553  14.315  22.178  0.00  0.00    +0.000 N 
ATOM     12  C   UNL     1      -1.364  13.849  21.579  0.00  0.00    +0.000 A 
ATOM     13  O   UNL     1      -0.239  14.173  21.978  0.00  0.00    +0.000 OA
ATOM     14  N   UNL     1      -1.495  12.937  20.514  0.00  0.00    +0.000 N 
ATOM     15  N   UNL     1      -4.940  12.948  19.699  0.00  0.00    +0.000 N 
ATOM     16  C   UNL     1      -6.330  13.316  19.892  0.00  0.00    +0.000 C 
ENDROOT
BRANCH  11  17
ATOM     17  C   UNL     1      -2.449  15.058  23.404  0.00  0.00    +0.000 A 
ATOM     18  C   UNL     1      -1.862  16.334  23.393  0.00  0.00    +0.000 A 
ATOM     19  C   UNL     1      -1.667  17.047  24.577  0.00  0.00    +0.000 A 
ATOM     20  C   UNL     1      -2.071  16.502  25.790  0.00  0.00    +0.000 A 
ATOM     21  C   UNL     1      -2.672  15.245  25.820  0.00  0.00    +0.000 A 
ATOM     22  C   UNL     1      -2.862  14.501  24.639  0.00  0.00    +0.000 A 
ATOM     23  C   UNL     1      -3.397  13.100  24.768  0.00  0.00    +0.000 C 
ENDBRANCH  11  17
BRANCH   1  25
ATOM     24  C   UNL     1      -2.838   9.926  14.516  0.00  0.00    +0.000 C 
ATOM     25  O   UNL     1      -2.492   9.813  15.890  0.00  0.00    +0.000 OA
ENDBRANCH   1  25
BRANCH  14  26
ATOM     26  C   UNL     1      -0.268  12.299  20.039  0.00  0.00    +0.000 C 
BRANCH  26  27
ATOM     27  C   UNL     1       0.027  10.904  20.550  0.00  0.00    +0.000 A 
ATOM     28  C   UNL     1      -0.497  10.410  21.751  0.00  0.00    +0.000 A 
ATOM     29  F   UNL     1      -1.311  11.151  22.512  0.00  0.00    +0.000 F 
ATOM     30  C   UNL     1      -0.194   9.132  22.218  0.00  0.00    +0.000 A 
ATOM     31  C   UNL     1       0.620   8.290  21.469  0.00  0.00    +0.000 A 
ATOM     32  C   UNL     1       1.133   8.740  20.257  0.00  0.00    +0.000 A 
ATOM     33  C   UNL     1       0.845  10.035  19.804  0.00  0.00    +0.000 A 
ATOM     34 CL   UNL     1       1.557  10.517  18.302  0.00  0.00    +0.000 Cl
ENDBRANCH  26  27
ENDBRANCH  14  26
TORSDOF 4
ENDMDL
MODEL 5
REMARK VINA RESULT:      -6.8      2.814      5.622
REMARK  Name = 
REMARK  7 active torsions:
REMARK  status: ('A' for Active; 'I' for Inactive)
REMARK    1  A    between atoms: C_1  and  O_2
REMARK    2  A    between atoms: O_2  and  C_3
REMARK    3  A    between atoms: N_13  and  C_14
REMARK    4  A    between atoms: C_19  and  C_20
REMARK    5  A    between atoms: N_23  and  C_24
REMARK    6  A    between atoms: C_24  and  C_25
REMARK    7  A    between atoms: N_33  and  C_34
REMARK                            x       y       z     vdW  Elec       q    Type
REMARK                         _______ _______ _______ _____ _____    ______ ____
ROOT
ATOM      1  C   UNL     1      -3.909  13.119  24.473  0.00  0.00    +0.000 A 
ATOM      2  C   UNL     1      -3.790  14.225  25.301  0.00  0.00    +0.000 A 
ATOM      3  C   UNL     1      -2.797  15.185  25.082  0.00  0.00    +0.000 A 
ATOM      4  C   UNL     1      -1.925  15.007  23.995  0.00  0.00    +0.000 A 
ATOM      5  C   UNL     1      -2.008  13.906  23.138  0.00  0.00    +0.000 A 
ATOM      6  C   UNL     1      -3.023  12.953  23.395  0.00  0.00    +0.000 A 
ATOM      7  C   UNL     1      -0.985  14.087  22.151  0.00  0.00    +0.000 A 
ATOM      8  C   UNL     1      -0.335  15.271  22.417  0.00  0.00    +0.000 A 
ATOM      9  C   UNL     1       0.719  15.796  21.594  0.00  0.00    +0.000 A 
ATOM     10  O   UNL     1       1.195  16.919  21.771  0.00  0.00    +0.000 OA
ATOM     11  N   UNL     1       1.108  14.941  20.556  0.00  0.00    +0.000 N 
ATOM     12  C   UNL     1       0.357  13.821  20.140  0.00  0.00    +0.000 A 
ATOM     13  O   UNL     1       0.557  13.240  19.066  0.00  0.00    +0.000 OA
ATOM     14  N   UNL     1      -0.622  13.338  21.029  0.00  0.00    +0.000 N 
ATOM     15  N   UNL     1      -0.886  15.805  23.554  0.00  0.00    +0.000 N 
ATOM     16  C   UNL     1      -0.498  17.023  24.239  0.00  0.00    +0.000 C 
ENDROOT
BRANCH  11  17
ATOM     17  C   UNL     1       2.260  15.311  19.779  0.00  0.00    +0.000 A 
ATOM     18  C   UNL     1       2.087  16.027  18.583  0.00  0.00    +0.000 A 
ATOM     19  C   UNL     1       3.175  16.330  17.761  0.00  0.00    +0.000 A 
ATOM     20  C   UNL     1       4.454  15.933  18.131  0.00  0.00    +0.000 A 
ATOM     21  C   UNL     1       4.649  15.238  19.324  0.00  0.00    +0.000 A 
ATOM     22  C   UNL     1       3.563  14.908  20.158  0.00  0.00    +0.000 A 
ATOM     23  C   UNL     1       3.837  14.043  21.359  0.00  0.00    +0.000 C 
ENDBRANCH  11  17
BRANCH   1  25
ATOM     24  C   UNL     1      -6.167  12.452  24.172  0.00  0.00    +0.000 C 
ATOM     25  O   UNL     1      -4.851  12.131  24.604  0.00  0.00    +0.000 OA
ENDBRANCH   1  25
BRANCH  14  26
ATOM     26  C   UNL     1      -1.247  12.060  20.687  0.00  0.00    +0.000 C 
BRANCH  26  27
ATOM     27  C   UNL     1      -0.457  10.803  20.988  0.00  0.00    +0.000 A 
ATOM     28  C   UNL     1      -0.143  10.398  22.291  0.00  0.00    +0.000 A 
ATOM     29  F   UNL     1      -0.547  11.102  23.355  0.00  0.00    +0.000 F 
ATOM     30  C   UNL     1       0.608   9.252  22.546  0.00  0.00    +0.000 A 
ATOM     31  C   UNL     1       1.039   8.451  21.496  0.00  0.00    +0.000 A 
ATOM     32  C   UNL     1       0.720   8.810  20.190  0.00  0.00    +0.000 A 
ATOM     33  C   UNL     1      -0.015   9.977  19.938  0.00  0.00    +0.000 A 
ATOM     34 CL   UNL     1      -0.334  10.360  18.280  0.00  0.00    +0.000 Cl
ENDBRANCH  26  27
ENDBRANCH  14  26
TORSDOF 4
ENDMDL
MODEL 6
REMARK VINA RESULT:      -6.8      2.492      3.558
REMARK  Name = 
REMARK  7 active torsions:
REMARK  status: ('A' for Active; 'I' for Inactive)
REMARK    1  A    between atoms: C_1  and  O_2
REMARK    2  A    between atoms: O_2  and  C_3
REMARK    3  A    between atoms: N_13  and  C_14
REMARK    4  A    between atoms: C_19  and  C_20
REMARK    5  A    between atoms: N_23  and  C_24
REMARK    6  A    between atoms: C_24  and  C_25
REMARK    7  A    between atoms: N_33  and  C_34
REMARK                            x       y       z     vdW  Elec       q    Type
REMARK                         _______ _______ _______ _____ _____    ______ ____
ROOT
ATOM      1  C   UNL     1      -0.894  10.121  17.626  0.00  0.00    +0.000 A 
ATOM      2  C   UNL     1      -1.924   9.656  16.821  0.00  0.00    +0.000 A 
ATOM      3  C   UNL     1      -3.238  10.095  17.007  0.00  0.00    +0.000 A 
ATOM      4  C   UNL     1      -3.492  11.027  18.028  0.00  0.00    +0.000 A 
ATOM      5  C   UNL     1      -2.485  11.518  18.863  0.00  0.00    +0.000 A 
ATOM      6  C   UNL     1      -1.168  11.047  18.647  0.00  0.00    +0.000 A 
ATOM      7  C   UNL     1      -3.118  12.454  19.746  0.00  0.00    +0.000 A 
ATOM      8  C   UNL     1      -4.454  12.518  19.421  0.00  0.00    +0.000 A 
ATOM      9  C   UNL     1      -5.384  13.398  20.071  0.00  0.00    +0.000 A 
ATOM     10  O   UNL     1      -6.544  13.537  19.677  0.00  0.00    +0.000 OA
ATOM     11  N   UNL     1      -4.837  14.108  21.147  0.00  0.00    +0.000 N 
ATOM     12  C   UNL     1      -3.452  14.213  21.392  0.00  0.00    +0.000 A 
ATOM     13  O   UNL     1      -2.968  15.050  22.164  0.00  0.00    +0.000 OA
ATOM     14  N   UNL     1      -2.613  13.278  20.755  0.00  0.00    +0.000 N 
ATOM     15  N   UNL     1      -4.680  11.626  18.403  0.00  0.00    +0.000 N 
ATOM     16  C   UNL     1      -5.942  11.315  17.762  0.00  0.00    +0.000 C 
ENDROOT
BRANCH  11  17
ATOM     17  C   UNL     1      -5.730  14.893  21.955  0.00  0.00    +0.000 A 
ATOM     18  C   UNL     1      -5.998  16.225  21.598  0.00  0.00    +0.000 A 
ATOM     19  C   UNL     1      -6.792  17.041  22.406  0.00  0.00    +0.000 A 
ATOM     20  C   UNL     1      -7.344  16.533  23.575  0.00  0.00    +0.000 A 
ATOM     21  C   UNL     1      -7.106  15.207  23.937  0.00  0.00    +0.000 A 
ATOM     22  C   UNL     1      -6.293  14.373  23.146  0.00  0.00    +0.000 A 
ATOM     23  C   UNL     1      -5.976  12.998  23.670  0.00  0.00    +0.000 C 
ENDBRANCH  11  17
BRANCH   1  25
ATOM     24  C   UNL     1       0.981   9.065  18.627  0.00  0.00    +0.000 C 
ATOM     25  O   UNL     1       0.423   9.755  17.516  0.00  0.00    +0.000 OA
ENDBRANCH   1  25
BRANCH  14  26
ATOM     26  C   UNL     1      -1.212  13.257  21.176  0.00  0.00    +0.000 C 
BRANCH  26  27
ATOM     27  C   UNL     1      -0.695  11.972  21.788  0.00  0.00    +0.000 A 
ATOM     28  C   UNL     1      -1.417  11.241  22.740  0.00  0.00    +0.000 A 
ATOM     29  F   UNL     1      -2.627  11.638  23.151  0.00  0.00    +0.000 F 
ATOM     30  C   UNL     1      -0.912  10.074  23.311  0.00  0.00    +0.000 A 
ATOM     31  C   UNL     1       0.325   9.580  22.915  0.00  0.00    +0.000 A 
ATOM     32  C   UNL     1       1.054  10.267  21.950  0.00  0.00    +0.000 A 
ATOM     33  C   UNL     1       0.553  11.454  21.396  0.00  0.00    +0.000 A 
ATOM     34 CL   UNL     1       1.549  12.256  20.229  0.00  0.00    +0.000 Cl
ENDBRANCH  26  27
ENDBRANCH  14  26
TORSDOF 4
ENDMDL
MODEL 7
REMARK VINA RESULT:      -6.7      3.073      4.719
REMARK  Name = 
REMARK  7 active torsions:
REMARK  status: ('A' for Active; 'I' for Inactive)
REMARK    1  A    between atoms: C_1  and  O_2
REMARK    2  A    between atoms: O_2  and  C_3
REMARK    3  A    between atoms: N_13  and  C_14
REMARK    4  A    between atoms: C_19  and  C_20
REMARK    5  A    between atoms: N_23  and  C_24
REMARK    6  A    between atoms: C_24  and  C_25
REMARK    7  A    between atoms: N_33  and  C_34
REMARK                            x       y       z     vdW  Elec       q    Type
REMARK                         _______ _______ _______ _____ _____    ______ ____
ROOT
ATOM      1  C   UNL     1      -4.494  12.753  20.110  0.00  0.00    +0.000 A 
ATOM      2  C   UNL     1      -4.872  13.949  20.703  0.00  0.00    +0.000 A 
ATOM      3  C   UNL     1      -3.921  14.916  21.040  0.00  0.00    +0.000 A 
ATOM      4  C   UNL     1      -2.570  14.653  20.757  0.00  0.00    +0.000 A 
ATOM      5  C   UNL     1      -2.146  13.460  20.164  0.00  0.00    +0.000 A 
ATOM      6  C   UNL     1      -3.138  12.503  19.841  0.00  0.00    +0.000 A 
ATOM      7  C   UNL     1      -0.726  13.571  20.012  0.00  0.00    +0.000 A 
ATOM      8  C   UNL     1      -0.335  14.802  20.489  0.00  0.00    +0.000 A 
ATOM      9  C   UNL     1       1.020  15.274  20.445  0.00  0.00    +0.000 A 
ATOM     10  O   UNL     1       1.327  16.427  20.751  0.00  0.00    +0.000 OA
ATOM     11  N   UNL     1       1.937  14.323  19.976  0.00  0.00    +0.000 N 
ATOM     12  C   UNL     1       1.563  13.136  19.313  0.00  0.00    +0.000 A 
ATOM     13  O   UNL     1       2.363  12.447  18.668  0.00  0.00    +0.000 OA
ATOM     14  N   UNL     1       0.226  12.716  19.450  0.00  0.00    +0.000 N 
ATOM     15  N   UNL     1      -1.452  15.438  20.969  0.00  0.00    +0.000 N 
ATOM     16  C   UNL     1      -1.527  16.738  21.606  0.00  0.00    +0.000 C 
ENDROOT
BRANCH  11  17
ATOM     17  C   UNL     1       3.335  14.651  20.045  0.00  0.00    +0.000 A 
ATOM     18  C   UNL     1       4.061  14.344  21.208  0.00  0.00    +0.000 A 
ATOM     19  C   UNL     1       5.398  14.723  21.343  0.00  0.00    +0.000 A 
ATOM     20  C   UNL     1       6.034  15.403  20.311  0.00  0.00    +0.000 A 
ATOM     21  C   UNL     1       5.335  15.700  19.142  0.00  0.00    +0.000 A 
ATOM     22  C   UNL     1       3.982  15.342  18.993  0.00  0.00    +0.000 A 
ATOM     23  C   UNL     1       3.261  15.813  17.758  0.00  0.00    +0.000 C 
ENDBRANCH  11  17
BRANCH   1  25
ATOM     24  C   UNL     1      -6.689  11.854  20.209  0.00  0.00    +0.000 C 
ATOM     25  O   UNL     1      -5.351  11.749  19.738  0.00  0.00    +0.000 OA
ENDBRANCH   1  25
BRANCH  14  26
ATOM     26  C   UNL     1      -0.101  11.384  18.940  0.00  0.00    +0.000 C 
BRANCH  26  27
ATOM     27  C   UNL     1       0.338  10.199  19.776  0.00  0.00    +0.000 A 
ATOM     28  C   UNL     1      -0.115   9.985  21.083  0.00  0.00    +0.000 A 
ATOM     29  F   UNL     1      -0.986  10.818  21.664  0.00  0.00    +0.000 F 
ATOM     30  C   UNL     1       0.320   8.901  21.845  0.00  0.00    +0.000 A 
ATOM     31  C   UNL     1       1.202   7.974  21.302  0.00  0.00    +0.000 A 
ATOM     32  C   UNL     1       1.648   8.143  19.996  0.00  0.00    +0.000 A 
ATOM     33  C   UNL     1       1.226   9.247  19.241  0.00  0.00    +0.000 A 
ATOM     34 CL   UNL     1       1.862   9.392  17.638  0.00  0.00    +0.000 Cl
ENDBRANCH  26  27
ENDBRANCH  14  26
TORSDOF 4
ENDMDL
MODEL 8
REMARK VINA RESULT:      -6.7      2.926      7.153
REMARK  Name = 
REMARK  7 active torsions:
REMARK  status: ('A' for Active; 'I' for Inactive)
REMARK    1  A    between atoms: C_1  and  O_2
REMARK    2  A    between atoms: O_2  and  C_3
REMARK    3  A    between atoms: N_13  and  C_14
REMARK    4  A    between atoms: C_19  and  C_20
REMARK    5  A    between atoms: N_23  and  C_24
REMARK    6  A    between atoms: C_24  and  C_25
REMARK    7  A    between atoms: N_33  and  C_34
REMARK                            x       y       z     vdW  Elec       q    Type
REMARK                         _______ _______ _______ _____ _____    ______ ____
ROOT
ATOM      1  C   UNL     1      -2.697  17.273  20.924  0.00  0.00    +0.000 A 
ATOM      2  C   UNL     1      -1.509  17.988  20.968  0.00  0.00    +0.000 A 
ATOM      3  C   UNL     1      -0.279  17.353  20.770  0.00  0.00    +0.000 A 
ATOM      4  C   UNL     1      -0.274  15.970  20.518  0.00  0.00    +0.000 A 
ATOM      5  C   UNL     1      -1.447  15.212  20.470  0.00  0.00    +0.000 A 
ATOM      6  C   UNL     1      -2.673  15.889  20.679  0.00  0.00    +0.000 A 
ATOM      7  C   UNL     1      -1.045  13.870  20.167  0.00  0.00    +0.000 A 
ATOM      8  C   UNL     1       0.325  13.852  20.026  0.00  0.00    +0.000 A 
ATOM      9  C   UNL     1       1.067  12.675  19.669  0.00  0.00    +0.000 A 
ATOM     10  O   UNL     1       2.273  12.709  19.417  0.00  0.00    +0.000 OA
ATOM     11  N   UNL     1       0.286  11.515  19.585  0.00  0.00    +0.000 N 
ATOM     12  C   UNL     1      -1.124  11.522  19.538  0.00  0.00    +0.000 A 
ATOM     13  O   UNL     1      -1.789  10.537  19.193  0.00  0.00    +0.000 OA
ATOM     14  N   UNL     1      -1.776  12.698  19.955  0.00  0.00    +0.000 N 
ATOM     15  N   UNL     1       0.787  15.119  20.274  0.00  0.00    +0.000 N 
ATOM     16  C   UNL     1       2.164  15.573  20.286  0.00  0.00    +0.000 C 
ENDROOT
BRANCH  11  17
ATOM     17  C   UNL     1       0.966  10.264  19.389  0.00  0.00    +0.000 A 
ATOM     18  C   UNL     1       1.398   9.905  18.101  0.00  0.00    +0.000 A 
ATOM     19  C   UNL     1       1.984   8.661  17.859  0.00  0.00    +0.000 A 
ATOM     20  C   UNL     1       2.162   7.763  18.904  0.00  0.00    +0.000 A 
ATOM     21  C   UNL     1       1.757   8.108  20.193  0.00  0.00    +0.000 A 
ATOM     22  C   UNL     1       1.147   9.350  20.455  0.00  0.00    +0.000 A 
ATOM     23  C   UNL     1       0.619   9.595  21.843  0.00  0.00    +0.000 C 
ENDBRANCH  11  17
BRANCH   1  25
ATOM     24  C   UNL     1      -4.448  17.822  22.430  0.00  0.00    +0.000 C 
ATOM     25  O   UNL     1      -3.948  17.807  21.099  0.00  0.00    +0.000 OA
ENDBRANCH   1  25
BRANCH  14  26
ATOM     26  C   UNL     1      -3.229  12.627  20.105  0.00  0.00    +0.000 C 
BRANCH  26  27
ATOM     27  C   UNL     1      -3.785  12.750  21.508  0.00  0.00    +0.000 A 
ATOM     28  C   UNL     1      -3.108  12.271  22.636  0.00  0.00    +0.000 A 
ATOM     29  F   UNL     1      -1.909  11.686  22.533  0.00  0.00    +0.000 F 
ATOM     30  C   UNL     1      -3.648  12.370  23.918  0.00  0.00    +0.000 A 
ATOM     31  C   UNL     1      -4.876  12.991  24.112  0.00  0.00    +0.000 A 
ATOM     32  C   UNL     1      -5.561  13.504  23.015  0.00  0.00    +0.000 A 
ATOM     33  C   UNL     1      -5.025  13.380  21.725  0.00  0.00    +0.000 A 
ATOM     34 CL   UNL     1      -5.966  14.017  20.420  0.00  0.00    +0.000 Cl
ENDBRANCH  26  27
ENDBRANCH  14  26
TORSDOF 4
ENDMDL
MODEL 9
REMARK VINA RESULT:      -6.6      2.960      5.873
REMARK  Name = 
REMARK  7 active torsions:
REMARK  status: ('A' for Active; 'I' for Inactive)
REMARK    1  A    between atoms: C_1  and  O_2
REMARK    2  A    between atoms: O_2  and  C_3
REMARK    3  A    between atoms: N_13  and  C_14
REMARK    4  A    between atoms: C_19  and  C_20
REMARK    5  A    between atoms: N_23  and  C_24
REMARK    6  A    between atoms: C_24  and  C_25
REMARK    7  A    between atoms: N_33  and  C_34
REMARK                            x       y       z     vdW  Elec       q    Type
REMARK                         _______ _______ _______ _____ _____    ______ ____
ROOT
ATOM      1  C   UNL     1      -4.085  13.315  23.739  0.00  0.00    +0.000 A 
ATOM      2  C   UNL     1      -4.175  14.590  24.279  0.00  0.00    +0.000 A 
ATOM      3  C   UNL     1      -3.230  15.572  23.969  0.00  0.00    +0.000 A 
ATOM      4  C   UNL     1      -2.187  15.240  23.087  0.00  0.00    +0.000 A 
ATOM      5  C   UNL     1      -2.057  13.967  22.524  0.00  0.00    +0.000 A 
ATOM      6  C   UNL     1      -3.030  12.999  22.866  0.00  0.00    +0.000 A 
ATOM      7  C   UNL     1      -0.906  14.022  21.671  0.00  0.00    +0.000 A 
ATOM      8  C   UNL     1      -0.390  15.298  21.724  0.00  0.00    +0.000 A 
ATOM      9  C   UNL     1       0.740  15.726  20.949  0.00  0.00    +0.000 A 
ATOM     10  O   UNL     1       1.103  16.904  20.909  0.00  0.00    +0.000 OA
ATOM     11  N   UNL     1       1.347  14.699  20.216  0.00  0.00    +0.000 N 
ATOM     12  C   UNL     1       0.751  13.441  19.989  0.00  0.00    +0.000 A 
ATOM     13  O   UNL     1       1.158  12.651  19.128  0.00  0.00    +0.000 OA
ATOM     14  N   UNL     1      -0.319  13.076  20.827  0.00  0.00    +0.000 N 
ATOM     15  N   UNL     1      -1.150  16.020  22.609  0.00  0.00    +0.000 N 
ATOM     16  C   UNL     1      -0.961  17.397  23.022  0.00  0.00    +0.000 C 
ENDROOT
BRANCH  11  17
ATOM     17  C   UNL     1       2.578  15.000  19.536  0.00  0.00    +0.000 A 
ATOM     18  C   UNL     1       2.544  15.435  18.201  0.00  0.00    +0.000 A 
ATOM     19  C   UNL     1       3.722  15.654  17.484  0.00  0.00    +0.000 A 
ATOM     20  C   UNL     1       4.953  15.454  18.096  0.00  0.00    +0.000 A 
ATOM     21  C   UNL     1       5.008  15.040  19.426  0.00  0.00    +0.000 A 
ATOM     22  C   UNL     1       3.832  14.797  20.161  0.00  0.00    +0.000 A 
ATOM     23  C   UNL     1       3.974  14.226  21.547  0.00  0.00    +0.000 C 
ENDBRANCH  11  17
BRANCH   1  25
ATOM     24  C   UNL     1      -6.345  12.599  23.842  0.00  0.00    +0.000 C 
ATOM     25  O   UNL     1      -4.964  12.290  23.979  0.00  0.00    +0.000 OA
ENDBRANCH   1  25
BRANCH  14  26
ATOM     26  C   UNL     1      -0.792  11.695  20.728  0.00  0.00    +0.000 C 
BRANCH  26  27
ATOM     27  C   UNL     1      -1.479  11.292  19.439  0.00  0.00    +0.000 A 
ATOM     28  C   UNL     1      -2.682  11.866  19.011  0.00  0.00    +0.000 A 
ATOM     29  F   UNL     1      -3.286  12.828  19.719  0.00  0.00    +0.000 F 
ATOM     30  C   UNL     1      -3.313  11.464  17.834  0.00  0.00    +0.000 A 
ATOM     31  C   UNL     1      -2.734  10.492  17.028  0.00  0.00    +0.000 A 
ATOM     32  C   UNL     1      -1.524   9.922  17.411  0.00  0.00    +0.000 A 
ATOM     33  C   UNL     1      -0.905  10.313  18.607  0.00  0.00    +0.000 A 
ATOM     34 CL   UNL     1       0.579   9.523  19.018  0.00  0.00    +0.000 Cl
ENDBRANCH  26  27
ENDBRANCH  14  26
TORSDOF 4
ENDMDL
