MODEL 1
REMARK VINA RESULT:      -9.3      0.000      0.000
REMARK  Name = 
REMARK  5 active torsions:
REMARK  status: ('A' for Active; 'I' for Inactive)
REMARK    1  A    between atoms: C_2  and  C_5
REMARK    2  A    between atoms: C_7  and  C_8
REMARK    3  A    between atoms: N_12  and  C_13
REMARK    4  A    between atoms: C_16  and  N_17
REMARK    5  A    between atoms: C_19  and  C_20
REMARK                            x       y       z     vdW  Elec       q    Type
REMARK                         _______ _______ _______ _____ _____    ______ ____
ROOT
ATOM      1  C   UNL     1       2.790   6.977  18.568  0.00  0.00    +0.000 A 
ATOM      2  C   UNL     1       2.357   8.096  17.853  0.00  0.00    +0.000 A 
ATOM      3  C   UNL     1       1.625   9.101  18.487  0.00  0.00    +0.000 A 
ATOM      4  C   UNL     1       1.299   8.989  19.841  0.00  0.00    +0.000 A 
ATOM      5  C   UNL     1       1.669   7.835  20.545  0.00  0.00    +0.000 A 
ATOM      6  C   UNL     1       2.399   6.823  19.907  0.00  0.00    +0.000 A 
ENDROOT
BRANCH   1  10
ATOM      7  C   UNL     1       5.441   5.197  17.125  0.00  0.00    +0.000 A 
ATOM      8  C   UNL     1       4.547   4.113  17.250  0.00  0.00    +0.000 A 
ATOM      9  C   UNL     1       3.366   4.651  17.722  0.00  0.00    +0.000 A 
ATOM     10  N   UNL     1       3.613   5.986  17.961  0.00  0.00    +0.000 N 
ATOM     11  N   UNL     1       4.843   6.343  17.499  0.00  0.00    +0.000 NA
BRANCH   7  13
ATOM     12  F   UNL     1       7.639   4.337  17.382  0.00  0.00    +0.000 F 
ATOM     13  C   UNL     1       6.856   5.137  16.605  0.00  0.00    +0.000 C 
ATOM     14  F   UNL     1       7.453   6.358  16.591  0.00  0.00    +0.000 F 
ATOM     15  F   UNL     1       6.930   4.638  15.344  0.00  0.00    +0.000 F 
ENDBRANCH   7  13
BRANCH   9  16
ATOM     16  C   UNL     1       2.040   4.020  17.833  0.00  0.00    +0.000 C 
ATOM     17  F   UNL     1       2.045   2.774  17.291  0.00  0.00    +0.000 F 
ATOM     18  F   UNL     1       1.641   3.863  19.118  0.00  0.00    +0.000 F 
ATOM     19  F   UNL     1       1.076   4.715  17.185  0.00  0.00    +0.000 F 
ENDBRANCH   9  16
ENDBRANCH   1  10
BRANCH   4  20
ATOM     20  N   UNL     1       0.589  10.029  20.492  0.00  0.00    +0.000 N 
ATOM     21  C   UNL     1      -0.701  10.441  20.272  0.00  0.00    +0.000 A 
ATOM     22  C   UNL     1      -0.916  11.440  21.191  0.00  0.00    +0.000 A 
ATOM     23  N   UNL     1       0.232  11.648  21.903  0.00  0.00    +0.000 NA
ATOM     24  N   UNL     1       1.147  10.787  21.470  0.00  0.00    +0.000 NA
BRANCH  22  25
ATOM     25  C   UNL     1      -2.170  12.138  21.397  0.00  0.00    +0.000 A 
ATOM     26  C   UNL     1      -2.669  12.333  22.680  0.00  0.00    +0.000 A 
ATOM     27  C   UNL     1      -3.904  12.956  22.828  0.00  0.00    +0.000 A 
ATOM     28  C   UNL     1      -4.602  13.367  21.699  0.00  0.00    +0.000 A 
ATOM     29  C   UNL     1      -4.028  13.146  20.459  0.00  0.00    +0.000 A 
ATOM     30  N   UNL     1      -2.831  12.545  20.281  0.00  0.00    +0.000 NA
ENDBRANCH  22  25
ENDBRANCH   4  20
TORSDOF 5
ENDMDL
MODEL 2
REMARK VINA RESULT:      -9.1      0.815      1.211
REMARK  Name = 
REMARK  5 active torsions:
REMARK  status: ('A' for Active; 'I' for Inactive)
REMARK    1  A    between atoms: C_2  and  C_5
REMARK    2  A    between atoms: C_7  and  C_8
REMARK    3  A    between atoms: N_12  and  C_13
REMARK    4  A    between atoms: C_16  and  N_17
REMARK    5  A    between atoms: C_19  and  C_20
REMARK                            x       y       z     vdW  Elec       q    Type
REMARK                         _______ _______ _______ _____ _____    ______ ____
ROOT
ATOM      1  C   UNL     1       2.804   6.808  18.698  0.00  0.00    +0.000 A 
ATOM      2  C   UNL     1       2.343   8.002  18.139  0.00  0.00    +0.000 A 
ATOM      3  C   UNL     1       1.610   8.907  18.907  0.00  0.00    +0.000 A 
ATOM      4  C   UNL     1       1.309   8.620  20.240  0.00  0.00    +0.000 A 
ATOM      5  C   UNL     1       1.707   7.392  20.786  0.00  0.00    +0.000 A 
ATOM      6  C   UNL     1       2.438   6.480  20.013  0.00  0.00    +0.000 A 
ENDROOT
BRANCH   1  10
ATOM      7  C   UNL     1       5.438   5.285  16.961  0.00  0.00    +0.000 A 
ATOM      8  C   UNL     1       4.589   4.159  17.020  0.00  0.00    +0.000 A 
ATOM      9  C   UNL     1       3.416   4.601  17.598  0.00  0.00    +0.000 A 
ATOM     10  N   UNL     1       3.628   5.914  17.958  0.00  0.00    +0.000 N 
ATOM     11  N   UNL     1       4.820   6.363  17.476  0.00  0.00    +0.000 NA
BRANCH   7  13
ATOM     12  F   UNL     1       7.475   6.479  16.715  0.00  0.00    +0.000 F 
ATOM     13  C   UNL     1       6.825   5.331  16.372  0.00  0.00    +0.000 C 
ATOM     14  F   UNL     1       6.811   5.293  15.014  0.00  0.00    +0.000 F 
ATOM     15  F   UNL     1       7.609   4.306  16.795  0.00  0.00    +0.000 F 
ENDBRANCH   7  13
BRANCH   9  16
ATOM     16  C   UNL     1       2.120   3.910  17.709  0.00  0.00    +0.000 C 
ATOM     17  F   UNL     1       2.131   2.738  17.021  0.00  0.00    +0.000 F 
ATOM     18  F   UNL     1       1.806   3.587  18.986  0.00  0.00    +0.000 F 
ATOM     19  F   UNL     1       1.096   4.639  17.204  0.00  0.00    +0.000 F 
ENDBRANCH   9  16
ENDBRANCH   1  10
BRANCH   4  20
ATOM     20  N   UNL     1       0.598   9.558  21.029  0.00  0.00    +0.000 N 
ATOM     21  C   UNL     1      -0.419  10.393  20.641  0.00  0.00    +0.000 A 
ATOM     22  C   UNL     1      -0.790  11.057  21.785  0.00  0.00    +0.000 A 
ATOM     23  N   UNL     1       0.018  10.661  22.815  0.00  0.00    +0.000 NA
ATOM     24  N   UNL     1       0.864   9.750  22.346  0.00  0.00    +0.000 NA
BRANCH  22  25
ATOM     25  C   UNL     1      -1.887  12.000  21.894  0.00  0.00    +0.000 A 
ATOM     26  C   UNL     1      -2.190  12.856  20.843  0.00  0.00    +0.000 A 
ATOM     27  C   UNL     1      -3.213  13.784  21.013  0.00  0.00    +0.000 A 
ATOM     28  C   UNL     1      -3.901  13.830  22.220  0.00  0.00    +0.000 A 
ATOM     29  C   UNL     1      -3.543  12.932  23.211  0.00  0.00    +0.000 A 
ATOM     30  N   UNL     1      -2.557  12.019  23.077  0.00  0.00    +0.000 NA
ENDBRANCH  22  25
ENDBRANCH   4  20
TORSDOF 5
ENDMDL
MODEL 3
REMARK VINA RESULT:      -9.1      0.521      1.290
REMARK  Name = 
REMARK  5 active torsions:
REMARK  status: ('A' for Active; 'I' for Inactive)
REMARK    1  A    between atoms: C_2  and  C_5
REMARK    2  A    between atoms: C_7  and  C_8
REMARK    3  A    between atoms: N_12  and  C_13
REMARK    4  A    between atoms: C_16  and  N_17
REMARK    5  A    between atoms: C_19  and  C_20
REMARK                            x       y       z     vdW  Elec       q    Type
REMARK                         _______ _______ _______ _____ _____    ______ ____
ROOT
ATOM      1  C   UNL     1       2.804   6.908  18.628  0.00  0.00    +0.000 A 
ATOM      2  C   UNL     1       2.391   8.023  17.895  0.00  0.00    +0.000 A 
ATOM      3  C   UNL     1       1.660   9.042  18.508  0.00  0.00    +0.000 A 
ATOM      4  C   UNL     1       1.316   8.949  19.859  0.00  0.00    +0.000 A 
ATOM      5  C   UNL     1       1.667   7.800  20.581  0.00  0.00    +0.000 A 
ATOM      6  C   UNL     1       2.395   6.774  19.963  0.00  0.00    +0.000 A 
ENDROOT
BRANCH   1  10
ATOM      7  C   UNL     1       5.461   5.081  17.257  0.00  0.00    +0.000 A 
ATOM      8  C   UNL     1       4.543   4.014  17.356  0.00  0.00    +0.000 A 
ATOM      9  C   UNL     1       3.360   4.573  17.796  0.00  0.00    +0.000 A 
ATOM     10  N   UNL     1       3.625   5.903  18.043  0.00  0.00    +0.000 N 
ATOM     11  N   UNL     1       4.874   6.237  17.615  0.00  0.00    +0.000 NA
BRANCH   7  13
ATOM     12  F   UNL     1       6.985   4.264  15.630  0.00  0.00    +0.000 F 
ATOM     13  C   UNL     1       6.888   4.995  16.776  0.00  0.00    +0.000 C 
ATOM     14  F   UNL     1       7.703   4.395  17.682  0.00  0.00    +0.000 F 
ATOM     15  F   UNL     1       7.421   6.213  16.499  0.00  0.00    +0.000 F 
ENDBRANCH   7  13
BRANCH   9  16
ATOM     16  C   UNL     1       2.021   3.966  17.870  0.00  0.00    +0.000 C 
ATOM     17  F   UNL     1       1.108   4.712  17.195  0.00  0.00    +0.000 F 
ATOM     18  F   UNL     1       1.974   2.731  17.315  0.00  0.00    +0.000 F 
ATOM     19  F   UNL     1       1.565   3.863  19.142  0.00  0.00    +0.000 F 
ENDBRANCH   9  16
ENDBRANCH   1  10
BRANCH   4  20
ATOM     20  N   UNL     1       0.608  10.003  20.489  0.00  0.00    +0.000 N 
ATOM     21  C   UNL     1      -0.684  10.406  20.267  0.00  0.00    +0.000 A 
ATOM     22  C   UNL     1      -0.896  11.427  21.163  0.00  0.00    +0.000 A 
ATOM     23  N   UNL     1       0.257  11.655  21.862  0.00  0.00    +0.000 NA
ATOM     24  N   UNL     1       1.170  10.786  21.445  0.00  0.00    +0.000 NA
BRANCH  22  25
ATOM     25  C   UNL     1      -2.150  12.127  21.360  0.00  0.00    +0.000 A 
ATOM     26  C   UNL     1      -2.816  12.704  20.285  0.00  0.00    +0.000 A 
ATOM     27  C   UNL     1      -3.986  13.416  20.529  0.00  0.00    +0.000 A 
ATOM     28  C   UNL     1      -4.457  13.530  21.832  0.00  0.00    +0.000 A 
ATOM     29  C   UNL     1      -3.741  12.915  22.843  0.00  0.00    +0.000 A 
ATOM     30  N   UNL     1      -2.602  12.216  22.640  0.00  0.00    +0.000 NA
ENDBRANCH  22  25
ENDBRANCH   4  20
TORSDOF 5
ENDMDL
MODEL 4
REMARK VINA RESULT:      -9.1      1.047      1.715
REMARK  Name = 
REMARK  5 active torsions:
REMARK  status: ('A' for Active; 'I' for Inactive)
REMARK    1  A    between atoms: C_2  and  C_5
REMARK    2  A    between atoms: C_7  and  C_8
REMARK    3  A    between atoms: N_12  and  C_13
REMARK    4  A    between atoms: C_16  and  N_17
REMARK    5  A    between atoms: C_19  and  C_20
REMARK                            x       y       z     vdW  Elec       q    Type
REMARK                         _______ _______ _______ _____ _____    ______ ____
ROOT
ATOM      1  C   UNL     1       2.856   7.036  18.570  0.00  0.00    +0.000 A 
ATOM      2  C   UNL     1       2.394   7.033  19.888  0.00  0.00    +0.000 A 
ATOM      3  C   UNL     1       1.521   8.025  20.335  0.00  0.00    +0.000 A 
ATOM      4  C   UNL     1       1.114   9.047  19.473  0.00  0.00    +0.000 A 
ATOM      5  C   UNL     1       1.630   9.095  18.171  0.00  0.00    +0.000 A 
ATOM      6  C   UNL     1       2.512   8.102  17.725  0.00  0.00    +0.000 A 
ENDROOT
BRANCH   1  10
ATOM      7  C   UNL     1       5.520   5.085  17.399  0.00  0.00    +0.000 A 
ATOM      8  C   UNL     1       4.577   4.042  17.524  0.00  0.00    +0.000 A 
ATOM      9  C   UNL     1       3.392   4.648  17.889  0.00  0.00    +0.000 A 
ATOM     10  N   UNL     1       3.676   5.984  18.072  0.00  0.00    +0.000 N 
ATOM     11  N   UNL     1       4.945   6.271  17.671  0.00  0.00    +0.000 NA
BRANCH   7  13
ATOM     12  F   UNL     1       7.715   4.372  17.954  0.00  0.00    +0.000 F 
ATOM     13  C   UNL     1       6.961   4.945  16.975  0.00  0.00    +0.000 C 
ATOM     14  F   UNL     1       7.537   6.145  16.702  0.00  0.00    +0.000 F 
ATOM     15  F   UNL     1       7.109   4.167  15.872  0.00  0.00    +0.000 F 
ENDBRANCH   7  13
BRANCH   9  16
ATOM     16  C   UNL     1       2.038   4.072  17.949  0.00  0.00    +0.000 C 
ATOM     17  F   UNL     1       2.020   2.811  17.443  0.00  0.00    +0.000 F 
ATOM     18  F   UNL     1       1.567   3.969  19.215  0.00  0.00    +0.000 F 
ATOM     19  F   UNL     1       1.136   4.784  17.231  0.00  0.00    +0.000 F 
ENDBRANCH   9  16
ENDBRANCH   1  10
BRANCH   4  20
ATOM     20  N   UNL     1       0.196  10.031  19.917  0.00  0.00    +0.000 N 
ATOM     21  C   UNL     1       0.078  10.575  21.171  0.00  0.00    +0.000 A 
ATOM     22  C   UNL     1      -0.923  11.510  21.061  0.00  0.00    +0.000 A 
ATOM     23  N   UNL     1      -1.419  11.486  19.786  0.00  0.00    +0.000 NA
ATOM     24  N   UNL     1      -0.735  10.581  19.096  0.00  0.00    +0.000 NA
BRANCH  22  25
ATOM     25  C   UNL     1      -1.360  12.405  22.114  0.00  0.00    +0.000 A 
ATOM     26  C   UNL     1      -2.581  12.208  22.748  0.00  0.00    +0.000 A 
ATOM     27  C   UNL     1      -2.987  13.125  23.713  0.00  0.00    +0.000 A 
ATOM     28  C   UNL     1      -2.167  14.205  24.018  0.00  0.00    +0.000 A 
ATOM     29  C   UNL     1      -0.961  14.319  23.349  0.00  0.00    +0.000 A 
ATOM     30  N   UNL     1      -0.537  13.447  22.408  0.00  0.00    +0.000 NA
ENDBRANCH  22  25
ENDBRANCH   4  20
TORSDOF 5
ENDMDL
MODEL 5
REMARK VINA RESULT:      -9.1      0.314      1.041
REMARK  Name = 
REMARK  5 active torsions:
REMARK  status: ('A' for Active; 'I' for Inactive)
REMARK    1  A    between atoms: C_2  and  C_5
REMARK    2  A    between atoms: C_7  and  C_8
REMARK    3  A    between atoms: N_12  and  C_13
REMARK    4  A    between atoms: C_16  and  N_17
REMARK    5  A    between atoms: C_19  and  C_20
REMARK                            x       y       z     vdW  Elec       q    Type
REMARK                         _______ _______ _______ _____ _____    ______ ____
ROOT
ATOM      1  C   UNL     1       2.772   6.931  18.638  0.00  0.00    +0.000 A 
ATOM      2  C   UNL     1       2.340   8.027  17.888  0.00  0.00    +0.000 A 
ATOM      3  C   UNL     1       1.608   9.052  18.489  0.00  0.00    +0.000 A 
ATOM      4  C   UNL     1       1.281   8.983  19.846  0.00  0.00    +0.000 A 
ATOM      5  C   UNL     1       1.651   7.852  20.586  0.00  0.00    +0.000 A 
ATOM      6  C   UNL     1       2.381   6.821  19.980  0.00  0.00    +0.000 A 
ENDROOT
BRANCH   1  10
ATOM      7  C   UNL     1       5.433   5.094  17.288  0.00  0.00    +0.000 A 
ATOM      8  C   UNL     1       4.515   4.027  17.393  0.00  0.00    +0.000 A 
ATOM      9  C   UNL     1       3.331   4.590  17.825  0.00  0.00    +0.000 A 
ATOM     10  N   UNL     1       3.595   5.921  18.063  0.00  0.00    +0.000 N 
ATOM     11  N   UNL     1       4.844   6.253  17.636  0.00  0.00    +0.000 NA
BRANCH   7  13
ATOM     12  F   UNL     1       7.374   6.237  16.538  0.00  0.00    +0.000 F 
ATOM     13  C   UNL     1       6.861   5.005  16.811  0.00  0.00    +0.000 C 
ATOM     14  F   UNL     1       6.979   4.280  15.668  0.00  0.00    +0.000 F 
ATOM     15  F   UNL     1       7.686   4.442  17.731  0.00  0.00    +0.000 F 
ENDBRANCH   7  13
BRANCH   9  16
ATOM     16  C   UNL     1       1.991   3.983  17.901  0.00  0.00    +0.000 C 
ATOM     17  F   UNL     1       1.084   4.711  17.198  0.00  0.00    +0.000 F 
ATOM     18  F   UNL     1       1.951   2.735  17.376  0.00  0.00    +0.000 F 
ATOM     19  F   UNL     1       1.522   3.912  19.170  0.00  0.00    +0.000 F 
ENDBRANCH   9  16
ENDBRANCH   1  10
BRANCH   4  20
ATOM     20  N   UNL     1       0.572  10.044  20.463  0.00  0.00    +0.000 N 
ATOM     21  C   UNL     1      -0.644  10.569  20.107  0.00  0.00    +0.000 A 
ATOM     22  C   UNL     1      -0.903  11.535  21.050  0.00  0.00    +0.000 A 
ATOM     23  N   UNL     1       0.155  11.614  21.912  0.00  0.00    +0.000 NA
ATOM     24  N   UNL     1       1.051  10.704  21.548  0.00  0.00    +0.000 NA
BRANCH  22  25
ATOM     25  C   UNL     1      -2.118  12.322  21.138  0.00  0.00    +0.000 A 
ATOM     26  C   UNL     1      -2.426  13.021  22.300  0.00  0.00    +0.000 A 
ATOM     27  C   UNL     1      -3.630  13.715  22.361  0.00  0.00    +0.000 A 
ATOM     28  C   UNL     1      -4.488  13.694  21.267  0.00  0.00    +0.000 A 
ATOM     29  C   UNL     1      -4.099  12.983  20.145  0.00  0.00    +0.000 A 
ATOM     30  N   UNL     1      -2.938  12.300  20.053  0.00  0.00    +0.000 NA
ENDBRANCH  22  25
ENDBRANCH   4  20
TORSDOF 5
ENDMDL
MODEL 6
REMARK VINA RESULT:      -9.0      0.775      1.447
REMARK  Name = 
REMARK  5 active torsions:
REMARK  status: ('A' for Active; 'I' for Inactive)
REMARK    1  A    between atoms: C_2  and  C_5
REMARK    2  A    between atoms: C_7  and  C_8
REMARK    3  A    between atoms: N_12  and  C_13
REMARK    4  A    between atoms: C_16  and  N_17
REMARK    5  A    between atoms: C_19  and  C_20
REMARK                            x       y       z     vdW  Elec       q    Type
REMARK                         _______ _______ _______ _____ _____    ______ ____
ROOT
ATOM      1  C   UNL     1       2.910   7.026  18.313  0.00  0.00    +0.000 A 
ATOM      2  C   UNL     1       2.436   7.068  19.626  0.00  0.00    +0.000 A 
ATOM      3  C   UNL     1       1.671   8.148  20.069  0.00  0.00    +0.000 A 
ATOM      4  C   UNL     1       1.386   9.211  19.208  0.00  0.00    +0.000 A 
ATOM      5  C   UNL     1       1.919   9.208  17.912  0.00  0.00    +0.000 A 
ATOM      6  C   UNL     1       2.692   8.126  17.469  0.00  0.00    +0.000 A 
ENDROOT
BRANCH   1  10
ATOM      7  C   UNL     1       5.331   4.836  17.043  0.00  0.00    +0.000 A 
ATOM      8  C   UNL     1       4.347   3.866  17.330  0.00  0.00    +0.000 A 
ATOM      9  C   UNL     1       3.239   4.569  17.759  0.00  0.00    +0.000 A 
ATOM     10  N   UNL     1       3.615   5.893  17.818  0.00  0.00    +0.000 N 
ATOM     11  N   UNL     1       4.854   6.071  17.282  0.00  0.00    +0.000 NA
BRANCH   7  13
ATOM     12  F   UNL     1       7.252   5.700  15.948  0.00  0.00    +0.000 F 
ATOM     13  C   UNL     1       6.714   4.576  16.499  0.00  0.00    +0.000 C 
ATOM     14  F   UNL     1       6.715   3.633  15.521  0.00  0.00    +0.000 F 
ATOM     15  F   UNL     1       7.584   4.164  17.457  0.00  0.00    +0.000 F 
ENDBRANCH   7  13
BRANCH   9  16
ATOM     16  C   UNL     1       1.866   4.086  17.984  0.00  0.00    +0.000 C 
ATOM     17  F   UNL     1       1.745   2.777  17.640  0.00  0.00    +0.000 F 
ATOM     18  F   UNL     1       1.491   4.162  19.283  0.00  0.00    +0.000 F 
ATOM     19  F   UNL     1       0.949   4.760  17.250  0.00  0.00    +0.000 F 
ENDBRANCH   9  16
ENDBRANCH   1  10
BRANCH   4  20
ATOM     20  N   UNL     1       0.576  10.287  19.648  0.00  0.00    +0.000 N 
ATOM     21  C   UNL     1      -0.515  10.242  20.479  0.00  0.00    +0.000 A 
ATOM     22  C   UNL     1      -0.904  11.551  20.626  0.00  0.00    +0.000 A 
ATOM     23  N   UNL     1      -0.095  12.347  19.863  0.00  0.00    +0.000 NA
ATOM     24  N   UNL     1       0.803  11.570  19.267  0.00  0.00    +0.000 NA
BRANCH  22  25
ATOM     25  C   UNL     1      -1.977  12.020  21.481  0.00  0.00    +0.000 A 
ATOM     26  C   UNL     1      -1.941  11.792  22.852  0.00  0.00    +0.000 A 
ATOM     27  C   UNL     1      -3.020  12.208  23.626  0.00  0.00    +0.000 A 
ATOM     28  C   UNL     1      -4.097  12.838  23.014  0.00  0.00    +0.000 A 
ATOM     29  C   UNL     1      -4.048  13.037  21.645  0.00  0.00    +0.000 A 
ATOM     30  N   UNL     1      -3.015  12.647  20.866  0.00  0.00    +0.000 NA
ENDBRANCH  22  25
ENDBRANCH   4  20
TORSDOF 5
ENDMDL
MODEL 7
REMARK VINA RESULT:      -9.0      0.807      1.445
REMARK  Name = 
REMARK  5 active torsions:
REMARK  status: ('A' for Active; 'I' for Inactive)
REMARK    1  A    between atoms: C_2  and  C_5
REMARK    2  A    between atoms: C_7  and  C_8
REMARK    3  A    between atoms: N_12  and  C_13
REMARK    4  A    between atoms: C_16  and  N_17
REMARK    5  A    between atoms: C_19  and  C_20
REMARK                            x       y       z     vdW  Elec       q    Type
REMARK                         _______ _______ _______ _____ _____    ______ ____
ROOT
ATOM      1  C   UNL     1       2.876   7.156  18.419  0.00  0.00    +0.000 A 
ATOM      2  C   UNL     1       2.366   7.216  19.718  0.00  0.00    +0.000 A 
ATOM      3  C   UNL     1       1.542   8.273  20.107  0.00  0.00    +0.000 A 
ATOM      4  C   UNL     1       1.234   9.296  19.207  0.00  0.00    +0.000 A 
ATOM      5  C   UNL     1       1.801   9.278  17.925  0.00  0.00    +0.000 A 
ATOM      6  C   UNL     1       2.633   8.220  17.537  0.00  0.00    +0.000 A 
ENDROOT
BRANCH   1  10
ATOM      7  C   UNL     1       5.437   5.029  17.327  0.00  0.00    +0.000 A 
ATOM      8  C   UNL     1       4.461   4.034  17.547  0.00  0.00    +0.000 A 
ATOM      9  C   UNL     1       3.308   4.708  17.896  0.00  0.00    +0.000 A 
ATOM     10  N   UNL     1       3.644   6.042  17.977  0.00  0.00    +0.000 N 
ATOM     11  N   UNL     1       4.912   6.252  17.528  0.00  0.00    +0.000 NA
BRANCH   7  13
ATOM     12  F   UNL     1       7.608   4.234  17.866  0.00  0.00    +0.000 F 
ATOM     13  C   UNL     1       6.861   4.806  16.881  0.00  0.00    +0.000 C 
ATOM     14  F   UNL     1       7.487   5.967  16.553  0.00  0.00    +0.000 F 
ATOM     15  F   UNL     1       6.950   3.983  15.805  0.00  0.00    +0.000 F 
ENDBRANCH   7  13
BRANCH   9  16
ATOM     16  C   UNL     1       1.936   4.188  18.028  0.00  0.00    +0.000 C 
ATOM     17  F   UNL     1       1.069   4.898  17.259  0.00  0.00    +0.000 F 
ATOM     18  F   UNL     1       1.822   2.901  17.621  0.00  0.00    +0.000 F 
ATOM     19  F   UNL     1       1.470   4.262  19.297  0.00  0.00    +0.000 F 
ENDBRANCH   9  16
ENDBRANCH   1  10
BRANCH   4  20
ATOM     20  N   UNL     1       0.365  10.347  19.592  0.00  0.00    +0.000 N 
ATOM     21  C   UNL     1      -0.593  10.337  20.573  0.00  0.00    +0.000 A 
ATOM     22  C   UNL     1      -1.114  11.609  20.575  0.00  0.00    +0.000 A 
ATOM     23  N   UNL     1      -0.514  12.339  19.586  0.00  0.00    +0.000 NA
ATOM     24  N   UNL     1       0.385  11.563  18.989  0.00  0.00    +0.000 NA
BRANCH  22  25
ATOM     25  C   UNL     1      -2.114  12.109  21.498  0.00  0.00    +0.000 A 
ATOM     26  C   UNL     1      -2.034  11.816  22.854  0.00  0.00    +0.000 A 
ATOM     27  C   UNL     1      -3.046  12.268  23.695  0.00  0.00    +0.000 A 
ATOM     28  C   UNL     1      -4.103  12.997  23.162  0.00  0.00    +0.000 A 
ATOM     29  C   UNL     1      -4.099  13.255  21.802  0.00  0.00    +0.000 A 
ATOM     30  N   UNL     1      -3.131  12.832  20.960  0.00  0.00    +0.000 NA
ENDBRANCH  22  25
ENDBRANCH   4  20
TORSDOF 5
ENDMDL
MODEL 8
REMARK VINA RESULT:      -9.0      1.096      1.837
REMARK  Name = 
REMARK  5 active torsions:
REMARK  status: ('A' for Active; 'I' for Inactive)
REMARK    1  A    between atoms: C_2  and  C_5
REMARK    2  A    between atoms: C_7  and  C_8
REMARK    3  A    between atoms: N_12  and  C_13
REMARK    4  A    between atoms: C_16  and  N_17
REMARK    5  A    between atoms: C_19  and  C_20
REMARK                            x       y       z     vdW  Elec       q    Type
REMARK                         _______ _______ _______ _____ _____    ______ ____
ROOT
ATOM      1  C   UNL     1       2.807   7.126  18.501  0.00  0.00    +0.000 A 
ATOM      2  C   UNL     1       2.370   7.185  19.827  0.00  0.00    +0.000 A 
ATOM      3  C   UNL     1       1.508   8.200  20.244  0.00  0.00    +0.000 A 
ATOM      4  C   UNL     1       1.087   9.182  19.344  0.00  0.00    +0.000 A 
ATOM      5  C   UNL     1       1.578   9.169  18.031  0.00  0.00    +0.000 A 
ATOM      6  C   UNL     1       2.449   8.153  17.615  0.00  0.00    +0.000 A 
ENDROOT
BRANCH   1  10
ATOM      7  C   UNL     1       5.448   5.108  17.394  0.00  0.00    +0.000 A 
ATOM      8  C   UNL     1       4.493   4.081  17.550  0.00  0.00    +0.000 A 
ATOM      9  C   UNL     1       3.314   4.712  17.895  0.00  0.00    +0.000 A 
ATOM     10  N   UNL     1       3.614   6.050  18.037  0.00  0.00    +0.000 N 
ATOM     11  N   UNL     1       4.887   6.309  17.629  0.00  0.00    +0.000 NA
BRANCH   7  13
ATOM     12  F   UNL     1       7.475   6.139  16.710  0.00  0.00    +0.000 F 
ATOM     13  C   UNL     1       6.888   4.938  16.977  0.00  0.00    +0.000 C 
ATOM     14  F   UNL     1       7.013   4.193  15.848  0.00  0.00    +0.000 F 
ATOM     15  F   UNL     1       7.644   4.346  17.937  0.00  0.00    +0.000 F 
ENDBRANCH   7  13
BRANCH   9  16
ATOM     16  C   UNL     1       1.954   4.154  17.971  0.00  0.00    +0.000 C 
ATOM     17  F   UNL     1       1.932   2.859  17.559  0.00  0.00    +0.000 F 
ATOM     18  F   UNL     1       1.459   4.150  19.231  0.00  0.00    +0.000 F 
ATOM     19  F   UNL     1       1.073   4.819  17.185  0.00  0.00    +0.000 F 
ENDBRANCH   9  16
ENDBRANCH   1  10
BRANCH   4  20
ATOM     20  N   UNL     1       0.180  10.189  19.759  0.00  0.00    +0.000 N 
ATOM     21  C   UNL     1      -0.045  10.654  21.030  0.00  0.00    +0.000 A 
ATOM     22  C   UNL     1      -0.976  11.654  20.883  0.00  0.00    +0.000 A 
ATOM     23  N   UNL     1      -1.331  11.745  19.566  0.00  0.00    +0.000 NA
ATOM     24  N   UNL     1      -0.624  10.848  18.886  0.00  0.00    +0.000 NA
BRANCH  22  25
ATOM     25  C   UNL     1      -1.478  12.501  21.948  0.00  0.00    +0.000 A 
ATOM     26  C   UNL     1      -0.677  13.495  22.498  0.00  0.00    +0.000 A 
ATOM     27  C   UNL     1      -1.178  14.245  23.557  0.00  0.00    +0.000 A 
ATOM     28  C   UNL     1      -2.459  13.986  24.032  0.00  0.00    +0.000 A 
ATOM     29  C   UNL     1      -3.195  12.987  23.419  0.00  0.00    +0.000 A 
ATOM     30  N   UNL     1      -2.737  12.242  22.389  0.00  0.00    +0.000 NA
ENDBRANCH  22  25
ENDBRANCH   4  20
TORSDOF 5
ENDMDL
MODEL 9
REMARK VINA RESULT:      -8.9      1.098      1.704
REMARK  Name = 
REMARK  5 active torsions:
REMARK  status: ('A' for Active; 'I' for Inactive)
REMARK    1  A    between atoms: C_2  and  C_5
REMARK    2  A    between atoms: C_7  and  C_8
REMARK    3  A    between atoms: N_12  and  C_13
REMARK    4  A    between atoms: C_16  and  N_17
REMARK    5  A    between atoms: C_19  and  C_20
REMARK                            x       y       z     vdW  Elec       q    Type
REMARK                         _______ _______ _______ _____ _____    ______ ____
ROOT
ATOM      1  C   UNL     1       2.722   7.115  18.484  0.00  0.00    +0.000 A 
ATOM      2  C   UNL     1       2.307   8.108  17.593  0.00  0.00    +0.000 A 
ATOM      3  C   UNL     1       1.553   9.193  18.043  0.00  0.00    +0.000 A 
ATOM      4  C   UNL     1       1.186   9.288  19.388  0.00  0.00    +0.000 A 
ATOM      5  C   UNL     1       1.539   8.259  20.271  0.00  0.00    +0.000 A 
ATOM      6  C   UNL     1       2.291   7.167  19.818  0.00  0.00    +0.000 A 
ENDROOT
BRANCH   1  10
ATOM      7  C   UNL     1       5.436   5.142  17.479  0.00  0.00    +0.000 A 
ATOM      8  C   UNL     1       4.505   4.094  17.639  0.00  0.00    +0.000 A 
ATOM      9  C   UNL     1       3.304   4.702  17.945  0.00  0.00    +0.000 A 
ATOM     10  N   UNL     1       3.566   6.050  18.061  0.00  0.00    +0.000 N 
ATOM     11  N   UNL     1       4.840   6.332  17.674  0.00  0.00    +0.000 NA
BRANCH   7  13
ATOM     12  F   UNL     1       7.042   4.176  16.020  0.00  0.00    +0.000 F 
ATOM     13  C   UNL     1       6.888   4.999  17.095  0.00  0.00    +0.000 C 
ATOM     14  F   UNL     1       7.637   4.465  18.095  0.00  0.00    +0.000 F 
ATOM     15  F   UNL     1       7.458   6.184  16.755  0.00  0.00    +0.000 F 
ENDBRANCH   7  13
BRANCH   9  16
ATOM     16  C   UNL     1       1.956   4.110  18.006  0.00  0.00    +0.000 C 
ATOM     17  F   UNL     1       1.084   4.798  17.223  0.00  0.00    +0.000 F 
ATOM     18  F   UNL     1       1.924   2.832  17.560  0.00  0.00    +0.000 F 
ATOM     19  F   UNL     1       1.438   4.123  19.257  0.00  0.00    +0.000 F 
ENDBRANCH   9  16
ENDBRANCH   1  10
BRANCH   4  20
ATOM     20  N   UNL     1       0.454  10.410  19.850  0.00  0.00    +0.000 N 
ATOM     21  C   UNL     1      -0.101  10.607  21.089  0.00  0.00    +0.000 A 
ATOM     22  C   UNL     1      -0.652  11.865  21.035  0.00  0.00    +0.000 A 
ATOM     23  N   UNL     1      -0.472  12.379  19.781  0.00  0.00    +0.000 NA
ATOM     24  N   UNL     1       0.200  11.486  19.063  0.00  0.00    +0.000 NA
BRANCH  22  25
ATOM     25  C   UNL     1      -1.291  12.552  22.140  0.00  0.00    +0.000 A 
ATOM     26  C   UNL     1      -2.536  12.142  22.604  0.00  0.00    +0.000 A 
ATOM     27  C   UNL     1      -3.138  12.867  23.628  0.00  0.00    +0.000 A 
ATOM     28  C   UNL     1      -2.484  13.973  24.158  0.00  0.00    +0.000 A 
ATOM     29  C   UNL     1      -1.242  14.306  23.647  0.00  0.00    +0.000 A 
ATOM     30  N   UNL     1      -0.630  13.623  22.655  0.00  0.00    +0.000 NA
ENDBRANCH  22  25
ENDBRANCH   4  20
TORSDOF 5
ENDMDL
