MODEL 1
REMARK VINA RESULT:      -8.0      0.000      0.000
REMARK  Name = 
REMARK  9 active torsions:
REMARK  status: ('A' for Active; 'I' for Inactive)
REMARK    1  A    between atoms: C_1  and  C_2
REMARK    2  A    between atoms: C_2  and  C_3
REMARK    3  A    between atoms: C_3  and  C_11
REMARK    4  A    between atoms: N_4  and  O_5
REMARK    5  A    between atoms: O_5  and  C_6
REMARK    6  A    between atoms: C_6  and  C_7
REMARK    7  A    between atoms: C_17  and  N_18
REMARK    8  A    between atoms: N_18  and  S_19
REMARK    9  A    between atoms: S_19  and  C_22
REMARK                            x       y       z     vdW  Elec       q    Type
REMARK                         _______ _______ _______ _____ _____    ______ ____
ROOT
ATOM      1  C   UNL     1       4.413   6.515  17.705  0.00  0.00    +0.000 A 
ATOM      2  C   UNL     1       3.644   7.644  17.367  0.00  0.00    +0.000 A 
ATOM      3  C   UNL     1       2.571   8.053  18.159  0.00  0.00    +0.000 A 
ATOM      4 CL   UNL     1       1.678   9.456  17.725  0.00  0.00    +0.000 Cl
ATOM      5  C   UNL     1       2.215   7.326  19.289  0.00  0.00    +0.000 A 
ATOM      6  C   UNL     1       2.957   6.199  19.634  0.00  0.00    +0.000 A 
ATOM      7  C   UNL     1       4.057   5.791  18.866  0.00  0.00    +0.000 A 
ENDROOT
BRANCH   1   8
ATOM      8  C   UNL     1       5.549   6.102  16.780  0.00  0.00    +0.000 C 
ATOM      9  N   UNL     1       5.236   5.648  15.594  0.00  0.00    +0.000 NA
BRANCH   8  11
ATOM     10  C   UNL     1       7.623   7.644  17.553  0.00  0.00    +0.000 C 
ATOM     11  C   UNL     1       6.979   6.283  17.356  0.00  0.00    +0.000 C 
ENDBRANCH   8  11
BRANCH   9  12
ATOM     12  O   UNL     1       6.371   5.316  14.851  0.00  0.00    +0.000 OA
BRANCH  12  13
ATOM     13  C   UNL     1       6.362   3.940  14.474  0.00  0.00    +0.000 C 
BRANCH  13  14
ATOM     14  C   UNL     1       6.214   3.797  12.964  0.00  0.00    +0.000 C 
ATOM     15  F   UNL     1       6.978   4.669  12.268  0.00  0.00    +0.000 F 
ATOM     16  F   UNL     1       6.554   2.552  12.556  0.00  0.00    +0.000 F 
ATOM     17  F   UNL     1       4.930   4.002  12.579  0.00  0.00    +0.000 F 
ENDBRANCH  13  14
ENDBRANCH  12  13
ENDBRANCH   9  12
ENDBRANCH   1   8
BRANCH   7  18
ATOM     18  N   UNL     1       4.841   4.700  19.380  0.00  0.00    +0.000 N 
ATOM     19  H   UNL     1       5.270   4.922  20.293  0.00  0.00    +0.000 HD
BRANCH  18  20
ATOM     20  S   UNL     1       4.021   3.199  19.544  0.00  0.00    +0.000 S 
ATOM     21  O   UNL     1       5.073   2.280  19.950  0.00  0.00    +0.000 OA
ATOM     22  O   UNL     1       2.896   3.422  20.436  0.00  0.00    +0.000 OA
BRANCH  20  23
ATOM     23  C   UNL     1       3.428   2.743  17.811  0.00  0.00    +0.000 C 
ATOM     24  F   UNL     1       3.039   1.439  17.713  0.00  0.00    +0.000 F 
ATOM     25  F   UNL     1       2.362   3.496  17.414  0.00  0.00    +0.000 F 
ATOM     26  F   UNL     1       4.404   2.926  16.875  0.00  0.00    +0.000 F 
ENDBRANCH  20  23
ENDBRANCH  18  20
ENDBRANCH   7  18
TORSDOF 8
ENDMDL
MODEL 2
REMARK VINA RESULT:      -7.9      1.976      2.251
REMARK  Name = 
REMARK  9 active torsions:
REMARK  status: ('A' for Active; 'I' for Inactive)
REMARK    1  A    between atoms: C_1  and  C_2
REMARK    2  A    between atoms: C_2  and  C_3
REMARK    3  A    between atoms: C_3  and  C_11
REMARK    4  A    between atoms: N_4  and  O_5
REMARK    5  A    between atoms: O_5  and  C_6
REMARK    6  A    between atoms: C_6  and  C_7
REMARK    7  A    between atoms: C_17  and  N_18
REMARK    8  A    between atoms: N_18  and  S_19
REMARK    9  A    between atoms: S_19  and  C_22
REMARK                            x       y       z     vdW  Elec       q    Type
REMARK                         _______ _______ _______ _____ _____    ______ ____
ROOT
ATOM      1  C   UNL     1       4.081   6.457  18.160  0.00  0.00    +0.000 A 
ATOM      2  C   UNL     1       3.506   7.652  17.690  0.00  0.00    +0.000 A 
ATOM      3  C   UNL     1       2.382   8.206  18.303  0.00  0.00    +0.000 A 
ATOM      4 CL   UNL     1       1.730   9.683  17.714  0.00  0.00    +0.000 Cl
ATOM      5  C   UNL     1       1.782   7.564  19.380  0.00  0.00    +0.000 A 
ATOM      6  C   UNL     1       2.331   6.374  19.853  0.00  0.00    +0.000 A 
ATOM      7  C   UNL     1       3.477   5.819  19.268  0.00  0.00    +0.000 A 
ENDROOT
BRANCH   1   8
ATOM      8  C   UNL     1       5.286   5.888  17.424  0.00  0.00    +0.000 C 
ATOM      9  N   UNL     1       5.353   4.590  17.275  0.00  0.00    +0.000 NA
BRANCH   8  11
ATOM     10  C   UNL     1       7.580   7.286  17.669  0.00  0.00    +0.000 C 
ATOM     11  C   UNL     1       6.311   6.934  16.912  0.00  0.00    +0.000 C 
ENDBRANCH   8  11
BRANCH   9  12
ATOM     12  O   UNL     1       6.500   4.209  16.577  0.00  0.00    +0.000 OA
BRANCH  12  13
ATOM     13  C   UNL     1       6.171   3.503  15.381  0.00  0.00    +0.000 C 
BRANCH  13  14
ATOM     14  C   UNL     1       6.302   4.413  14.165  0.00  0.00    +0.000 C 
ATOM     15  F   UNL     1       7.472   5.092  14.132  0.00  0.00    +0.000 F 
ATOM     16  F   UNL     1       6.217   3.705  13.014  0.00  0.00    +0.000 F 
ATOM     17  F   UNL     1       5.308   5.335  14.137  0.00  0.00    +0.000 F 
ENDBRANCH  13  14
ENDBRANCH  12  13
ENDBRANCH   9  12
ENDBRANCH   1   8
BRANCH   7  18
ATOM     18  N   UNL     1       4.046   4.667  19.914  0.00  0.00    +0.000 N 
ATOM     19  H   UNL     1       4.217   4.826  20.920  0.00  0.00    +0.000 HD
BRANCH  18  20
ATOM     20  S   UNL     1       3.153   3.206  19.766  0.00  0.00    +0.000 S 
ATOM     21  O   UNL     1       2.451   3.364  18.502  0.00  0.00    +0.000 OA
ATOM     22  O   UNL     1       4.096   2.112  19.917  0.00  0.00    +0.000 OA
BRANCH  20  23
ATOM     23  C   UNL     1       1.903   3.220  21.180  0.00  0.00    +0.000 C 
ATOM     24  F   UNL     1       2.331   3.945  22.255  0.00  0.00    +0.000 F 
ATOM     25  F   UNL     1       0.704   3.751  20.808  0.00  0.00    +0.000 F 
ATOM     26  F   UNL     1       1.645   1.962  21.642  0.00  0.00    +0.000 F 
ENDBRANCH  20  23
ENDBRANCH  18  20
ENDBRANCH   7  18
TORSDOF 8
ENDMDL
MODEL 3
REMARK VINA RESULT:      -7.8      1.958      2.362
REMARK  Name = 
REMARK  9 active torsions:
REMARK  status: ('A' for Active; 'I' for Inactive)
REMARK    1  A    between atoms: C_1  and  C_2
REMARK    2  A    between atoms: C_2  and  C_3
REMARK    3  A    between atoms: C_3  and  C_11
REMARK    4  A    between atoms: N_4  and  O_5
REMARK    5  A    between atoms: O_5  and  C_6
REMARK    6  A    between atoms: C_6  and  C_7
REMARK    7  A    between atoms: C_17  and  N_18
REMARK    8  A    between atoms: N_18  and  S_19
REMARK    9  A    between atoms: S_19  and  C_22
REMARK                            x       y       z     vdW  Elec       q    Type
REMARK                         _______ _______ _______ _____ _____    ______ ____
ROOT
ATOM      1  C   UNL     1       4.126   6.465  18.123  0.00  0.00    +0.000 A 
ATOM      2  C   UNL     1       3.535   7.649  17.643  0.00  0.00    +0.000 A 
ATOM      3  C   UNL     1       2.405   8.194  18.254  0.00  0.00    +0.000 A 
ATOM      4 CL   UNL     1       1.734   9.658  17.655  0.00  0.00    +0.000 Cl
ATOM      5  C   UNL     1       1.816   7.554  19.338  0.00  0.00    +0.000 A 
ATOM      6  C   UNL     1       2.380   6.375  19.820  0.00  0.00    +0.000 A 
ATOM      7  C   UNL     1       3.532   5.829  19.236  0.00  0.00    +0.000 A 
ENDROOT
BRANCH   1   8
ATOM      8  C   UNL     1       5.336   5.905  17.388  0.00  0.00    +0.000 C 
ATOM      9  N   UNL     1       5.410   4.608  17.235  0.00  0.00    +0.000 NA
BRANCH   8  11
ATOM     10  C   UNL     1       7.595   7.352  17.669  0.00  0.00    +0.000 C 
ATOM     11  C   UNL     1       6.357   6.958  16.882  0.00  0.00    +0.000 C 
ENDBRANCH   8  11
BRANCH   9  12
ATOM     12  O   UNL     1       6.562   4.235  16.540  0.00  0.00    +0.000 OA
BRANCH  12  13
ATOM     13  C   UNL     1       6.244   3.461  15.384  0.00  0.00    +0.000 C 
BRANCH  13  14
ATOM     14  C   UNL     1       6.327   4.316  14.124  0.00  0.00    +0.000 C 
ATOM     15  F   UNL     1       6.552   3.593  13.004  0.00  0.00    +0.000 F 
ATOM     16  F   UNL     1       5.181   5.010  13.929  0.00  0.00    +0.000 F 
ATOM     17  F   UNL     1       7.329   5.224  14.217  0.00  0.00    +0.000 F 
ENDBRANCH  13  14
ENDBRANCH  12  13
ENDBRANCH   9  12
ENDBRANCH   1   8
BRANCH   7  18
ATOM     18  N   UNL     1       4.117   4.689  19.891  0.00  0.00    +0.000 N 
ATOM     19  H   UNL     1       4.291   4.861  20.895  0.00  0.00    +0.000 HD
BRANCH  18  20
ATOM     20  S   UNL     1       3.239   3.218  19.762  0.00  0.00    +0.000 S 
ATOM     21  O   UNL     1       2.455   3.396  18.550  0.00  0.00    +0.000 OA
ATOM     22  O   UNL     1       4.207   2.137  19.824  0.00  0.00    +0.000 OA
BRANCH  20  23
ATOM     23  C   UNL     1       2.082   3.174  21.253  0.00  0.00    +0.000 C 
ATOM     24  F   UNL     1       0.765   3.240  20.901  0.00  0.00    +0.000 F 
ATOM     25  F   UNL     1       2.229   2.036  21.989  0.00  0.00    +0.000 F 
ATOM     26  F   UNL     1       2.308   4.219  22.101  0.00  0.00    +0.000 F 
ENDBRANCH  20  23
ENDBRANCH  18  20
ENDBRANCH   7  18
TORSDOF 8
ENDMDL
MODEL 4
REMARK VINA RESULT:      -7.7      0.906      1.080
REMARK  Name = 
REMARK  9 active torsions:
REMARK  status: ('A' for Active; 'I' for Inactive)
REMARK    1  A    between atoms: C_1  and  C_2
REMARK    2  A    between atoms: C_2  and  C_3
REMARK    3  A    between atoms: C_3  and  C_11
REMARK    4  A    between atoms: N_4  and  O_5
REMARK    5  A    between atoms: O_5  and  C_6
REMARK    6  A    between atoms: C_6  and  C_7
REMARK    7  A    between atoms: C_17  and  N_18
REMARK    8  A    between atoms: N_18  and  S_19
REMARK    9  A    between atoms: S_19  and  C_22
REMARK                            x       y       z     vdW  Elec       q    Type
REMARK                         _______ _______ _______ _____ _____    ______ ____
ROOT
ATOM      1  C   UNL     1       4.749   6.019  18.044  0.00  0.00    +0.000 A 
ATOM      2  C   UNL     1       3.971   7.122  17.643  0.00  0.00    +0.000 A 
ATOM      3  C   UNL     1       2.761   7.421  18.269  0.00  0.00    +0.000 A 
ATOM      4 CL   UNL     1       1.858   8.795  17.768  0.00  0.00    +0.000 Cl
ATOM      5  C   UNL     1       2.279   6.608  19.289  0.00  0.00    +0.000 A 
ATOM      6  C   UNL     1       3.029   5.506  19.693  0.00  0.00    +0.000 A 
ATOM      7  C   UNL     1       4.261   5.207  19.094  0.00  0.00    +0.000 A 
ENDROOT
BRANCH   1   8
ATOM      8  C   UNL     1       6.041   5.727  17.294  0.00  0.00    +0.000 C 
ATOM      9  N   UNL     1       5.980   4.931  16.259  0.00  0.00    +0.000 NA
BRANCH   8  11
ATOM     10  C   UNL     1       7.639   7.886  17.555  0.00  0.00    +0.000 C 
ATOM     11  C   UNL     1       7.308   6.432  17.849  0.00  0.00    +0.000 C 
ENDBRANCH   8  11
BRANCH   9  12
ATOM     12  O   UNL     1       7.232   4.759  15.664  0.00  0.00    +0.000 OA
BRANCH  12  13
ATOM     13  C   UNL     1       7.176   4.992  14.258  0.00  0.00    +0.000 C 
BRANCH  13  14
ATOM     14  C   UNL     1       6.290   3.956  13.576  0.00  0.00    +0.000 C 
ATOM     15  F   UNL     1       6.735   3.598  12.350  0.00  0.00    +0.000 F 
ATOM     16  F   UNL     1       6.201   2.826  14.316  0.00  0.00    +0.000 F 
ATOM     17  F   UNL     1       5.027   4.424  13.417  0.00  0.00    +0.000 F 
ENDBRANCH  13  14
ENDBRANCH  12  13
ENDBRANCH   9  12
ENDBRANCH   1   8
BRANCH   7  18
ATOM     18  N   UNL     1       5.023   4.134  19.672  0.00  0.00    +0.000 N 
ATOM     19  H   UNL     1       5.474   4.408  20.561  0.00  0.00    +0.000 HD
BRANCH  18  20
ATOM     20  S   UNL     1       4.165   2.673  19.955  0.00  0.00    +0.000 S 
ATOM     21  O   UNL     1       5.200   1.751  20.397  0.00  0.00    +0.000 OA
ATOM     22  O   UNL     1       3.070   2.988  20.857  0.00  0.00    +0.000 OA
BRANCH  20  23
ATOM     23  C   UNL     1       3.515   2.122  18.271  0.00  0.00    +0.000 C 
ATOM     24  F   UNL     1       2.168   2.301  18.142  0.00  0.00    +0.000 F 
ATOM     25  F   UNL     1       4.096   2.804  17.243  0.00  0.00    +0.000 F 
ATOM     26  F   UNL     1       3.752   0.797  18.044  0.00  0.00    +0.000 F 
ENDBRANCH  20  23
ENDBRANCH  18  20
ENDBRANCH   7  18
TORSDOF 8
ENDMDL
MODEL 5
REMARK VINA RESULT:      -7.7      0.868      1.377
REMARK  Name = 
REMARK  9 active torsions:
REMARK  status: ('A' for Active; 'I' for Inactive)
REMARK    1  A    between atoms: C_1  and  C_2
REMARK    2  A    between atoms: C_2  and  C_3
REMARK    3  A    between atoms: C_3  and  C_11
REMARK    4  A    between atoms: N_4  and  O_5
REMARK    5  A    between atoms: O_5  and  C_6
REMARK    6  A    between atoms: C_6  and  C_7
REMARK    7  A    between atoms: C_17  and  N_18
REMARK    8  A    between atoms: N_18  and  S_19
REMARK    9  A    between atoms: S_19  and  C_22
REMARK                            x       y       z     vdW  Elec       q    Type
REMARK                         _______ _______ _______ _____ _____    ______ ____
ROOT
ATOM      1  C   UNL     1       4.748   5.798  17.847  0.00  0.00    +0.000 A 
ATOM      2  C   UNL     1       4.005   6.929  17.456  0.00  0.00    +0.000 A 
ATOM      3  C   UNL     1       2.900   7.359  18.190  0.00  0.00    +0.000 A 
ATOM      4 CL   UNL     1       2.040   8.762  17.693  0.00  0.00    +0.000 Cl
ATOM      5  C   UNL     1       2.486   6.653  19.313  0.00  0.00    +0.000 A 
ATOM      6  C   UNL     1       3.201   5.526  19.710  0.00  0.00    +0.000 A 
ATOM      7  C   UNL     1       4.332   5.096  19.001  0.00  0.00    +0.000 A 
ENDROOT
BRANCH   1   8
ATOM      8  C   UNL     1       5.922   5.361  16.982  0.00  0.00    +0.000 C 
ATOM      9  N   UNL     1       5.667   4.612  15.940  0.00  0.00    +0.000 NA
BRANCH   8  11
ATOM     10  C   UNL     1       7.622   7.349  17.642  0.00  0.00    +0.000 C 
ATOM     11  C   UNL     1       7.313   5.876  17.436  0.00  0.00    +0.000 C 
ENDBRANCH   8  11
BRANCH   9  12
ATOM     12  O   UNL     1       6.829   4.295  15.235  0.00  0.00    +0.000 OA
BRANCH  12  13
ATOM     13  C   UNL     1       6.806   4.845  13.919  0.00  0.00    +0.000 C 
BRANCH  13  14
ATOM     14  C   UNL     1       6.185   3.860  12.935  0.00  0.00    +0.000 C 
ATOM     15  F   UNL     1       4.839   3.967  12.853  0.00  0.00    +0.000 F 
ATOM     16  F   UNL     1       6.678   4.040  11.687  0.00  0.00    +0.000 F 
ATOM     17  F   UNL     1       6.459   2.580  13.289  0.00  0.00    +0.000 F 
ENDBRANCH  13  14
ENDBRANCH  12  13
ENDBRANCH   9  12
ENDBRANCH   1   8
BRANCH   7  18
ATOM     18  N   UNL     1       5.081   4.008  19.568  0.00  0.00    +0.000 N 
ATOM     19  H   UNL     1       5.622   4.295  20.401  0.00  0.00    +0.000 HD
BRANCH  18  20
ATOM     20  S   UNL     1       4.172   2.614  19.996  0.00  0.00    +0.000 S 
ATOM     21  O   UNL     1       5.174   1.707  20.533  0.00  0.00    +0.000 OA
ATOM     22  O   UNL     1       3.089   3.058  20.857  0.00  0.00    +0.000 OA
BRANCH  20  23
ATOM     23  C   UNL     1       3.503   1.917  18.375  0.00  0.00    +0.000 C 
ATOM     24  F   UNL     1       3.960   2.593  17.282  0.00  0.00    +0.000 F 
ATOM     25  F   UNL     1       3.845   0.609  18.193  0.00  0.00    +0.000 F 
ATOM     26  F   UNL     1       2.140   1.973  18.322  0.00  0.00    +0.000 F 
ENDBRANCH  20  23
ENDBRANCH  18  20
ENDBRANCH   7  18
TORSDOF 8
ENDMDL
MODEL 6
REMARK VINA RESULT:      -7.7      1.606      1.959
REMARK  Name = 
REMARK  9 active torsions:
REMARK  status: ('A' for Active; 'I' for Inactive)
REMARK    1  A    between atoms: C_1  and  C_2
REMARK    2  A    between atoms: C_2  and  C_3
REMARK    3  A    between atoms: C_3  and  C_11
REMARK    4  A    between atoms: N_4  and  O_5
REMARK    5  A    between atoms: O_5  and  C_6
REMARK    6  A    between atoms: C_6  and  C_7
REMARK    7  A    between atoms: C_17  and  N_18
REMARK    8  A    between atoms: N_18  and  S_19
REMARK    9  A    between atoms: S_19  and  C_22
REMARK                            x       y       z     vdW  Elec       q    Type
REMARK                         _______ _______ _______ _____ _____    ______ ____
ROOT
ATOM      1  C   UNL     1       4.335   6.227  17.250  0.00  0.00    +0.000 A 
ATOM      2  C   UNL     1       3.883   7.556  17.144  0.00  0.00    +0.000 A 
ATOM      3  C   UNL     1       2.827   8.026  17.924  0.00  0.00    +0.000 A 
ATOM      4 CL   UNL     1       2.327   9.665  17.784  0.00  0.00    +0.000 Cl
ATOM      5  C   UNL     1       2.172   7.175  18.806  0.00  0.00    +0.000 A 
ATOM      6  C   UNL     1       2.598   5.854  18.918  0.00  0.00    +0.000 A 
ATOM      7  C   UNL     1       3.677   5.371  18.163  0.00  0.00    +0.000 A 
ENDROOT
BRANCH   1   8
ATOM      8  C   UNL     1       5.469   5.767  16.344  0.00  0.00    +0.000 C 
ATOM      9  N   UNL     1       5.164   5.387  15.131  0.00  0.00    +0.000 NA
BRANCH   8  11
ATOM     10  C   UNL     1       7.447   7.053  17.653  0.00  0.00    +0.000 C 
ATOM     11  C   UNL     1       6.887   5.816  16.972  0.00  0.00    +0.000 C 
ENDBRANCH   8  11
BRANCH   9  12
ATOM     12  O   UNL     1       6.296   5.001  14.410  0.00  0.00    +0.000 OA
BRANCH  12  13
ATOM     13  C   UNL     1       6.202   3.643  13.982  0.00  0.00    +0.000 C 
BRANCH  13  14
ATOM     14  C   UNL     1       6.131   3.563  12.461  0.00  0.00    +0.000 C 
ATOM     15  F   UNL     1       4.894   3.811  11.972  0.00  0.00    +0.000 F 
ATOM     16  F   UNL     1       6.974   4.452  11.885  0.00  0.00    +0.000 F 
ATOM     17  F   UNL     1       6.491   2.333  12.020  0.00  0.00    +0.000 F 
ENDBRANCH  13  14
ENDBRANCH  12  13
ENDBRANCH   9  12
ENDBRANCH   1   8
BRANCH   7  18
ATOM     18  N   UNL     1       4.128   4.037  18.450  0.00  0.00    +0.000 N 
ATOM     19  H   UNL     1       4.356   3.907  19.450  0.00  0.00    +0.000 HD
BRANCH  18  20
ATOM     20  S   UNL     1       3.062   2.769  17.993  0.00  0.00    +0.000 S 
ATOM     21  O   UNL     1       2.358   3.316  16.843  0.00  0.00    +0.000 OA
ATOM     22  O   UNL     1       3.869   1.573  17.823  0.00  0.00    +0.000 OA
BRANCH  20  23
ATOM     23  C   UNL     1       1.853   2.569  19.428  0.00  0.00    +0.000 C 
ATOM     24  F   UNL     1       2.382   2.963  20.623  0.00  0.00    +0.000 F 
ATOM     25  F   UNL     1       0.713   3.296  19.252  0.00  0.00    +0.000 F 
ATOM     26  F   UNL     1       1.465   1.270  19.588  0.00  0.00    +0.000 F 
ENDBRANCH  20  23
ENDBRANCH  18  20
ENDBRANCH   7  18
TORSDOF 8
ENDMDL
MODEL 7
REMARK VINA RESULT:      -7.5      1.834      2.233
REMARK  Name = 
REMARK  9 active torsions:
REMARK  status: ('A' for Active; 'I' for Inactive)
REMARK    1  A    between atoms: C_1  and  C_2
REMARK    2  A    between atoms: C_2  and  C_3
REMARK    3  A    between atoms: C_3  and  C_11
REMARK    4  A    between atoms: N_4  and  O_5
REMARK    5  A    between atoms: O_5  and  C_6
REMARK    6  A    between atoms: C_6  and  C_7
REMARK    7  A    between atoms: C_17  and  N_18
REMARK    8  A    between atoms: N_18  and  S_19
REMARK    9  A    between atoms: S_19  and  C_22
REMARK                            x       y       z     vdW  Elec       q    Type
REMARK                         _______ _______ _______ _____ _____    ______ ____
ROOT
ATOM      1  C   UNL     1       3.914   6.601  18.039  0.00  0.00    +0.000 A 
ATOM      2  C   UNL     1       3.334   7.826  17.660  0.00  0.00    +0.000 A 
ATOM      3  C   UNL     1       2.300   8.398  18.401  0.00  0.00    +0.000 A 
ATOM      4 CL   UNL     1       1.642   9.911  17.920  0.00  0.00    +0.000 Cl
ATOM      5  C   UNL     1       1.793   7.746  19.519  0.00  0.00    +0.000 A 
ATOM      6  C   UNL     1       2.347   6.527  19.904  0.00  0.00    +0.000 A 
ATOM      7  C   UNL     1       3.406   5.951  19.188  0.00  0.00    +0.000 A 
ENDROOT
BRANCH   1   8
ATOM      8  C   UNL     1       5.015   6.014  17.167  0.00  0.00    +0.000 C 
ATOM      9  N   UNL     1       4.728   4.958  16.450  0.00  0.00    +0.000 NA
BRANCH   8  11
ATOM     10  C   UNL     1       7.477   6.398  18.202  0.00  0.00    +0.000 C 
ATOM     11  C   UNL     1       6.376   6.758  17.219  0.00  0.00    +0.000 C 
ENDBRANCH   8  11
BRANCH   9  12
ATOM     12  O   UNL     1       5.824   4.534  15.695  0.00  0.00    +0.000 OA
BRANCH  12  13
ATOM     13  C   UNL     1       5.786   5.073  14.374  0.00  0.00    +0.000 C 
BRANCH  13  14
ATOM     14  C   UNL     1       5.982   3.973  13.338  0.00  0.00    +0.000 C 
ATOM     15  F   UNL     1       4.876   3.737  12.596  0.00  0.00    +0.000 F 
ATOM     16  F   UNL     1       6.981   4.283  12.479  0.00  0.00    +0.000 F 
ATOM     17  F   UNL     1       6.318   2.800  13.930  0.00  0.00    +0.000 F 
ENDBRANCH  13  14
ENDBRANCH  12  13
ENDBRANCH   9  12
ENDBRANCH   1   8
BRANCH   7  18
ATOM     18  N   UNL     1       3.999   4.765  19.743  0.00  0.00    +0.000 N 
ATOM     19  H   UNL     1       4.237   4.876  20.742  0.00  0.00    +0.000 HD
BRANCH  18  20
ATOM     20  S   UNL     1       3.078   3.322  19.586  0.00  0.00    +0.000 S 
ATOM     21  O   UNL     1       2.322   3.534  18.362  0.00  0.00    +0.000 OA
ATOM     22  O   UNL     1       4.011   2.211  19.657  0.00  0.00    +0.000 OA
BRANCH  20  23
ATOM     23  C   UNL     1       1.894   3.304  21.056  0.00  0.00    +0.000 C 
ATOM     24  F   UNL     1       2.367   4.012  22.123  0.00  0.00    +0.000 F 
ATOM     25  F   UNL     1       0.677   3.835  20.748  0.00  0.00    +0.000 F 
ATOM     26  F   UNL     1       1.663   2.036  21.507  0.00  0.00    +0.000 F 
ENDBRANCH  20  23
ENDBRANCH  18  20
ENDBRANCH   7  18
TORSDOF 8
ENDMDL
MODEL 8
REMARK VINA RESULT:      -7.5      1.721      1.924
REMARK  Name = 
REMARK  9 active torsions:
REMARK  status: ('A' for Active; 'I' for Inactive)
REMARK    1  A    between atoms: C_1  and  C_2
REMARK    2  A    between atoms: C_2  and  C_3
REMARK    3  A    between atoms: C_3  and  C_11
REMARK    4  A    between atoms: N_4  and  O_5
REMARK    5  A    between atoms: O_5  and  C_6
REMARK    6  A    between atoms: C_6  and  C_7
REMARK    7  A    between atoms: C_17  and  N_18
REMARK    8  A    between atoms: N_18  and  S_19
REMARK    9  A    between atoms: S_19  and  C_22
REMARK                            x       y       z     vdW  Elec       q    Type
REMARK                         _______ _______ _______ _____ _____    ______ ____
ROOT
ATOM      1  C   UNL     1       4.287   6.038  17.589  0.00  0.00    +0.000 A 
ATOM      2  C   UNL     1       3.957   7.389  17.372  0.00  0.00    +0.000 A 
ATOM      3  C   UNL     1       2.846   7.970  17.984  0.00  0.00    +0.000 A 
ATOM      4 CL   UNL     1       2.497   9.632  17.716  0.00  0.00    +0.000 Cl
ATOM      5  C   UNL     1       2.017   7.210  18.800  0.00  0.00    +0.000 A 
ATOM      6  C   UNL     1       2.321   5.869  19.018  0.00  0.00    +0.000 A 
ATOM      7  C   UNL     1       3.450   5.276  18.434  0.00  0.00    +0.000 A 
ENDROOT
BRANCH   1   8
ATOM      8  C   UNL     1       5.492   5.457  16.862  0.00  0.00    +0.000 C 
ATOM      9  N   UNL     1       5.278   4.513  15.982  0.00  0.00    +0.000 NA
BRANCH   8  11
ATOM     10  C   UNL     1       7.541   5.809  18.582  0.00  0.00    +0.000 C 
ATOM     11  C   UNL     1       6.864   6.071  17.248  0.00  0.00    +0.000 C 
ENDBRANCH   8  11
BRANCH   9  12
ATOM     12  O   UNL     1       6.465   4.080  15.389  0.00  0.00    +0.000 OA
BRANCH  12  13
ATOM     13  C   UNL     1       6.679   4.714  14.129  0.00  0.00    +0.000 C 
BRANCH  13  14
ATOM     14  C   UNL     1       6.150   3.846  12.993  0.00  0.00    +0.000 C 
ATOM     15  F   UNL     1       6.713   4.132  11.797  0.00  0.00    +0.000 F 
ATOM     16  F   UNL     1       6.374   2.533  13.237  0.00  0.00    +0.000 F 
ATOM     17  F   UNL     1       4.811   3.999  12.846  0.00  0.00    +0.000 F 
ENDBRANCH  13  14
ENDBRANCH  12  13
ENDBRANCH   9  12
ENDBRANCH   1   8
BRANCH   7  18
ATOM     18  N   UNL     1       3.755   3.927  18.830  0.00  0.00    +0.000 N 
ATOM     19  H   UNL     1       3.720   3.802  19.855  0.00  0.00    +0.000 HD
BRANCH  18  20
ATOM     20  S   UNL     1       2.781   2.700  18.124  0.00  0.00    +0.000 S 
ATOM     21  O   UNL     1       2.328   3.300  16.880  0.00  0.00    +0.000 OA
ATOM     22  O   UNL     1       3.588   1.492  18.072  0.00  0.00    +0.000 OA
BRANCH  20  23
ATOM     23  C   UNL     1       1.309   2.478  19.284  0.00  0.00    +0.000 C 
ATOM     24  F   UNL     1       1.653   1.883  20.464  0.00  0.00    +0.000 F 
ATOM     25  F   UNL     1       0.720   3.665  19.606  0.00  0.00    +0.000 F 
ATOM     26  F   UNL     1       0.337   1.698  18.728  0.00  0.00    +0.000 F 
ENDBRANCH  20  23
ENDBRANCH  18  20
ENDBRANCH   7  18
TORSDOF 8
ENDMDL
MODEL 9
REMARK VINA RESULT:      -7.5      1.241      1.433
REMARK  Name = 
REMARK  9 active torsions:
REMARK  status: ('A' for Active; 'I' for Inactive)
REMARK    1  A    between atoms: C_1  and  C_2
REMARK    2  A    between atoms: C_2  and  C_3
REMARK    3  A    between atoms: C_3  and  C_11
REMARK    4  A    between atoms: N_4  and  O_5
REMARK    5  A    between atoms: O_5  and  C_6
REMARK    6  A    between atoms: C_6  and  C_7
REMARK    7  A    between atoms: C_17  and  N_18
REMARK    8  A    between atoms: N_18  and  S_19
REMARK    9  A    between atoms: S_19  and  C_22
REMARK                            x       y       z     vdW  Elec       q    Type
REMARK                         _______ _______ _______ _____ _____    ______ ____
ROOT
ATOM      1  C   UNL     1       4.072   6.474  18.163  0.00  0.00    +0.000 A 
ATOM      2  C   UNL     1       3.516   7.683  17.703  0.00  0.00    +0.000 A 
ATOM      3  C   UNL     1       2.399   8.247  18.318  0.00  0.00    +0.000 A 
ATOM      4 CL   UNL     1       1.771   9.740  17.742  0.00  0.00    +0.000 Cl
ATOM      5  C   UNL     1       1.786   7.604  19.387  0.00  0.00    +0.000 A 
ATOM      6  C   UNL     1       2.315   6.401  19.850  0.00  0.00    +0.000 A 
ATOM      7  C   UNL     1       3.455   5.834  19.262  0.00  0.00    +0.000 A 
ENDROOT
BRANCH   1   8
ATOM      8  C   UNL     1       5.270   5.894  17.425  0.00  0.00    +0.000 C 
ATOM      9  N   UNL     1       5.351   4.593  17.320  0.00  0.00    +0.000 NA
BRANCH   8  11
ATOM     10  C   UNL     1       7.509   7.388  17.617  0.00  0.00    +0.000 C 
ATOM     11  C   UNL     1       6.273   6.934  16.859  0.00  0.00    +0.000 C 
ENDBRANCH   8  11
BRANCH   9  12
ATOM     12  O   UNL     1       6.491   4.201  16.614  0.00  0.00    +0.000 OA
BRANCH  12  13
ATOM     13  C   UNL     1       6.148   3.461  15.443  0.00  0.00    +0.000 C 
BRANCH  13  14
ATOM     14  C   UNL     1       6.224   4.348  14.205  0.00  0.00    +0.000 C 
ATOM     15  F   UNL     1       5.217   5.249  14.133  0.00  0.00    +0.000 F 
ATOM     16  F   UNL     1       7.386   5.043  14.172  0.00  0.00    +0.000 F 
ATOM     17  F   UNL     1       6.173   3.607  13.071  0.00  0.00    +0.000 F 
ENDBRANCH  13  14
ENDBRANCH  12  13
ENDBRANCH   9  12
ENDBRANCH   1   8
BRANCH   7  18
ATOM     18  N   UNL     1       4.004   4.668  19.899  0.00  0.00    +0.000 N 
ATOM     19  H   UNL     1       4.445   4.888  20.807  0.00  0.00    +0.000 HD
BRANCH  18  20
ATOM     20  S   UNL     1       2.910   3.368  20.155  0.00  0.00    +0.000 S 
ATOM     21  O   UNL     1       3.784   2.233  20.405  0.00  0.00    +0.000 OA
ATOM     22  O   UNL     1       1.984   3.788  21.193  0.00  0.00    +0.000 OA
BRANCH  20  23
ATOM     23  C   UNL     1       2.013   3.117  18.513  0.00  0.00    +0.000 C 
ATOM     24  F   UNL     1       1.376   1.912  18.439  0.00  0.00    +0.000 F 
ATOM     25  F   UNL     1       1.065   4.071  18.289  0.00  0.00    +0.000 F 
ATOM     26  F   UNL     1       2.872   3.165  17.453  0.00  0.00    +0.000 F 
ENDBRANCH  20  23
ENDBRANCH  18  20
ENDBRANCH   7  18
TORSDOF 8
ENDMDL
