MODEL 1
REMARK VINA RESULT:      -6.8      0.000      0.000
REMARK  Name = 
REMARK  8 active torsions:
REMARK  status: ('A' for Active; 'I' for Inactive)
REMARK    1  A    between atoms: C_1  and  C_2
REMARK    2  A    between atoms: C_2  and  C_3
REMARK    3  A    between atoms: C_3  and  C_4
REMARK    4  A    between atoms: N_6  and  C_7
REMARK    5  A    between atoms: C_10  and  N_11
REMARK    6  A    between atoms: N_11  and  C_12
REMARK    7  A    between atoms: C_12  and  C_13
REMARK    8  A    between atoms: C_16  and  C_17
REMARK                            x       y       z     vdW  Elec       q    Type
REMARK                         _______ _______ _______ _____ _____    ______ ____
ROOT
ATOM      1  C   UNL     1       6.078   4.089  14.716  0.00  0.00    +0.000 A 
ATOM      2  C   UNL     1       6.344   5.413  15.055  0.00  0.00    +0.000 A 
ATOM      3  C   UNL     1       5.712   6.013  16.150  0.00  0.00    +0.000 A 
ATOM      4  C   UNL     1       4.772   5.317  16.917  0.00  0.00    +0.000 A 
ATOM      5  C   UNL     1       4.562   3.968  16.612  0.00  0.00    +0.000 A 
ATOM      6  C   UNL     1       5.180   3.366  15.507  0.00  0.00    +0.000 A 
ENDROOT
BRANCH   1   9
ATOM      7  C   UNL     1       6.006   3.122  12.422  0.00  0.00    +0.000 C 
ATOM      8  O   UNL     1       4.870   3.466  12.097  0.00  0.00    +0.000 OA
ATOM      9  N   UNL     1       6.653   3.446  13.600  0.00  0.00    +0.000 N 
ATOM     10  H   UNL     1       7.648   3.259  13.649  0.00  0.00    +0.000 HD
BRANCH   7  11
ATOM     11  C   UNL     1       6.838   2.276  11.478  0.00  0.00    +0.000 C 
BRANCH  11  13
ATOM     12  C   UNL     1       6.337  -0.216  11.447  0.00  0.00    +0.000 C 
ATOM     13  C   UNL     1       6.044   1.145  10.829  0.00  0.00    +0.000 C 
ENDBRANCH  11  13
ENDBRANCH   7  11
ENDBRANCH   1   9
BRANCH   4  14
ATOM     14  N   UNL     1       4.182   5.962  18.016  0.00  0.00    +0.000 N 
ATOM     15  H   UNL     1       4.554   6.905  18.119  0.00  0.00    +0.000 HD
BRANCH  14  16
ATOM     16  C   UNL     1       2.717   5.981  18.067  0.00  0.00    +0.000 C 
BRANCH  16  17
ATOM     17  C   UNL     1       2.117   4.835  18.835  0.00  0.00    +0.000 A 
ATOM     18  C   UNL     1       1.321   3.804  18.377  0.00  0.00    +0.000 A 
ATOM     19  C   UNL     1       0.988   2.877  19.408  0.00  0.00    +0.000 A 
ATOM     20  C   UNL     1       1.510   3.246  20.629  0.00  0.00    +0.000 A 
ATOM     21  C   UNL     1       1.406   2.538  21.937  0.00  0.00    +0.000 C 
ATOM     22  S   UNL     1       2.373   4.718  20.526  0.00  0.00    +0.000 S 
ENDBRANCH  16  17
ENDBRANCH  14  16
ENDBRANCH   4  14
TORSDOF 6
ENDMDL
MODEL 2
REMARK VINA RESULT:      -6.8      4.687      6.898
REMARK  Name = 
REMARK  8 active torsions:
REMARK  status: ('A' for Active; 'I' for Inactive)
REMARK    1  A    between atoms: C_1  and  C_2
REMARK    2  A    between atoms: C_2  and  C_3
REMARK    3  A    between atoms: C_3  and  C_4
REMARK    4  A    between atoms: N_6  and  C_7
REMARK    5  A    between atoms: C_10  and  N_11
REMARK    6  A    between atoms: N_11  and  C_12
REMARK    7  A    between atoms: C_12  and  C_13
REMARK    8  A    between atoms: C_16  and  C_17
REMARK                            x       y       z     vdW  Elec       q    Type
REMARK                         _______ _______ _______ _____ _____    ______ ____
ROOT
ATOM      1  C   UNL     1       7.747   8.047  17.784  0.00  0.00    +0.000 A 
ATOM      2  C   UNL     1       6.664   7.547  17.066  0.00  0.00    +0.000 A 
ATOM      3  C   UNL     1       6.184   6.255  17.305  0.00  0.00    +0.000 A 
ATOM      4  C   UNL     1       6.793   5.414  18.242  0.00  0.00    +0.000 A 
ATOM      5  C   UNL     1       7.835   5.949  19.006  0.00  0.00    +0.000 A 
ATOM      6  C   UNL     1       8.332   7.237  18.761  0.00  0.00    +0.000 A 
ENDROOT
BRANCH   1   9
ATOM      7  C   UNL     1       8.904  10.133  18.504  0.00  0.00    +0.000 C 
ATOM      8  O   UNL     1       9.185   9.815  19.659  0.00  0.00    +0.000 OA
ATOM      9  N   UNL     1       8.300   9.325  17.558  0.00  0.00    +0.000 N 
ATOM     10  H   UNL     1       8.306   9.652  16.598  0.00  0.00    +0.000 HD
BRANCH   7  11
ATOM     11  C   UNL     1       9.239  11.523  17.999  0.00  0.00    +0.000 C 
BRANCH  11  13
ATOM     12  C   UNL     1      11.049  13.046  17.069  0.00  0.00    +0.000 C 
ATOM     13  C   UNL     1      10.735  11.737  17.782  0.00  0.00    +0.000 C 
ENDBRANCH  11  13
ENDBRANCH   7  11
ENDBRANCH   1   9
BRANCH   4  14
ATOM     14  N   UNL     1       6.258   4.133  18.453  0.00  0.00    +0.000 N 
ATOM     15  H   UNL     1       6.382   3.849  19.423  0.00  0.00    +0.000 HD
BRANCH  14  16
ATOM     16  C   UNL     1       4.872   3.915  18.029  0.00  0.00    +0.000 C 
BRANCH  16  17
ATOM     17  C   UNL     1       3.870   3.985  19.150  0.00  0.00    +0.000 A 
ATOM     18  C   UNL     1       3.335   5.098  19.768  0.00  0.00    +0.000 A 
ATOM     19  C   UNL     1       2.372   4.755  20.762  0.00  0.00    +0.000 A 
ATOM     20  C   UNL     1       2.228   3.391  20.899  0.00  0.00    +0.000 A 
ATOM     21  C   UNL     1       1.315   2.639  21.807  0.00  0.00    +0.000 C 
ATOM     22  S   UNL     1       3.270   2.538  19.847  0.00  0.00    +0.000 S 
ENDBRANCH  16  17
ENDBRANCH  14  16
ENDBRANCH   4  14
TORSDOF 6
ENDMDL
MODEL 3
REMARK VINA RESULT:      -6.8      4.492      6.717
REMARK  Name = 
REMARK  8 active torsions:
REMARK  status: ('A' for Active; 'I' for Inactive)
REMARK    1  A    between atoms: C_1  and  C_2
REMARK    2  A    between atoms: C_2  and  C_3
REMARK    3  A    between atoms: C_3  and  C_4
REMARK    4  A    between atoms: N_6  and  C_7
REMARK    5  A    between atoms: C_10  and  N_11
REMARK    6  A    between atoms: N_11  and  C_12
REMARK    7  A    between atoms: C_12  and  C_13
REMARK    8  A    between atoms: C_16  and  C_17
REMARK                            x       y       z     vdW  Elec       q    Type
REMARK                         _______ _______ _______ _____ _____    ______ ____
ROOT
ATOM      1  C   UNL     1       7.492   7.874  17.724  0.00  0.00    +0.000 A 
ATOM      2  C   UNL     1       6.285   7.480  17.151  0.00  0.00    +0.000 A 
ATOM      3  C   UNL     1       5.787   6.188  17.352  0.00  0.00    +0.000 A 
ATOM      4  C   UNL     1       6.495   5.244  18.102  0.00  0.00    +0.000 A 
ATOM      5  C   UNL     1       7.670   5.669  18.729  0.00  0.00    +0.000 A 
ATOM      6  C   UNL     1       8.184   6.957  18.520  0.00  0.00    +0.000 A 
ENDROOT
BRANCH   1   9
ATOM      7  C   UNL     1       8.741   9.898  18.466  0.00  0.00    +0.000 C 
ATOM      8  O   UNL     1       9.079   9.522  19.588  0.00  0.00    +0.000 OA
ATOM      9  N   UNL     1       8.064   9.148  17.522  0.00  0.00    +0.000 N 
ATOM     10  H   UNL     1       8.023   9.517  16.579  0.00  0.00    +0.000 HD
BRANCH   7  11
ATOM     11  C   UNL     1       9.083  11.301  18.005  0.00  0.00    +0.000 C 
BRANCH  11  13
ATOM     12  C   UNL     1      10.953  12.935  17.464  0.00  0.00    +0.000 C 
ATOM     13  C   UNL     1      10.560  11.477  17.665  0.00  0.00    +0.000 C 
ENDBRANCH  11  13
ENDBRANCH   7  11
ENDBRANCH   1   9
BRANCH   4  14
ATOM     14  N   UNL     1       5.938   3.968  18.285  0.00  0.00    +0.000 N 
ATOM     15  H   UNL     1       5.745   3.800  19.271  0.00  0.00    +0.000 HD
BRANCH  14  16
ATOM     16  C   UNL     1       4.768   3.631  17.469  0.00  0.00    +0.000 C 
BRANCH  16  17
ATOM     17  C   UNL     1       3.575   3.178  18.267  0.00  0.00    +0.000 A 
ATOM     18  C   UNL     1       2.501   2.410  17.863  0.00  0.00    +0.000 A 
ATOM     19  C   UNL     1       1.590   2.150  18.929  0.00  0.00    +0.000 A 
ATOM     20  C   UNL     1       1.978   2.756  20.105  0.00  0.00    +0.000 A 
ATOM     21  C   UNL     1       1.313   2.708  21.439  0.00  0.00    +0.000 C 
ATOM     22  S   UNL     1       3.420   3.652  19.907  0.00  0.00    +0.000 S 
ENDBRANCH  16  17
ENDBRANCH  14  16
ENDBRANCH   4  14
TORSDOF 6
ENDMDL
MODEL 4
REMARK VINA RESULT:      -6.8      4.571      6.801
REMARK  Name = 
REMARK  8 active torsions:
REMARK  status: ('A' for Active; 'I' for Inactive)
REMARK    1  A    between atoms: C_1  and  C_2
REMARK    2  A    between atoms: C_2  and  C_3
REMARK    3  A    between atoms: C_3  and  C_4
REMARK    4  A    between atoms: N_6  and  C_7
REMARK    5  A    between atoms: C_10  and  N_11
REMARK    6  A    between atoms: N_11  and  C_12
REMARK    7  A    between atoms: C_12  and  C_13
REMARK    8  A    between atoms: C_16  and  C_17
REMARK                            x       y       z     vdW  Elec       q    Type
REMARK                         _______ _______ _______ _____ _____    ______ ____
ROOT
ATOM      1  C   UNL     1       7.714   7.855  17.780  0.00  0.00    +0.000 A 
ATOM      2  C   UNL     1       8.243   6.968  18.713  0.00  0.00    +0.000 A 
ATOM      3  C   UNL     1       7.663   5.711  18.913  0.00  0.00    +0.000 A 
ATOM      4  C   UNL     1       6.519   5.317  18.210  0.00  0.00    +0.000 A 
ATOM      5  C   UNL     1       6.037   6.185  17.227  0.00  0.00    +0.000 A 
ATOM      6  C   UNL     1       6.603   7.453  17.032  0.00  0.00    +0.000 A 
ENDROOT
BRANCH   1   9
ATOM      7  C   UNL     1       8.818   9.963  18.516  0.00  0.00    +0.000 C 
ATOM      8  O   UNL     1       9.117   9.640  19.665  0.00  0.00    +0.000 OA
ATOM      9  N   UNL     1       8.230   9.151  17.565  0.00  0.00    +0.000 N 
ATOM     10  H   UNL     1       8.218   9.489  16.609  0.00  0.00    +0.000 HD
BRANCH   7  11
ATOM     11  C   UNL     1       9.111  11.368  18.026  0.00  0.00    +0.000 C 
BRANCH  11  13
ATOM     12  C   UNL     1      11.180  12.753  18.539  0.00  0.00    +0.000 C 
ATOM     13  C   UNL     1      10.590  11.603  17.732  0.00  0.00    +0.000 C 
ENDBRANCH  11  13
ENDBRANCH   7  11
ENDBRANCH   1   9
BRANCH   4  14
ATOM     14  N   UNL     1       5.991   4.036  18.439  0.00  0.00    +0.000 N 
ATOM     15  H   UNL     1       5.902   3.858  19.438  0.00  0.00    +0.000 HD
BRANCH  14  16
ATOM     16  C   UNL     1       4.744   3.699  17.745  0.00  0.00    +0.000 C 
BRANCH  16  17
ATOM     17  C   UNL     1       3.534   3.675  18.640  0.00  0.00    +0.000 A 
ATOM     18  C   UNL     1       2.319   4.310  18.476  0.00  0.00    +0.000 A 
ATOM     19  C   UNL     1       1.400   4.000  19.521  0.00  0.00    +0.000 A 
ATOM     20  C   UNL     1       1.952   3.167  20.470  0.00  0.00    +0.000 A 
ATOM     21  C   UNL     1       1.316   2.602  21.694  0.00  0.00    +0.000 C 
ATOM     22  S   UNL     1       3.578   2.787  20.106  0.00  0.00    +0.000 S 
ENDBRANCH  16  17
ENDBRANCH  14  16
ENDBRANCH   4  14
TORSDOF 6
ENDMDL
MODEL 5
REMARK VINA RESULT:      -6.7      2.604      3.871
REMARK  Name = 
REMARK  8 active torsions:
REMARK  status: ('A' for Active; 'I' for Inactive)
REMARK    1  A    between atoms: C_1  and  C_2
REMARK    2  A    between atoms: C_2  and  C_3
REMARK    3  A    between atoms: C_3  and  C_4
REMARK    4  A    between atoms: N_6  and  C_7
REMARK    5  A    between atoms: C_10  and  N_11
REMARK    6  A    between atoms: N_11  and  C_12
REMARK    7  A    between atoms: C_12  and  C_13
REMARK    8  A    between atoms: C_16  and  C_17
REMARK                            x       y       z     vdW  Elec       q    Type
REMARK                         _______ _______ _______ _____ _____    ______ ____
ROOT
ATOM      1  C   UNL     1       5.107   4.514  15.923  0.00  0.00    +0.000 A 
ATOM      2  C   UNL     1       4.339   3.754  16.801  0.00  0.00    +0.000 A 
ATOM      3  C   UNL     1       3.938   4.276  18.035  0.00  0.00    +0.000 A 
ATOM      4  C   UNL     1       4.319   5.560  18.441  0.00  0.00    +0.000 A 
ATOM      5  C   UNL     1       5.031   6.340  17.525  0.00  0.00    +0.000 A 
ATOM      6  C   UNL     1       5.450   5.818  16.293  0.00  0.00    +0.000 A 
ENDROOT
BRANCH   1   9
ATOM      7  C   UNL     1       6.708   4.454  14.014  0.00  0.00    +0.000 C 
ATOM      8  O   UNL     1       7.565   5.223  14.450  0.00  0.00    +0.000 OA
ATOM      9  N   UNL     1       5.577   4.027  14.685  0.00  0.00    +0.000 N 
ATOM     10  H   UNL     1       5.065   3.250  14.282  0.00  0.00    +0.000 HD
BRANCH   7  11
ATOM     11  C   UNL     1       6.854   3.869  12.623  0.00  0.00    +0.000 C 
BRANCH  11  13
ATOM     12  C   UNL     1       5.789   1.886  11.442  0.00  0.00    +0.000 C 
ATOM     13  C   UNL     1       5.565   3.242  12.099  0.00  0.00    +0.000 C 
ENDBRANCH  11  13
ENDBRANCH   7  11
ENDBRANCH   1   9
BRANCH   4  14
ATOM     14  N   UNL     1       3.871   6.039  19.683  0.00  0.00    +0.000 N 
ATOM     15  H   UNL     1       4.385   6.877  19.949  0.00  0.00    +0.000 HD
BRANCH  14  16
ATOM     16  C   UNL     1       2.429   6.253  19.831  0.00  0.00    +0.000 C 
BRANCH  16  17
ATOM     17  C   UNL     1       1.978   7.645  19.482  0.00  0.00    +0.000 A 
ATOM     18  C   UNL     1       2.127   8.335  18.295  0.00  0.00    +0.000 A 
ATOM     19  C   UNL     1       1.518   9.623  18.337  0.00  0.00    +0.000 A 
ATOM     20  C   UNL     1       0.953   9.894  19.565  0.00  0.00    +0.000 A 
ATOM     21  C   UNL     1       0.211  11.111  20.000  0.00  0.00    +0.000 C 
ATOM     22  S   UNL     1       1.184   8.603  20.662  0.00  0.00    +0.000 S 
ENDBRANCH  16  17
ENDBRANCH  14  16
ENDBRANCH   4  14
TORSDOF 6
ENDMDL
MODEL 6
REMARK VINA RESULT:      -6.7      2.814      3.893
REMARK  Name = 
REMARK  8 active torsions:
REMARK  status: ('A' for Active; 'I' for Inactive)
REMARK    1  A    between atoms: C_1  and  C_2
REMARK    2  A    between atoms: C_2  and  C_3
REMARK    3  A    between atoms: C_3  and  C_4
REMARK    4  A    between atoms: N_6  and  C_7
REMARK    5  A    between atoms: C_10  and  N_11
REMARK    6  A    between atoms: N_11  and  C_12
REMARK    7  A    between atoms: C_12  and  C_13
REMARK    8  A    between atoms: C_16  and  C_17
REMARK                            x       y       z     vdW  Elec       q    Type
REMARK                         _______ _______ _______ _____ _____    ______ ____
ROOT
ATOM      1  C   UNL     1       5.137   4.834  15.829  0.00  0.00    +0.000 A 
ATOM      2  C   UNL     1       5.043   6.186  16.148  0.00  0.00    +0.000 A 
ATOM      3  C   UNL     1       4.602   6.594  17.411  0.00  0.00    +0.000 A 
ATOM      4  C   UNL     1       4.211   5.664  18.380  0.00  0.00    +0.000 A 
ATOM      5  C   UNL     1       4.374   4.309  18.076  0.00  0.00    +0.000 A 
ATOM      6  C   UNL     1       4.800   3.893  16.806  0.00  0.00    +0.000 A 
ENDROOT
BRANCH   1   9
ATOM      7  C   UNL     1       6.706   4.686  13.900  0.00  0.00    +0.000 C 
ATOM      8  O   UNL     1       7.655   5.314  14.368  0.00  0.00    +0.000 OA
ATOM      9  N   UNL     1       5.534   4.365  14.559  0.00  0.00    +0.000 N 
ATOM     10  H   UNL     1       4.927   3.683  14.119  0.00  0.00    +0.000 HD
BRANCH   7  11
ATOM     11  C   UNL     1       6.770   4.169  12.476  0.00  0.00    +0.000 C 
BRANCH  11  13
ATOM     12  C   UNL     1       4.617   3.302  11.441  0.00  0.00    +0.000 C 
ATOM     13  C   UNL     1       5.870   2.960  12.236  0.00  0.00    +0.000 C 
ENDBRANCH  11  13
ENDBRANCH   7  11
ENDBRANCH   1   9
BRANCH   4  14
ATOM     14  N   UNL     1       3.793   6.130  19.637  0.00  0.00    +0.000 N 
ATOM     15  H   UNL     1       4.215   7.035  19.842  0.00  0.00    +0.000 HD
BRANCH  14  16
ATOM     16  C   UNL     1       2.349   6.170  19.885  0.00  0.00    +0.000 C 
BRANCH  16  17
ATOM     17  C   UNL     1       1.791   7.559  20.031  0.00  0.00    +0.000 A 
ATOM     18  C   UNL     1       1.218   8.153  21.138  0.00  0.00    +0.000 A 
ATOM     19  C   UNL     1       0.853   9.510  20.897  0.00  0.00    +0.000 A 
ATOM     20  C   UNL     1       1.125   9.902  19.604  0.00  0.00    +0.000 A 
ATOM     21  C   UNL     1       0.912  11.234  18.971  0.00  0.00    +0.000 C 
ATOM     22  S   UNL     1       1.794   8.624  18.687  0.00  0.00    +0.000 S 
ENDBRANCH  16  17
ENDBRANCH  14  16
ENDBRANCH   4  14
TORSDOF 6
ENDMDL
MODEL 7
REMARK VINA RESULT:      -6.7      5.634      8.136
REMARK  Name = 
REMARK  8 active torsions:
REMARK  status: ('A' for Active; 'I' for Inactive)
REMARK    1  A    between atoms: C_1  and  C_2
REMARK    2  A    between atoms: C_2  and  C_3
REMARK    3  A    between atoms: C_3  and  C_4
REMARK    4  A    between atoms: N_6  and  C_7
REMARK    5  A    between atoms: C_10  and  N_11
REMARK    6  A    between atoms: N_11  and  C_12
REMARK    7  A    between atoms: C_12  and  C_13
REMARK    8  A    between atoms: C_16  and  C_17
REMARK                            x       y       z     vdW  Elec       q    Type
REMARK                         _______ _______ _______ _____ _____    ______ ____
ROOT
ATOM      1  C   UNL     1       5.812   5.428  17.453  0.00  0.00    +0.000 A 
ATOM      2  C   UNL     1       5.958   6.680  16.862  0.00  0.00    +0.000 A 
ATOM      3  C   UNL     1       6.936   7.573  17.311  0.00  0.00    +0.000 A 
ATOM      4  C   UNL     1       7.775   7.255  18.385  0.00  0.00    +0.000 A 
ATOM      5  C   UNL     1       7.667   5.970  18.927  0.00  0.00    +0.000 A 
ATOM      6  C   UNL     1       6.679   5.076  18.492  0.00  0.00    +0.000 A 
ENDROOT
BRANCH   1   9
ATOM      7  C   UNL     1       3.487   4.535  17.444  0.00  0.00    +0.000 C 
ATOM      8  O   UNL     1       2.922   5.445  18.049  0.00  0.00    +0.000 OA
ATOM      9  N   UNL     1       4.817   4.503  17.071  0.00  0.00    +0.000 N 
ATOM     10  H   UNL     1       5.098   3.784  16.414  0.00  0.00    +0.000 HD
BRANCH   7  11
ATOM     11  C   UNL     1       2.702   3.307  17.023  0.00  0.00    +0.000 C 
BRANCH  11  13
ATOM     12  C   UNL     1       3.617   1.464  18.515  0.00  0.00    +0.000 C 
ATOM     13  C   UNL     1       2.423   2.349  18.177  0.00  0.00    +0.000 C 
ENDBRANCH  11  13
ENDBRANCH   7  11
ENDBRANCH   1   9
BRANCH   4  14
ATOM     14  N   UNL     1       8.751   8.183  18.781  0.00  0.00    +0.000 N 
ATOM     15  H   UNL     1       9.684   7.830  18.575  0.00  0.00    +0.000 HD
BRANCH  14  16
ATOM     16  C   UNL     1       8.600   9.556  18.290  0.00  0.00    +0.000 C 
BRANCH  16  17
ATOM     17  C   UNL     1       9.444  10.564  19.022  0.00  0.00    +0.000 A 
ATOM     18  C   UNL     1       9.579  10.758  20.383  0.00  0.00    +0.000 A 
ATOM     19  C   UNL     1      10.516  11.787  20.692  0.00  0.00    +0.000 A 
ATOM     20  C   UNL     1      11.041  12.372  19.560  0.00  0.00    +0.000 A 
ATOM     21  C   UNL     1      12.056  13.459  19.460  0.00  0.00    +0.000 C 
ATOM     22  S   UNL     1      10.381  11.693  18.137  0.00  0.00    +0.000 S 
ENDBRANCH  16  17
ENDBRANCH  14  16
ENDBRANCH   4  14
TORSDOF 6
ENDMDL
MODEL 8
REMARK VINA RESULT:      -6.7      4.409      6.764
REMARK  Name = 
REMARK  8 active torsions:
REMARK  status: ('A' for Active; 'I' for Inactive)
REMARK    1  A    between atoms: C_1  and  C_2
REMARK    2  A    between atoms: C_2  and  C_3
REMARK    3  A    between atoms: C_3  and  C_4
REMARK    4  A    between atoms: N_6  and  C_7
REMARK    5  A    between atoms: C_10  and  N_11
REMARK    6  A    between atoms: N_11  and  C_12
REMARK    7  A    between atoms: C_12  and  C_13
REMARK    8  A    between atoms: C_16  and  C_17
REMARK                            x       y       z     vdW  Elec       q    Type
REMARK                         _______ _______ _______ _____ _____    ______ ____
ROOT
ATOM      1  C   UNL     1       7.977   7.139  18.391  0.00  0.00    +0.000 A 
ATOM      2  C   UNL     1       7.245   7.253  17.212  0.00  0.00    +0.000 A 
ATOM      3  C   UNL     1       6.607   6.139  16.656  0.00  0.00    +0.000 A 
ATOM      4  C   UNL     1       6.708   4.873  17.244  0.00  0.00    +0.000 A 
ATOM      5  C   UNL     1       7.386   4.782  18.463  0.00  0.00    +0.000 A 
ATOM      6  C   UNL     1       8.042   5.891  19.018  0.00  0.00    +0.000 A 
ENDROOT
BRANCH   1   9
ATOM      7  C   UNL     1       8.664   9.528  18.539  0.00  0.00    +0.000 C 
ATOM      8  O   UNL     1       7.937   9.999  17.665  0.00  0.00    +0.000 OA
ATOM      9  N   UNL     1       8.675   8.216  18.975  0.00  0.00    +0.000 N 
ATOM     10  H   UNL     1       9.185   8.015  19.828  0.00  0.00    +0.000 HD
BRANCH   7  11
ATOM     11  C   UNL     1       9.654  10.422  19.260  0.00  0.00    +0.000 C 
BRANCH  11  13
ATOM     12  C   UNL     1      10.626  12.760  19.038  0.00  0.00    +0.000 C 
ATOM     13  C   UNL     1      10.322  11.441  18.341  0.00  0.00    +0.000 C 
ENDBRANCH  11  13
ENDBRANCH   7  11
ENDBRANCH   1   9
BRANCH   4  14
ATOM     14  N   UNL     1       6.032   3.794  16.652  0.00  0.00    +0.000 N 
ATOM     15  H   UNL     1       6.240   2.928  17.146  0.00  0.00    +0.000 HD
BRANCH  14  16
ATOM     16  C   UNL     1       4.585   3.941  16.463  0.00  0.00    +0.000 C 
BRANCH  16  17
ATOM     17  C   UNL     1       3.772   3.629  17.690  0.00  0.00    +0.000 A 
ATOM     18  C   UNL     1       3.963   2.634  18.628  0.00  0.00    +0.000 A 
ATOM     19  C   UNL     1       3.004   2.692  19.682  0.00  0.00    +0.000 A 
ATOM     20  C   UNL     1       2.088   3.706  19.498  0.00  0.00    +0.000 A 
ATOM     21  C   UNL     1       0.953   4.105  20.378  0.00  0.00    +0.000 C 
ATOM     22  S   UNL     1       2.379   4.562  18.047  0.00  0.00    +0.000 S 
ENDBRANCH  16  17
ENDBRANCH  14  16
ENDBRANCH   4  14
TORSDOF 6
ENDMDL
MODEL 9
REMARK VINA RESULT:      -6.7      2.522      3.749
REMARK  Name = 
REMARK  8 active torsions:
REMARK  status: ('A' for Active; 'I' for Inactive)
REMARK    1  A    between atoms: C_1  and  C_2
REMARK    2  A    between atoms: C_2  and  C_3
REMARK    3  A    between atoms: C_3  and  C_4
REMARK    4  A    between atoms: N_6  and  C_7
REMARK    5  A    between atoms: C_10  and  N_11
REMARK    6  A    between atoms: N_11  and  C_12
REMARK    7  A    between atoms: C_12  and  C_13
REMARK    8  A    between atoms: C_16  and  C_17
REMARK                            x       y       z     vdW  Elec       q    Type
REMARK                         _______ _______ _______ _____ _____    ______ ____
ROOT
ATOM      1  C   UNL     1       5.316   4.356  16.169  0.00  0.00    +0.000 A 
ATOM      2  C   UNL     1       6.035   5.251  16.958  0.00  0.00    +0.000 A 
ATOM      3  C   UNL     1       5.518   5.704  18.177  0.00  0.00    +0.000 A 
ATOM      4  C   UNL     1       4.256   5.302  18.627  0.00  0.00    +0.000 A 
ATOM      5  C   UNL     1       3.573   4.351  17.862  0.00  0.00    +0.000 A 
ATOM      6  C   UNL     1       4.077   3.905  16.632  0.00  0.00    +0.000 A 
ENDROOT
BRANCH   1   9
ATOM      7  C   UNL     1       6.726   4.500  14.121  0.00  0.00    +0.000 C 
ATOM      8  O   UNL     1       7.443   5.448  14.440  0.00  0.00    +0.000 OA
ATOM      9  N   UNL     1       5.767   3.898  14.913  0.00  0.00    +0.000 N 
ATOM     10  H   UNL     1       5.391   3.012  14.594  0.00  0.00    +0.000 HD
BRANCH   7  11
ATOM     11  C   UNL     1       6.868   3.874  12.747  0.00  0.00    +0.000 C 
BRANCH  11  13
ATOM     12  C   UNL     1       5.757   1.987  11.457  0.00  0.00    +0.000 C 
ATOM     13  C   UNL     1       5.560   3.293  12.215  0.00  0.00    +0.000 C 
ENDBRANCH  11  13
ENDBRANCH   7  11
ENDBRANCH   1   9
BRANCH   4  14
ATOM     14  N   UNL     1       3.796   5.774  19.866  0.00  0.00    +0.000 N 
ATOM     15  H   UNL     1       4.384   6.536  20.200  0.00  0.00    +0.000 HD
BRANCH  14  16
ATOM     16  C   UNL     1       2.380   6.144  19.951  0.00  0.00    +0.000 C 
BRANCH  16  17
ATOM     17  C   UNL     1       2.064   7.495  19.369  0.00  0.00    +0.000 A 
ATOM     18  C   UNL     1       2.352   7.987  18.111  0.00  0.00    +0.000 A 
ATOM     19  C   UNL     1       1.843   9.304  17.915  0.00  0.00    +0.000 A 
ATOM     20  C   UNL     1       1.213   9.793  19.040  0.00  0.00    +0.000 A 
ATOM     21  C   UNL     1       0.538  11.108  19.231  0.00  0.00    +0.000 C 
ATOM     22  S   UNL     1       1.264   8.669  20.327  0.00  0.00    +0.000 S 
ENDBRANCH  16  17
ENDBRANCH  14  16
ENDBRANCH   4  14
TORSDOF 6
ENDMDL
