MODEL 1
REMARK VINA RESULT:      -8.5      0.000      0.000
REMARK  Name = 
REMARK  7 active torsions:
REMARK  status: ('A' for Active; 'I' for Inactive)
REMARK    1  A    between atoms: C_1  and  C_2
REMARK    2  A    between atoms: C_2  and  C_3
REMARK    3  A    between atoms: C_7  and  C_8
REMARK    4  A    between atoms: C_9  and  N_10
REMARK    5  A    between atoms: C_11  and  C_13
REMARK    6  A    between atoms: C_15  and  C_16
REMARK    7  A    between atoms: C_18  and  C_19
REMARK                            x       y       z     vdW  Elec       q    Type
REMARK                         _______ _______ _______ _____ _____    ______ ____
ROOT
ATOM      1  N   UNL     1       3.964   4.369  17.830  0.00  0.00    +0.000 N 
ATOM      2  C   UNL     1       5.315   4.465  18.100  0.00  0.00    +0.000 C 
ATOM      3  O   UNL     1       5.814   4.311  19.213  0.00  0.00    +0.000 OA
ATOM      4  H   UNL     1       3.669   4.956  17.069  0.00  0.00    +0.000 HD
ENDROOT
BRANCH   1  11
ATOM      5  C   UNL     1       2.342   5.104  19.575  0.00  0.00    +0.000 A 
ATOM      6  C   UNL     1       1.404   4.711  20.557  0.00  0.00    +0.000 A 
ATOM      7  C   UNL     1       1.095   3.374  20.779  0.00  0.00    +0.000 A 
ATOM      8  C   UNL     1       1.733   2.390  20.041  0.00  0.00    +0.000 A 
ATOM      9  C   UNL     1       2.681   2.730  19.065  0.00  0.00    +0.000 A 
ATOM     10  C   UNL     1       3.310   1.614  18.270  0.00  0.00    +0.000 C 
ATOM     11  C   UNL     1       2.975   4.095  18.810  0.00  0.00    +0.000 A 
BRANCH   5  13
ATOM     12  C   UNL     1       2.336   7.294  18.249  0.00  0.00    +0.000 C 
ATOM     13  C   UNL     1       2.725   6.572  19.537  0.00  0.00    +0.000 C 
ENDBRANCH   5  13
ENDBRANCH   1  11
BRANCH   2  14
ATOM     14  C   UNL     1       6.167   4.830  16.956  0.00  0.00    +0.000 A 
ATOM     15  C   UNL     1       6.193   4.138  15.700  0.00  0.00    +0.000 A 
ATOM     16  C   UNL     1       6.994   4.863  14.851  0.00  0.00    +0.000 A 
ATOM     17  C   UNL     1       7.315   4.767  13.413  0.00  0.00    +0.000 C 
ATOM     18  O   UNL     1       7.546   5.905  15.520  0.00  0.00    +0.000 OA
ATOM     19  C   UNL     1       7.047   5.895  16.791  0.00  0.00    +0.000 A 
ATOM     20  C   UNL     1       7.517   7.024  17.625  0.00  0.00    +0.000 C 
ENDBRANCH   2  14
TORSDOF 3
ENDMDL
MODEL 2
REMARK VINA RESULT:      -8.1      0.507      2.507
REMARK  Name = 
REMARK  7 active torsions:
REMARK  status: ('A' for Active; 'I' for Inactive)
REMARK    1  A    between atoms: C_1  and  C_2
REMARK    2  A    between atoms: C_2  and  C_3
REMARK    3  A    between atoms: C_7  and  C_8
REMARK    4  A    between atoms: C_9  and  N_10
REMARK    5  A    between atoms: C_11  and  C_13
REMARK    6  A    between atoms: C_15  and  C_16
REMARK    7  A    between atoms: C_18  and  C_19
REMARK                            x       y       z     vdW  Elec       q    Type
REMARK                         _______ _______ _______ _____ _____    ______ ____
ROOT
ATOM      1  N   UNL     1       3.897   4.608  17.713  0.00  0.00    +0.000 N 
ATOM      2  C   UNL     1       5.250   4.435  17.932  0.00  0.00    +0.000 C 
ATOM      3  O   UNL     1       5.738   4.037  18.987  0.00  0.00    +0.000 OA
ATOM      4  H   UNL     1       3.692   5.342  17.057  0.00  0.00    +0.000 HD
ENDROOT
BRANCH   1  11
ATOM      5  C   UNL     1       2.319   3.087  18.902  0.00  0.00    +0.000 A 
ATOM      6  C   UNL     1       1.296   2.969  19.871  0.00  0.00    +0.000 A 
ATOM      7  C   UNL     1       0.855   4.062  20.605  0.00  0.00    +0.000 A 
ATOM      8  C   UNL     1       1.409   5.312  20.376  0.00  0.00    +0.000 A 
ATOM      9  C   UNL     1       2.418   5.482  19.417  0.00  0.00    +0.000 A 
ATOM     10  C   UNL     1       3.006   6.860  19.244  0.00  0.00    +0.000 C 
ATOM     11  C   UNL     1       2.896   4.362  18.688  0.00  0.00    +0.000 A 
BRANCH   5  13
ATOM     12  C   UNL     1       3.847   1.083  18.449  0.00  0.00    +0.000 C 
ATOM     13  C   UNL     1       2.601   1.867  18.044  0.00  0.00    +0.000 C 
ENDBRANCH   5  13
ENDBRANCH   1  11
BRANCH   2  14
ATOM     14  C   UNL     1       6.128   4.816  16.814  0.00  0.00    +0.000 A 
ATOM     15  C   UNL     1       6.177   4.149  15.545  0.00  0.00    +0.000 A 
ATOM     16  C   UNL     1       7.000   4.885  14.727  0.00  0.00    +0.000 A 
ATOM     17  C   UNL     1       7.351   4.815  13.296  0.00  0.00    +0.000 C 
ATOM     18  O   UNL     1       7.545   5.910  15.429  0.00  0.00    +0.000 OA
ATOM     19  C   UNL     1       7.019   5.878  16.689  0.00  0.00    +0.000 A 
ATOM     20  C   UNL     1       7.478   6.987  17.555  0.00  0.00    +0.000 C 
ENDBRANCH   2  14
TORSDOF 3
ENDMDL
MODEL 3
REMARK VINA RESULT:      -7.7      1.419      1.472
REMARK  Name = 
REMARK  7 active torsions:
REMARK  status: ('A' for Active; 'I' for Inactive)
REMARK    1  A    between atoms: C_1  and  C_2
REMARK    2  A    between atoms: C_2  and  C_3
REMARK    3  A    between atoms: C_7  and  C_8
REMARK    4  A    between atoms: C_9  and  N_10
REMARK    5  A    between atoms: C_11  and  C_13
REMARK    6  A    between atoms: C_15  and  C_16
REMARK    7  A    between atoms: C_18  and  C_19
REMARK                            x       y       z     vdW  Elec       q    Type
REMARK                         _______ _______ _______ _____ _____    ______ ____
ROOT
ATOM      1  N   UNL     1       4.594   4.377  18.481  0.00  0.00    +0.000 N 
ATOM      2  C   UNL     1       4.423   4.102  17.138  0.00  0.00    +0.000 C 
ATOM      3  O   UNL     1       3.385   3.671  16.643  0.00  0.00    +0.000 OA
ATOM      4  H   UNL     1       5.541   4.251  18.795  0.00  0.00    +0.000 HD
ENDROOT
BRANCH   1  11
ATOM      5  C   UNL     1       2.648   5.173  19.821  0.00  0.00    +0.000 A 
ATOM      6  C   UNL     1       1.723   4.882  20.850  0.00  0.00    +0.000 A 
ATOM      7  C   UNL     1       1.723   3.658  21.507  0.00  0.00    +0.000 A 
ATOM      8  C   UNL     1       2.663   2.696  21.169  0.00  0.00    +0.000 A 
ATOM      9  C   UNL     1       3.608   2.944  20.164  0.00  0.00    +0.000 A 
ATOM     10  C   UNL     1       4.578   1.843  19.818  0.00  0.00    +0.000 C 
ATOM     11  C   UNL     1       3.591   4.180  19.466  0.00  0.00    +0.000 A 
BRANCH   5  13
ATOM     12  C   UNL     1       1.912   7.603  20.161  0.00  0.00    +0.000 C 
ATOM     13  C   UNL     1       2.666   6.596  19.294  0.00  0.00    +0.000 C 
ENDBRANCH   5  13
ENDBRANCH   1  11
BRANCH   2  14
ATOM     14  C   UNL     1       5.611   4.307  16.293  0.00  0.00    +0.000 A 
ATOM     15  C   UNL     1       5.602   4.335  14.859  0.00  0.00    +0.000 A 
ATOM     16  C   UNL     1       6.863   4.695  14.449  0.00  0.00    +0.000 A 
ATOM     17  C   UNL     1       7.460   5.027  13.140  0.00  0.00    +0.000 C 
ATOM     18  O   UNL     1       7.682   4.798  15.525  0.00  0.00    +0.000 OA
ATOM     19  C   UNL     1       6.932   4.570  16.643  0.00  0.00    +0.000 A 
ATOM     20  C   UNL     1       7.687   4.714  17.908  0.00  0.00    +0.000 C 
ENDBRANCH   2  14
TORSDOF 3
ENDMDL
MODEL 4
REMARK VINA RESULT:      -7.5      1.244      2.694
REMARK  Name = 
REMARK  7 active torsions:
REMARK  status: ('A' for Active; 'I' for Inactive)
REMARK    1  A    between atoms: C_1  and  C_2
REMARK    2  A    between atoms: C_2  and  C_3
REMARK    3  A    between atoms: C_7  and  C_8
REMARK    4  A    between atoms: C_9  and  N_10
REMARK    5  A    between atoms: C_11  and  C_13
REMARK    6  A    between atoms: C_15  and  C_16
REMARK    7  A    between atoms: C_18  and  C_19
REMARK                            x       y       z     vdW  Elec       q    Type
REMARK                         _______ _______ _______ _____ _____    ______ ____
ROOT
ATOM      1  N   UNL     1       4.628   4.788  18.322  0.00  0.00    +0.000 N 
ATOM      2  C   UNL     1       4.507   4.438  16.991  0.00  0.00    +0.000 C 
ATOM      3  O   UNL     1       3.534   3.864  16.509  0.00  0.00    +0.000 OA
ATOM      4  H   UNL     1       5.580   4.790  18.647  0.00  0.00    +0.000 HD
ENDROOT
BRANCH   1  11
ATOM      5  C   UNL     1       3.554   3.275  19.986  0.00  0.00    +0.000 A 
ATOM      6  C   UNL     1       2.505   3.097  20.918  0.00  0.00    +0.000 A 
ATOM      7  C   UNL     1       1.580   4.101  21.178  0.00  0.00    +0.000 A 
ATOM      8  C   UNL     1       1.664   5.305  20.495  0.00  0.00    +0.000 A 
ATOM      9  C   UNL     1       2.678   5.524  19.553  0.00  0.00    +0.000 A 
ATOM     10  C   UNL     1       2.736   6.869  18.874  0.00  0.00    +0.000 C 
ATOM     11  C   UNL     1       3.646   4.514  19.309  0.00  0.00    +0.000 A 
BRANCH   5  13
ATOM     12  C   UNL     1       3.814   1.153  18.576  0.00  0.00    +0.000 C 
ATOM     13  C   UNL     1       4.398   2.057  19.660  0.00  0.00    +0.000 C 
ENDBRANCH   5  13
ENDBRANCH   1  11
BRANCH   2  14
ATOM     14  C   UNL     1       5.671   4.747  16.145  0.00  0.00    +0.000 A 
ATOM     15  C   UNL     1       5.849   4.292  14.797  0.00  0.00    +0.000 A 
ATOM     16  C   UNL     1       6.974   4.908  14.302  0.00  0.00    +0.000 A 
ATOM     17  C   UNL     1       7.606   4.971  12.970  0.00  0.00    +0.000 C 
ATOM     18  O   UNL     1       7.563   5.639  15.281  0.00  0.00    +0.000 OA
ATOM     19  C   UNL     1       6.779   5.551  16.396  0.00  0.00    +0.000 A 
ATOM     20  C   UNL     1       7.270   6.359  17.535  0.00  0.00    +0.000 C 
ENDBRANCH   2  14
TORSDOF 3
ENDMDL
MODEL 5
REMARK VINA RESULT:      -7.5      1.136      2.622
REMARK  Name = 
REMARK  7 active torsions:
REMARK  status: ('A' for Active; 'I' for Inactive)
REMARK    1  A    between atoms: C_1  and  C_2
REMARK    2  A    between atoms: C_2  and  C_3
REMARK    3  A    between atoms: C_7  and  C_8
REMARK    4  A    between atoms: C_9  and  N_10
REMARK    5  A    between atoms: C_11  and  C_13
REMARK    6  A    between atoms: C_15  and  C_16
REMARK    7  A    between atoms: C_18  and  C_19
REMARK                            x       y       z     vdW  Elec       q    Type
REMARK                         _______ _______ _______ _____ _____    ______ ____
ROOT
ATOM      1  N   UNL     1       4.323   4.302  18.338  0.00  0.00    +0.000 N 
ATOM      2  C   UNL     1       5.630   4.716  18.513  0.00  0.00    +0.000 C 
ATOM      3  O   UNL     1       6.169   4.870  19.606  0.00  0.00    +0.000 OA
ATOM      4  H   UNL     1       3.900   4.669  17.503  0.00  0.00    +0.000 HD
ENDROOT
BRANCH   1  11
ATOM      5  C   UNL     1       3.514   2.848  20.194  0.00  0.00    +0.000 A 
ATOM      6  C   UNL     1       2.541   2.647  21.200  0.00  0.00    +0.000 A 
ATOM      7  C   UNL     1       1.521   3.564  21.423  0.00  0.00    +0.000 A 
ATOM      8  C   UNL     1       1.432   4.698  20.632  0.00  0.00    +0.000 A 
ATOM      9  C   UNL     1       2.366   4.935  19.614  0.00  0.00    +0.000 A 
ATOM     10  C   UNL     1       2.235   6.206  18.814  0.00  0.00    +0.000 C 
ATOM     11  C   UNL     1       3.429   4.018  19.403  0.00  0.00    +0.000 A 
BRANCH   5  13
ATOM     12  C   UNL     1       5.200   1.184  21.167  0.00  0.00    +0.000 C 
ATOM     13  C   UNL     1       4.475   1.704  19.928  0.00  0.00    +0.000 C 
ENDBRANCH   5  13
ENDBRANCH   1  11
BRANCH   2  14
ATOM     14  C   UNL     1       6.367   5.029  17.279  0.00  0.00    +0.000 A 
ATOM     15  C   UNL     1       6.329   4.244  16.079  0.00  0.00    +0.000 A 
ATOM     16  C   UNL     1       7.021   4.936  15.115  0.00  0.00    +0.000 A 
ATOM     17  C   UNL     1       7.231   4.744  13.666  0.00  0.00    +0.000 C 
ATOM     18  O   UNL     1       7.570   6.051  15.657  0.00  0.00    +0.000 OA
ATOM     19  C   UNL     1       7.175   6.117  16.963  0.00  0.00    +0.000 A 
ATOM     20  C   UNL     1       7.651   7.327  17.670  0.00  0.00    +0.000 C 
ENDBRANCH   2  14
TORSDOF 3
ENDMDL
MODEL 6
REMARK VINA RESULT:      -7.3      1.164      1.226
REMARK  Name = 
REMARK  7 active torsions:
REMARK  status: ('A' for Active; 'I' for Inactive)
REMARK    1  A    between atoms: C_1  and  C_2
REMARK    2  A    between atoms: C_2  and  C_3
REMARK    3  A    between atoms: C_7  and  C_8
REMARK    4  A    between atoms: C_9  and  N_10
REMARK    5  A    between atoms: C_11  and  C_13
REMARK    6  A    between atoms: C_15  and  C_16
REMARK    7  A    between atoms: C_18  and  C_19
REMARK                            x       y       z     vdW  Elec       q    Type
REMARK                         _______ _______ _______ _____ _____    ______ ____
ROOT
ATOM      1  N   UNL     1       3.485   4.187  17.746  0.00  0.00    +0.000 N 
ATOM      2  C   UNL     1       4.863   4.204  17.663  0.00  0.00    +0.000 C 
ATOM      3  O   UNL     1       5.619   4.010  18.612  0.00  0.00    +0.000 OA
ATOM      4  H   UNL     1       3.040   4.798  17.082  0.00  0.00    +0.000 HD
ENDROOT
BRANCH   1  11
ATOM      5  C   UNL     1       2.271   5.003  19.765  0.00  0.00    +0.000 A 
ATOM      6  C   UNL     1       1.605   4.658  20.963  0.00  0.00    +0.000 A 
ATOM      7  C   UNL     1       1.427   3.334  21.345  0.00  0.00    +0.000 A 
ATOM      8  C   UNL     1       1.929   2.316  20.549  0.00  0.00    +0.000 A 
ATOM      9  C   UNL     1       2.608   2.609  19.358  0.00  0.00    +0.000 A 
ATOM     10  C   UNL     1       3.096   1.455  18.519  0.00  0.00    +0.000 C 
ATOM     11  C   UNL     1       2.763   3.958  18.946  0.00  0.00    +0.000 A 
BRANCH   5  13
ATOM     12  C   UNL     1       1.802   7.420  20.468  0.00  0.00    +0.000 C 
ATOM     13  C   UNL     1       2.557   6.475  19.535  0.00  0.00    +0.000 C 
ENDBRANCH   5  13
ENDBRANCH   1  11
BRANCH   2  14
ATOM     14  C   UNL     1       5.416   4.532  16.339  0.00  0.00    +0.000 A 
ATOM     15  C   UNL     1       5.980   3.580  15.427  0.00  0.00    +0.000 A 
ATOM     16  C   UNL     1       6.244   4.245  14.253  0.00  0.00    +0.000 A 
ATOM     17  C   UNL     1       6.690   3.819  12.912  0.00  0.00    +0.000 C 
ATOM     18  O   UNL     1       5.974   5.565  14.404  0.00  0.00    +0.000 OA
ATOM     19  C   UNL     1       5.468   5.746  15.660  0.00  0.00    +0.000 A 
ATOM     20  C   UNL     1       5.065   7.141  15.946  0.00  0.00    +0.000 C 
ENDBRANCH   2  14
TORSDOF 3
ENDMDL
MODEL 7
REMARK VINA RESULT:      -7.2      1.298      1.434
REMARK  Name = 
REMARK  7 active torsions:
REMARK  status: ('A' for Active; 'I' for Inactive)
REMARK    1  A    between atoms: C_1  and  C_2
REMARK    2  A    between atoms: C_2  and  C_3
REMARK    3  A    between atoms: C_7  and  C_8
REMARK    4  A    between atoms: C_9  and  N_10
REMARK    5  A    between atoms: C_11  and  C_13
REMARK    6  A    between atoms: C_15  and  C_16
REMARK    7  A    between atoms: C_18  and  C_19
REMARK                            x       y       z     vdW  Elec       q    Type
REMARK                         _______ _______ _______ _____ _____    ______ ____
ROOT
ATOM      1  N   UNL     1       4.075   3.448  18.299  0.00  0.00    +0.000 N 
ATOM      2  C   UNL     1       5.023   4.452  18.313  0.00  0.00    +0.000 C 
ATOM      3  O   UNL     1       5.080   5.343  19.158  0.00  0.00    +0.000 OA
ATOM      4  H   UNL     1       3.855   3.122  17.373  0.00  0.00    +0.000 HD
ENDROOT
BRANCH   1  11
ATOM      5  C   UNL     1       1.769   3.947  19.103  0.00  0.00    +0.000 A 
ATOM      6  C   UNL     1       0.820   3.795  20.141  0.00  0.00    +0.000 A 
ATOM      7  C   UNL     1       1.100   3.058  21.284  0.00  0.00    +0.000 A 
ATOM      8  C   UNL     1       2.346   2.469  21.435  0.00  0.00    +0.000 A 
ATOM      9  C   UNL     1       3.324   2.603  20.439  0.00  0.00    +0.000 A 
ATOM     10  C   UNL     1       4.645   1.906  20.647  0.00  0.00    +0.000 C 
ATOM     11  C   UNL     1       3.032   3.326  19.253  0.00  0.00    +0.000 A 
BRANCH   5  13
ATOM     12  C   UNL     1       2.010   6.309  18.144  0.00  0.00    +0.000 C 
ATOM     13  C   UNL     1       1.417   4.910  17.985  0.00  0.00    +0.000 C 
ENDBRANCH   5  13
ENDBRANCH   1  11
BRANCH   2  14
ATOM     14  C   UNL     1       5.976   4.441  17.191  0.00  0.00    +0.000 A 
ATOM     15  C   UNL     1       5.609   4.381  15.805  0.00  0.00    +0.000 A 
ATOM     16  C   UNL     1       6.760   4.541  15.071  0.00  0.00    +0.000 A 
ATOM     17  C   UNL     1       7.043   4.706  13.632  0.00  0.00    +0.000 C 
ATOM     18  O   UNL     1       7.830   4.599  15.903  0.00  0.00    +0.000 OA
ATOM     19  C   UNL     1       7.363   4.545  17.185  0.00  0.00    +0.000 A 
ATOM     20  C   UNL     1       8.424   4.664  18.211  0.00  0.00    +0.000 C 
ENDBRANCH   2  14
TORSDOF 3
ENDMDL
MODEL 8
REMARK VINA RESULT:      -7.1      1.298      3.294
REMARK  Name = 
REMARK  7 active torsions:
REMARK  status: ('A' for Active; 'I' for Inactive)
REMARK    1  A    between atoms: C_1  and  C_2
REMARK    2  A    between atoms: C_2  and  C_3
REMARK    3  A    between atoms: C_7  and  C_8
REMARK    4  A    between atoms: C_9  and  N_10
REMARK    5  A    between atoms: C_11  and  C_13
REMARK    6  A    between atoms: C_15  and  C_16
REMARK    7  A    between atoms: C_18  and  C_19
REMARK                            x       y       z     vdW  Elec       q    Type
REMARK                         _______ _______ _______ _____ _____    ______ ____
ROOT
ATOM      1  N   UNL     1       4.262   5.170  19.153  0.00  0.00    +0.000 N 
ATOM      2  C   UNL     1       4.468   5.274  17.791  0.00  0.00    +0.000 C 
ATOM      3  O   UNL     1       3.748   4.762  16.938  0.00  0.00    +0.000 OA
ATOM      4  H   UNL     1       5.114   5.201  19.687  0.00  0.00    +0.000 HD
ENDROOT
BRANCH   1  11
ATOM      5  C   UNL     1       3.212   3.034  19.892  0.00  0.00    +0.000 A 
ATOM      6  C   UNL     1       2.074   2.407  20.452  0.00  0.00    +0.000 A 
ATOM      7  C   UNL     1       0.962   3.136  20.853  0.00  0.00    +0.000 A 
ATOM      8  C   UNL     1       0.945   4.512  20.685  0.00  0.00    +0.000 A 
ATOM      9  C   UNL     1       2.044   5.177  20.123  0.00  0.00    +0.000 A 
ATOM     10  C   UNL     1       1.978   6.679  20.003  0.00  0.00    +0.000 C 
ATOM     11  C   UNL     1       3.197   4.441  19.743  0.00  0.00    +0.000 A 
BRANCH   5  13
ATOM     12  C   UNL     1       3.877   1.326  18.103  0.00  0.00    +0.000 C 
ATOM     13  C   UNL     1       4.293   2.127  19.335  0.00  0.00    +0.000 C 
ENDBRANCH   5  13
ENDBRANCH   1  11
BRANCH   2  14
ATOM     14  C   UNL     1       5.674   6.016  17.387  0.00  0.00    +0.000 A 
ATOM     15  C   UNL     1       6.043   7.312  17.879  0.00  0.00    +0.000 A 
ATOM     16  C   UNL     1       7.293   7.597  17.384  0.00  0.00    +0.000 A 
ATOM     17  C   UNL     1       8.265   8.682  17.618  0.00  0.00    +0.000 C 
ATOM     18  O   UNL     1       7.685   6.611  16.539  0.00  0.00    +0.000 OA
ATOM     19  C   UNL     1       6.715   5.650  16.540  0.00  0.00    +0.000 A 
ATOM     20  C   UNL     1       7.040   4.473  15.703  0.00  0.00    +0.000 C 
ENDBRANCH   2  14
TORSDOF 3
ENDMDL
MODEL 9
REMARK VINA RESULT:      -6.9      1.661      1.899
REMARK  Name = 
REMARK  7 active torsions:
REMARK  status: ('A' for Active; 'I' for Inactive)
REMARK    1  A    between atoms: C_1  and  C_2
REMARK    2  A    between atoms: C_2  and  C_3
REMARK    3  A    between atoms: C_7  and  C_8
REMARK    4  A    between atoms: C_9  and  N_10
REMARK    5  A    between atoms: C_11  and  C_13
REMARK    6  A    between atoms: C_15  and  C_16
REMARK    7  A    between atoms: C_18  and  C_19
REMARK                            x       y       z     vdW  Elec       q    Type
REMARK                         _______ _______ _______ _____ _____    ______ ____
ROOT
ATOM      1  N   UNL     1       4.501   5.439  17.918  0.00  0.00    +0.000 N 
ATOM      2  C   UNL     1       4.437   4.626  16.802  0.00  0.00    +0.000 C 
ATOM      3  O   UNL     1       3.479   3.912  16.516  0.00  0.00    +0.000 OA
ATOM      4  H   UNL     1       5.436   5.563  18.266  0.00  0.00    +0.000 HD
ENDROOT
BRANCH   1  11
ATOM      5  C   UNL     1       2.595   6.650  18.974  0.00  0.00    +0.000 A 
ATOM      6  C   UNL     1       1.632   6.664  20.010  0.00  0.00    +0.000 A 
ATOM      7  C   UNL     1       1.530   5.626  20.927  0.00  0.00    +0.000 A 
ATOM      8  C   UNL     1       2.403   4.552  20.849  0.00  0.00    +0.000 A 
ATOM      9  C   UNL     1       3.382   4.498  19.847  0.00  0.00    +0.000 A 
ATOM     10  C   UNL     1       4.275   3.284  19.794  0.00  0.00    +0.000 C 
ATOM     11  C   UNL     1       3.469   5.540  18.887  0.00  0.00    +0.000 A 
BRANCH   5  13
ATOM     12  C   UNL     1       1.633   8.947  18.380  0.00  0.00    +0.000 C 
ATOM     13  C   UNL     1       2.727   7.909  18.139  0.00  0.00    +0.000 C 
ENDBRANCH   5  13
ENDBRANCH   1  11
BRANCH   2  14
ATOM     14  C   UNL     1       5.645   4.610  15.960  0.00  0.00    +0.000 A 
ATOM     15  C   UNL     1       5.645   4.676  14.527  0.00  0.00    +0.000 A 
ATOM     16  C   UNL     1       6.955   4.786  14.124  0.00  0.00    +0.000 A 
ATOM     17  C   UNL     1       7.610   5.025  12.823  0.00  0.00    +0.000 C 
ATOM     18  O   UNL     1       7.774   4.694  15.200  0.00  0.00    +0.000 OA
ATOM     19  C   UNL     1       6.990   4.593  16.314  0.00  0.00    +0.000 A 
ATOM     20  C   UNL     1       7.755   4.549  17.580  0.00  0.00    +0.000 C 
ENDBRANCH   2  14
TORSDOF 3
ENDMDL
