MODEL 1
REMARK VINA RESULT:      -8.3      0.000      0.000
REMARK  Name = 
REMARK  17 active torsions:
REMARK  status: ('A' for Active; 'I' for Inactive)
REMARK    1  A    between atoms: C_1  and  C_2
REMARK    2  A    between atoms: C_2  and  C_3
REMARK    3  A    between atoms: C_2  and  C_4
REMARK    4  A    between atoms: C_2  and  N_5
REMARK    5  A    between atoms: C_6  and  C_8
REMARK    6  A    between atoms: C_8  and  O_9
REMARK    7  A    between atoms: O_9  and  N_10
REMARK    8  A    between atoms: C_11  and  C_12
REMARK    9  A    between atoms: C_14  and  C_15
REMARK   10  A    between atoms: C_15  and  C_16
REMARK   11  A    between atoms: C_15  and  C_17
REMARK   12  A    between atoms: C_15  and  C_18
REMARK   13  A    between atoms: C_19  and  O_20
REMARK   14  A    between atoms: C_21  and  C_22
REMARK   15  A    between atoms: C_22  and  C_23
REMARK   16  A    between atoms: C_22  and  C_24
REMARK   17  A    between atoms: C_22  and  C_25
REMARK                            x       y       z     vdW  Elec       q    Type
REMARK                         _______ _______ _______ _____ _____    ______ ____
ROOT
ATOM      1  C   UNL     1       3.272   6.723  18.384  0.00  0.00    +0.000 A 
ATOM      2  C   UNL     1       2.664   5.516  18.729  0.00  0.00    +0.000 A 
ATOM      3  C   UNL     1       3.401   4.331  18.887  0.00  0.00    +0.000 A 
ATOM      4  C   UNL     1       4.804   4.444  18.695  0.00  0.00    +0.000 A 
ATOM      5  C   UNL     1       5.448   5.640  18.261  0.00  0.00    +0.000 A 
ATOM      6  C   UNL     1       4.637   6.781  18.121  0.00  0.00    +0.000 A 
ENDROOT
BRANCH   3   7
ATOM      7  C   UNL     1       2.654   3.020  19.248  0.00  0.00    +0.000 C 
ATOM      8  C   UNL     1       3.194   1.772  18.488  0.00  0.00    +0.000 C 
ATOM      9  C   UNL     1       2.833   2.690  20.746  0.00  0.00    +0.000 C 
ATOM     10  C   UNL     1       1.154   3.104  18.902  0.00  0.00    +0.000 C 
ENDBRANCH   3   7
BRANCH   5  11
ATOM     11  C   UNL     1       6.958   5.703  17.911  0.00  0.00    +0.000 C 
ATOM     12  C   UNL     1       7.304   7.075  17.284  0.00  0.00    +0.000 C 
ATOM     13  C   UNL     1       7.883   5.563  19.152  0.00  0.00    +0.000 C 
ATOM     14  C   UNL     1       7.370   4.576  16.942  0.00  0.00    +0.000 C 
ENDBRANCH   5  11
BRANCH   1  16
ATOM     15  N   UNL     1       2.507   8.736  17.294  0.00  0.00    +0.000 NA
ATOM     16  C   UNL     1       2.467   7.958  18.327  0.00  0.00    +0.000 C 
BRANCH  15  17
ATOM     17  O   UNL     1       1.617   9.800  17.470  0.00  0.00    +0.000 OA
BRANCH  17  18
ATOM     18  C   UNL     1       1.074   9.706  18.785  0.00  0.00    +0.000 C 
BRANCH  18  20
ATOM     19  N   UNL     1      -0.991  10.197  17.576  0.00  0.00    +0.000 N 
ATOM     20  C   UNL     1      -0.387  10.142  18.815  0.00  0.00    +0.000 C 
ATOM     21  O   UNL     1      -0.949  10.426  19.869  0.00  0.00    +0.000 OA
ATOM     22  H   UNL     1      -0.413   9.926  16.792  0.00  0.00    +0.000 HD
BRANCH  19  24
ATOM     23  C   UNL     1      -2.729  11.891  18.043  0.00  0.00    +0.000 C 
ATOM     24  C   UNL     1      -2.385  10.577  17.325  0.00  0.00    +0.000 C 
ATOM     25  C   UNL     1      -3.340   9.458  17.770  0.00  0.00    +0.000 C 
ATOM     26  C   UNL     1      -2.564  10.792  15.811  0.00  0.00    +0.000 C 
ENDBRANCH  19  24
ENDBRANCH  18  20
ENDBRANCH  17  18
ENDBRANCH  15  17
ENDBRANCH   1  16
BRANCH   4  27
ATOM     27  O   UNL     1       5.614   3.381  18.985  0.00  0.00    +0.000 OA
ATOM     28  H   UNL     1       5.438   3.121  19.900  0.00  0.00    +0.000 HD
ENDBRANCH   4  27
TORSDOF 8
ENDMDL
MODEL 2
REMARK VINA RESULT:      -8.0      0.995      1.812
REMARK  Name = 
REMARK  17 active torsions:
REMARK  status: ('A' for Active; 'I' for Inactive)
REMARK    1  A    between atoms: C_1  and  C_2
REMARK    2  A    between atoms: C_2  and  C_3
REMARK    3  A    between atoms: C_2  and  C_4
REMARK    4  A    between atoms: C_2  and  N_5
REMARK    5  A    between atoms: C_6  and  C_8
REMARK    6  A    between atoms: C_8  and  O_9
REMARK    7  A    between atoms: O_9  and  N_10
REMARK    8  A    between atoms: C_11  and  C_12
REMARK    9  A    between atoms: C_14  and  C_15
REMARK   10  A    between atoms: C_15  and  C_16
REMARK   11  A    between atoms: C_15  and  C_17
REMARK   12  A    between atoms: C_15  and  C_18
REMARK   13  A    between atoms: C_19  and  O_20
REMARK   14  A    between atoms: C_21  and  C_22
REMARK   15  A    between atoms: C_22  and  C_23
REMARK   16  A    between atoms: C_22  and  C_24
REMARK   17  A    between atoms: C_22  and  C_25
REMARK                            x       y       z     vdW  Elec       q    Type
REMARK                         _______ _______ _______ _____ _____    ______ ____
ROOT
ATOM      1  C   UNL     1       3.095   6.701  18.171  0.00  0.00    +0.000 A 
ATOM      2  C   UNL     1       2.433   5.685  18.859  0.00  0.00    +0.000 A 
ATOM      3  C   UNL     1       2.906   4.363  18.870  0.00  0.00    +0.000 A 
ATOM      4  C   UNL     1       4.111   4.131  18.155  0.00  0.00    +0.000 A 
ATOM      5  C   UNL     1       4.770   5.125  17.373  0.00  0.00    +0.000 A 
ATOM      6  C   UNL     1       4.228   6.423  17.412  0.00  0.00    +0.000 A 
ENDROOT
BRANCH   3   7
ATOM      7  C   UNL     1       2.103   3.280  19.637  0.00  0.00    +0.000 C 
ATOM      8  C   UNL     1       0.760   3.807  20.225  0.00  0.00    +0.000 C 
ATOM      9  C   UNL     1       1.704   2.129  18.688  0.00  0.00    +0.000 C 
ATOM     10  C   UNL     1       2.896   2.723  20.836  0.00  0.00    +0.000 C 
ENDBRANCH   3   7
BRANCH   5  11
ATOM     11  C   UNL     1       5.999   4.815  16.479  0.00  0.00    +0.000 C 
ATOM     12  C   UNL     1       5.729   3.560  15.616  0.00  0.00    +0.000 C 
ATOM     13  C   UNL     1       6.330   5.953  15.474  0.00  0.00    +0.000 C 
ATOM     14  C   UNL     1       7.277   4.600  17.315  0.00  0.00    +0.000 C 
ENDBRANCH   5  11
BRANCH   1  16
ATOM     15  N   UNL     1       2.322   8.778  17.215  0.00  0.00    +0.000 NA
ATOM     16  C   UNL     1       2.611   8.091  18.272  0.00  0.00    +0.000 C 
BRANCH  15  17
ATOM     17  O   UNL     1       1.838  10.036  17.587  0.00  0.00    +0.000 OA
BRANCH  17  18
ATOM     18  C   UNL     1       1.062   9.875  18.773  0.00  0.00    +0.000 C 
BRANCH  18  20
ATOM     19  N   UNL     1      -0.961   9.888  17.404  0.00  0.00    +0.000 N 
ATOM     20  C   UNL     1      -0.373  10.345  18.565  0.00  0.00    +0.000 C 
ATOM     21  O   UNL     1      -0.930  11.079  19.377  0.00  0.00    +0.000 OA
ATOM     22  H   UNL     1      -0.390   9.281  16.831  0.00  0.00    +0.000 HD
BRANCH  19  24
ATOM     23  C   UNL     1      -3.352   9.457  17.857  0.00  0.00    +0.000 C 
ATOM     24  C   UNL     1      -2.330  10.184  16.970  0.00  0.00    +0.000 C 
ATOM     25  C   UNL     1      -2.527   9.795  15.496  0.00  0.00    +0.000 C 
ATOM     26  C   UNL     1      -2.564  11.700  17.105  0.00  0.00    +0.000 C 
ENDBRANCH  19  24
ENDBRANCH  18  20
ENDBRANCH  17  18
ENDBRANCH  15  17
ENDBRANCH   1  16
BRANCH   4  27
ATOM     27  O   UNL     1       4.727   2.914  18.246  0.00  0.00    +0.000 OA
ATOM     28  H   UNL     1       4.071   2.237  18.028  0.00  0.00    +0.000 HD
ENDBRANCH   4  27
TORSDOF 8
ENDMDL
MODEL 3
REMARK VINA RESULT:      -8.0      0.715      3.733
REMARK  Name = 
REMARK  17 active torsions:
REMARK  status: ('A' for Active; 'I' for Inactive)
REMARK    1  A    between atoms: C_1  and  C_2
REMARK    2  A    between atoms: C_2  and  C_3
REMARK    3  A    between atoms: C_2  and  C_4
REMARK    4  A    between atoms: C_2  and  N_5
REMARK    5  A    between atoms: C_6  and  C_8
REMARK    6  A    between atoms: C_8  and  O_9
REMARK    7  A    between atoms: O_9  and  N_10
REMARK    8  A    between atoms: C_11  and  C_12
REMARK    9  A    between atoms: C_14  and  C_15
REMARK   10  A    between atoms: C_15  and  C_16
REMARK   11  A    between atoms: C_15  and  C_17
REMARK   12  A    between atoms: C_15  and  C_18
REMARK   13  A    between atoms: C_19  and  O_20
REMARK   14  A    between atoms: C_21  and  C_22
REMARK   15  A    between atoms: C_22  and  C_23
REMARK   16  A    between atoms: C_22  and  C_24
REMARK   17  A    between atoms: C_22  and  C_25
REMARK                            x       y       z     vdW  Elec       q    Type
REMARK                         _______ _______ _______ _____ _____    ______ ____
ROOT
ATOM      1  C   UNL     1       3.069   6.707  18.193  0.00  0.00    +0.000 A 
ATOM      2  C   UNL     1       4.359   6.675  17.664  0.00  0.00    +0.000 A 
ATOM      3  C   UNL     1       5.066   5.473  17.500  0.00  0.00    +0.000 A 
ATOM      4  C   UNL     1       4.378   4.292  17.885  0.00  0.00    +0.000 A 
ATOM      5  C   UNL     1       3.094   4.293  18.504  0.00  0.00    +0.000 A 
ATOM      6  C   UNL     1       2.456   5.539  18.637  0.00  0.00    +0.000 A 
ENDROOT
BRANCH   3   7
ATOM      7  C   UNL     1       6.508   5.518  16.928  0.00  0.00    +0.000 C 
ATOM      8  C   UNL     1       6.596   5.075  15.437  0.00  0.00    +0.000 C 
ATOM      9  C   UNL     1       7.055   6.962  16.953  0.00  0.00    +0.000 C 
ATOM     10  C   UNL     1       7.458   4.582  17.701  0.00  0.00    +0.000 C 
ENDBRANCH   3   7
BRANCH   5  11
ATOM     11  C   UNL     1       2.424   3.006  19.055  0.00  0.00    +0.000 C 
ATOM     12  C   UNL     1       3.332   2.345  20.119  0.00  0.00    +0.000 C 
ATOM     13  C   UNL     1       1.069   3.275  19.766  0.00  0.00    +0.000 C 
ATOM     14  C   UNL     1       2.123   1.992  17.933  0.00  0.00    +0.000 C 
ENDBRANCH   5  11
BRANCH   1  16
ATOM     15  N   UNL     1       2.510   8.901  17.357  0.00  0.00    +0.000 NA
ATOM     16  C   UNL     1       2.332   7.984  18.252  0.00  0.00    +0.000 C 
BRANCH  15  17
ATOM     17  O   UNL     1       1.658   9.980  17.613  0.00  0.00    +0.000 OA
BRANCH  17  18
ATOM     18  C   UNL     1       0.992   9.732  18.849  0.00  0.00    +0.000 C 
BRANCH  18  20
ATOM     19  N   UNL     1      -1.021  10.193  17.543  0.00  0.00    +0.000 N 
ATOM     20  C   UNL     1      -0.458  10.201  18.803  0.00  0.00    +0.000 C 
ATOM     21  O   UNL     1      -1.046  10.563  19.818  0.00  0.00    +0.000 OA
ATOM     22  H   UNL     1      -0.425   9.860  16.797  0.00  0.00    +0.000 HD
BRANCH  19  24
ATOM     23  C   UNL     1      -2.573  10.766  15.708  0.00  0.00    +0.000 C 
ATOM     24  C   UNL     1      -2.396  10.587  17.223  0.00  0.00    +0.000 C 
ATOM     25  C   UNL     1      -2.775  11.879  17.964  0.00  0.00    +0.000 C 
ATOM     26  C   UNL     1      -3.342   9.466  17.691  0.00  0.00    +0.000 C 
ENDBRANCH  19  24
ENDBRANCH  18  20
ENDBRANCH  17  18
ENDBRANCH  15  17
ENDBRANCH   1  16
BRANCH   4  27
ATOM     27  O   UNL     1       4.927   3.070  17.611  0.00  0.00    +0.000 OA
ATOM     28  H   UNL     1       5.876   3.129  17.791  0.00  0.00    +0.000 HD
ENDBRANCH   4  27
TORSDOF 8
ENDMDL
MODEL 4
REMARK VINA RESULT:      -8.0      0.639      3.726
REMARK  Name = 
REMARK  17 active torsions:
REMARK  status: ('A' for Active; 'I' for Inactive)
REMARK    1  A    between atoms: C_1  and  C_2
REMARK    2  A    between atoms: C_2  and  C_3
REMARK    3  A    between atoms: C_2  and  C_4
REMARK    4  A    between atoms: C_2  and  N_5
REMARK    5  A    between atoms: C_6  and  C_8
REMARK    6  A    between atoms: C_8  and  O_9
REMARK    7  A    between atoms: O_9  and  N_10
REMARK    8  A    between atoms: C_11  and  C_12
REMARK    9  A    between atoms: C_14  and  C_15
REMARK   10  A    between atoms: C_15  and  C_16
REMARK   11  A    between atoms: C_15  and  C_17
REMARK   12  A    between atoms: C_15  and  C_18
REMARK   13  A    between atoms: C_19  and  O_20
REMARK   14  A    between atoms: C_21  and  C_22
REMARK   15  A    between atoms: C_22  and  C_23
REMARK   16  A    between atoms: C_22  and  C_24
REMARK   17  A    between atoms: C_22  and  C_25
REMARK                            x       y       z     vdW  Elec       q    Type
REMARK                         _______ _______ _______ _____ _____    ______ ____
ROOT
ATOM      1  C   UNL     1       2.970   6.748  18.077  0.00  0.00    +0.000 A 
ATOM      2  C   UNL     1       4.295   6.782  17.646  0.00  0.00    +0.000 A 
ATOM      3  C   UNL     1       5.105   5.634  17.640  0.00  0.00    +0.000 A 
ATOM      4  C   UNL     1       4.482   4.435  18.078  0.00  0.00    +0.000 A 
ATOM      5  C   UNL     1       3.158   4.379  18.602  0.00  0.00    +0.000 A 
ATOM      6  C   UNL     1       2.416   5.574  18.579  0.00  0.00    +0.000 A 
ENDROOT
BRANCH   3   7
ATOM      7  C   UNL     1       6.578   5.753  17.170  0.00  0.00    +0.000 C 
ATOM      8  C   UNL     1       7.557   4.838  17.966  0.00  0.00    +0.000 C 
ATOM      9  C   UNL     1       6.715   5.306  15.698  0.00  0.00    +0.000 C 
ATOM     10  C   UNL     1       7.117   7.188  17.337  0.00  0.00    +0.000 C 
ENDBRANCH   3   7
BRANCH   5  11
ATOM     11  C   UNL     1       2.549   3.091  19.216  0.00  0.00    +0.000 C 
ATOM     12  C   UNL     1       3.428   2.591  20.388  0.00  0.00    +0.000 C 
ATOM     13  C   UNL     1       1.132   3.306  19.815  0.00  0.00    +0.000 C 
ATOM     14  C   UNL     1       2.404   1.969  18.167  0.00  0.00    +0.000 C 
ENDBRANCH   5  11
BRANCH   1  16
ATOM     15  N   UNL     1       2.618   9.068  17.514  0.00  0.00    +0.000 NA
ATOM     16  C   UNL     1       2.134   7.959  17.971  0.00  0.00    +0.000 C 
BRANCH  15  17
ATOM     17  O   UNL     1       1.612  10.038  17.466  0.00  0.00    +0.000 OA
BRANCH  17  18
ATOM     18  C   UNL     1       1.077  10.181  18.780  0.00  0.00    +0.000 C 
BRANCH  18  20
ATOM     19  N   UNL     1      -0.987  10.346  17.483  0.00  0.00    +0.000 N 
ATOM     20  C   UNL     1      -0.431  10.408  18.744  0.00  0.00    +0.000 C 
ATOM     21  O   UNL     1      -1.068  10.636  19.769  0.00  0.00    +0.000 OA
ATOM     22  H   UNL     1      -0.346  10.139  16.729  0.00  0.00    +0.000 HD
BRANCH  19  24
ATOM     23  C   UNL     1      -3.242   9.376  17.772  0.00  0.00    +0.000 C 
ATOM     24  C   UNL     1      -2.409  10.520  17.172  0.00  0.00    +0.000 C 
ATOM     25  C   UNL     1      -2.625  10.600  15.652  0.00  0.00    +0.000 C 
ATOM     26  C   UNL     1      -2.884  11.844  17.798  0.00  0.00    +0.000 C 
ENDBRANCH  19  24
ENDBRANCH  18  20
ENDBRANCH  17  18
ENDBRANCH  15  17
ENDBRANCH   1  16
BRANCH   4  27
ATOM     27  O   UNL     1       5.144   3.246  17.953  0.00  0.00    +0.000 OA
ATOM     28  H   UNL     1       5.785   3.190  18.676  0.00  0.00    +0.000 HD
ENDBRANCH   4  27
TORSDOF 8
ENDMDL
MODEL 5
REMARK VINA RESULT:      -8.0      1.858      2.685
REMARK  Name = 
REMARK  17 active torsions:
REMARK  status: ('A' for Active; 'I' for Inactive)
REMARK    1  A    between atoms: C_1  and  C_2
REMARK    2  A    between atoms: C_2  and  C_3
REMARK    3  A    between atoms: C_2  and  C_4
REMARK    4  A    between atoms: C_2  and  N_5
REMARK    5  A    between atoms: C_6  and  C_8
REMARK    6  A    between atoms: C_8  and  O_9
REMARK    7  A    between atoms: O_9  and  N_10
REMARK    8  A    between atoms: C_11  and  C_12
REMARK    9  A    between atoms: C_14  and  C_15
REMARK   10  A    between atoms: C_15  and  C_16
REMARK   11  A    between atoms: C_15  and  C_17
REMARK   12  A    between atoms: C_15  and  C_18
REMARK   13  A    between atoms: C_19  and  O_20
REMARK   14  A    between atoms: C_21  and  C_22
REMARK   15  A    between atoms: C_22  and  C_23
REMARK   16  A    between atoms: C_22  and  C_24
REMARK   17  A    between atoms: C_22  and  C_25
REMARK                            x       y       z     vdW  Elec       q    Type
REMARK                         _______ _______ _______ _____ _____    ______ ____
ROOT
ATOM      1  C   UNL     1       3.118   6.508  17.989  0.00  0.00    +0.000 A 
ATOM      2  C   UNL     1       2.553   5.309  18.423  0.00  0.00    +0.000 A 
ATOM      3  C   UNL     1       3.339   4.216  18.819  0.00  0.00    +0.000 A 
ATOM      4  C   UNL     1       4.745   4.414  18.770  0.00  0.00    +0.000 A 
ATOM      5  C   UNL     1       5.358   5.593  18.255  0.00  0.00    +0.000 A 
ATOM      6  C   UNL     1       4.499   6.639  17.874  0.00  0.00    +0.000 A 
ENDROOT
BRANCH   3   7
ATOM      7  C   UNL     1       2.640   2.906  19.267  0.00  0.00    +0.000 C 
ATOM      8  C   UNL     1       3.248   1.627  18.617  0.00  0.00    +0.000 C 
ATOM      9  C   UNL     1       2.800   2.700  20.789  0.00  0.00    +0.000 C 
ATOM     10  C   UNL     1       1.145   2.898  18.889  0.00  0.00    +0.000 C 
ENDBRANCH   3   7
BRANCH   5  11
ATOM     11  C   UNL     1       6.892   5.732  18.069  0.00  0.00    +0.000 C 
ATOM     12  C   UNL     1       7.428   4.587  17.176  0.00  0.00    +0.000 C 
ATOM     13  C   UNL     1       7.309   7.049  17.359  0.00  0.00    +0.000 C 
ATOM     14  C   UNL     1       7.637   5.722  19.420  0.00  0.00    +0.000 C 
ENDBRANCH   5  11
BRANCH   1  16
ATOM     15  N   UNL     1       2.630   8.870  17.924  0.00  0.00    +0.000 NA
ATOM     16  C   UNL     1       2.249   7.658  17.678  0.00  0.00    +0.000 C 
BRANCH  15  17
ATOM     17  O   UNL     1       1.651   9.769  17.489  0.00  0.00    +0.000 OA
BRANCH  17  18
ATOM     18  C   UNL     1       1.497  10.771  18.491  0.00  0.00    +0.000 C 
BRANCH  18  20
ATOM     19  N   UNL     1       1.039  10.024  20.771  0.00  0.00    +0.000 N 
ATOM     20  C   UNL     1       0.486  10.347  19.550  0.00  0.00    +0.000 C 
ATOM     21  O   UNL     1      -0.716  10.295  19.302  0.00  0.00    +0.000 OA
ATOM     22  H   UNL     1       2.043  10.121  20.839  0.00  0.00    +0.000 HD
BRANCH  19  24
ATOM     23  C   UNL     1       1.247   9.286  23.121  0.00  0.00    +0.000 C 
ATOM     24  C   UNL     1       0.292   9.594  21.958  0.00  0.00    +0.000 C 
ATOM     25  C   UNL     1      -0.576   8.367  21.636  0.00  0.00    +0.000 C 
ATOM     26  C   UNL     1      -0.637  10.745  22.386  0.00  0.00    +0.000 C 
ENDBRANCH  19  24
ENDBRANCH  18  20
ENDBRANCH  17  18
ENDBRANCH  15  17
ENDBRANCH   1  16
BRANCH   4  27
ATOM     27  O   UNL     1       5.580   3.464  19.288  0.00  0.00    +0.000 OA
ATOM     28  H   UNL     1       6.475   3.658  18.975  0.00  0.00    +0.000 HD
ENDBRANCH   4  27
TORSDOF 8
ENDMDL
MODEL 6
REMARK VINA RESULT:      -8.0      0.588      3.733
REMARK  Name = 
REMARK  17 active torsions:
REMARK  status: ('A' for Active; 'I' for Inactive)
REMARK    1  A    between atoms: C_1  and  C_2
REMARK    2  A    between atoms: C_2  and  C_3
REMARK    3  A    between atoms: C_2  and  C_4
REMARK    4  A    between atoms: C_2  and  N_5
REMARK    5  A    between atoms: C_6  and  C_8
REMARK    6  A    between atoms: C_8  and  O_9
REMARK    7  A    between atoms: O_9  and  N_10
REMARK    8  A    between atoms: C_11  and  C_12
REMARK    9  A    between atoms: C_14  and  C_15
REMARK   10  A    between atoms: C_15  and  C_16
REMARK   11  A    between atoms: C_15  and  C_17
REMARK   12  A    between atoms: C_15  and  C_18
REMARK   13  A    between atoms: C_19  and  O_20
REMARK   14  A    between atoms: C_21  and  C_22
REMARK   15  A    between atoms: C_22  and  C_23
REMARK   16  A    between atoms: C_22  and  C_24
REMARK   17  A    between atoms: C_22  and  C_25
REMARK                            x       y       z     vdW  Elec       q    Type
REMARK                         _______ _______ _______ _____ _____    ______ ____
ROOT
ATOM      1  C   UNL     1       3.012   6.746  18.158  0.00  0.00    +0.000 A 
ATOM      2  C   UNL     1       4.343   6.793  17.746  0.00  0.00    +0.000 A 
ATOM      3  C   UNL     1       5.147   5.642  17.697  0.00  0.00    +0.000 A 
ATOM      4  C   UNL     1       4.514   4.428  18.073  0.00  0.00    +0.000 A 
ATOM      5  C   UNL     1       3.183   4.355  18.578  0.00  0.00    +0.000 A 
ATOM      6  C   UNL     1       2.447   5.553  18.600  0.00  0.00    +0.000 A 
ENDROOT
BRANCH   3   7
ATOM      7  C   UNL     1       6.627   5.774  17.251  0.00  0.00    +0.000 C 
ATOM      8  C   UNL     1       6.891   5.235  15.814  0.00  0.00    +0.000 C 
ATOM      9  C   UNL     1       7.049   7.259  17.209  0.00  0.00    +0.000 C 
ATOM     10  C   UNL     1       7.575   4.984  18.175  0.00  0.00    +0.000 C 
ENDBRANCH   3   7
BRANCH   5  11
ATOM     11  C   UNL     1       2.561   3.043  19.126  0.00  0.00    +0.000 C 
ATOM     12  C   UNL     1       1.051   3.242  19.401  0.00  0.00    +0.000 C 
ATOM     13  C   UNL     1       2.654   1.856  18.128  0.00  0.00    +0.000 C 
ATOM     14  C   UNL     1       3.262   2.571  20.416  0.00  0.00    +0.000 C 
ENDBRANCH   5  11
BRANCH   1  16
ATOM     15  N   UNL     1       2.576   9.009  17.443  0.00  0.00    +0.000 NA
ATOM     16  C   UNL     1       2.183   7.965  18.097  0.00  0.00    +0.000 C 
BRANCH  15  17
ATOM     17  O   UNL     1       1.590   9.999  17.497  0.00  0.00    +0.000 OA
BRANCH  17  18
ATOM     18  C   UNL     1       0.958   9.920  18.772  0.00  0.00    +0.000 C 
BRANCH  18  20
ATOM     19  N   UNL     1      -1.067  10.115  17.419  0.00  0.00    +0.000 N 
ATOM     20  C   UNL     1      -0.525  10.263  18.679  0.00  0.00    +0.000 C 
ATOM     21  O   UNL     1      -1.156  10.649  19.660  0.00  0.00    +0.000 OA
ATOM     22  H   UNL     1      -0.435   9.779  16.705  0.00  0.00    +0.000 HD
BRANCH  19  24
ATOM     23  C   UNL     1      -3.402   9.390  17.785  0.00  0.00    +0.000 C 
ATOM     24  C   UNL     1      -2.466  10.369  17.059  0.00  0.00    +0.000 C 
ATOM     25  C   UNL     1      -2.661  10.269  15.538  0.00  0.00    +0.000 C 
ATOM     26  C   UNL     1      -2.826  11.800  17.500  0.00  0.00    +0.000 C 
ENDBRANCH  19  24
ENDBRANCH  18  20
ENDBRANCH  17  18
ENDBRANCH  15  17
ENDBRANCH   1  16
BRANCH   4  27
ATOM     27  O   UNL     1       5.172   3.241  17.903  0.00  0.00    +0.000 OA
ATOM     28  H   UNL     1       5.558   3.246  17.015  0.00  0.00    +0.000 HD
ENDBRANCH   4  27
TORSDOF 8
ENDMDL
MODEL 7
REMARK VINA RESULT:      -8.0      1.813      4.492
REMARK  Name = 
REMARK  17 active torsions:
REMARK  status: ('A' for Active; 'I' for Inactive)
REMARK    1  A    between atoms: C_1  and  C_2
REMARK    2  A    between atoms: C_2  and  C_3
REMARK    3  A    between atoms: C_2  and  C_4
REMARK    4  A    between atoms: C_2  and  N_5
REMARK    5  A    between atoms: C_6  and  C_8
REMARK    6  A    between atoms: C_8  and  O_9
REMARK    7  A    between atoms: O_9  and  N_10
REMARK    8  A    between atoms: C_11  and  C_12
REMARK    9  A    between atoms: C_14  and  C_15
REMARK   10  A    between atoms: C_15  and  C_16
REMARK   11  A    between atoms: C_15  and  C_17
REMARK   12  A    between atoms: C_15  and  C_18
REMARK   13  A    between atoms: C_19  and  O_20
REMARK   14  A    between atoms: C_21  and  C_22
REMARK   15  A    between atoms: C_22  and  C_23
REMARK   16  A    between atoms: C_22  and  C_24
REMARK   17  A    between atoms: C_22  and  C_25
REMARK                            x       y       z     vdW  Elec       q    Type
REMARK                         _______ _______ _______ _____ _____    ______ ____
ROOT
ATOM      1  C   UNL     1       3.258   6.813  17.977  0.00  0.00    +0.000 A 
ATOM      2  C   UNL     1       4.649   6.799  17.872  0.00  0.00    +0.000 A 
ATOM      3  C   UNL     1       5.410   5.673  18.223  0.00  0.00    +0.000 A 
ATOM      4  C   UNL     1       4.674   4.543  18.670  0.00  0.00    +0.000 A 
ATOM      5  C   UNL     1       3.263   4.548  18.868  0.00  0.00    +0.000 A 
ATOM      6  C   UNL     1       2.575   5.718  18.497  0.00  0.00    +0.000 A 
ENDROOT
BRANCH   3   7
ATOM      7  C   UNL     1       6.955   5.739  18.104  0.00  0.00    +0.000 C 
ATOM      8  C   UNL     1       7.688   5.605  19.473  0.00  0.00    +0.000 C 
ATOM      9  C   UNL     1       7.483   4.567  17.247  0.00  0.00    +0.000 C 
ATOM     10  C   UNL     1       7.425   7.081  17.508  0.00  0.00    +0.000 C 
ENDBRANCH   3   7
BRANCH   5  11
ATOM     11  C   UNL     1       2.497   3.356  19.500  0.00  0.00    +0.000 C 
ATOM     12  C   UNL     1       1.055   3.782  19.868  0.00  0.00    +0.000 C 
ATOM     13  C   UNL     1       2.345   2.145  18.539  0.00  0.00    +0.000 C 
ATOM     14  C   UNL     1       3.211   2.817  20.756  0.00  0.00    +0.000 C 
ENDBRANCH   5  11
BRANCH   1  16
ATOM     15  N   UNL     1       2.257   8.987  18.284  0.00  0.00    +0.000 NA
ATOM     16  C   UNL     1       2.500   7.986  17.502  0.00  0.00    +0.000 C 
BRANCH  15  17
ATOM     17  O   UNL     1       1.575   9.983  17.578  0.00  0.00    +0.000 OA
BRANCH  17  18
ATOM     18  C   UNL     1       1.190  10.995  18.506  0.00  0.00    +0.000 C 
BRANCH  18  20
ATOM     19  N   UNL     1       0.901  10.163  20.784  0.00  0.00    +0.000 N 
ATOM     20  C   UNL     1       0.272  10.437  19.588  0.00  0.00    +0.000 C 
ATOM     21  O   UNL     1      -0.923  10.247  19.377  0.00  0.00    +0.000 OA
ATOM     22  H   UNL     1       1.888  10.378  20.822  0.00  0.00    +0.000 HD
BRANCH  19  24
ATOM     23  C   UNL     1      -0.524   8.343  21.660  0.00  0.00    +0.000 C 
ATOM     24  C   UNL     1       0.250   9.630  21.985  0.00  0.00    +0.000 C 
ATOM     25  C   UNL     1      -0.688  10.678  22.604  0.00  0.00    +0.000 C 
ATOM     26  C   UNL     1       1.342   9.289  23.016  0.00  0.00    +0.000 C 
ENDBRANCH  19  24
ENDBRANCH  18  20
ENDBRANCH  17  18
ENDBRANCH  15  17
ENDBRANCH   1  16
BRANCH   4  27
ATOM     27  O   UNL     1       5.319   3.356  18.879  0.00  0.00    +0.000 OA
ATOM     28  H   UNL     1       5.309   3.181  19.831  0.00  0.00    +0.000 HD
ENDBRANCH   4  27
TORSDOF 8
ENDMDL
MODEL 8
REMARK VINA RESULT:      -8.0      0.497      3.730
REMARK  Name = 
REMARK  17 active torsions:
REMARK  status: ('A' for Active; 'I' for Inactive)
REMARK    1  A    between atoms: C_1  and  C_2
REMARK    2  A    between atoms: C_2  and  C_3
REMARK    3  A    between atoms: C_2  and  C_4
REMARK    4  A    between atoms: C_2  and  N_5
REMARK    5  A    between atoms: C_6  and  C_8
REMARK    6  A    between atoms: C_8  and  O_9
REMARK    7  A    between atoms: O_9  and  N_10
REMARK    8  A    between atoms: C_11  and  C_12
REMARK    9  A    between atoms: C_14  and  C_15
REMARK   10  A    between atoms: C_15  and  C_16
REMARK   11  A    between atoms: C_15  and  C_17
REMARK   12  A    between atoms: C_15  and  C_18
REMARK   13  A    between atoms: C_19  and  O_20
REMARK   14  A    between atoms: C_21  and  C_22
REMARK   15  A    between atoms: C_22  and  C_23
REMARK   16  A    between atoms: C_22  and  C_24
REMARK   17  A    between atoms: C_22  and  C_25
REMARK                            x       y       z     vdW  Elec       q    Type
REMARK                         _______ _______ _______ _____ _____    ______ ____
ROOT
ATOM      1  C   UNL     1       3.083   6.628  18.103  0.00  0.00    +0.000 A 
ATOM      2  C   UNL     1       4.468   6.683  17.949  0.00  0.00    +0.000 A 
ATOM      3  C   UNL     1       5.295   5.589  18.252  0.00  0.00    +0.000 A 
ATOM      4  C   UNL     1       4.630   4.418  18.705  0.00  0.00    +0.000 A 
ATOM      5  C   UNL     1       3.228   4.352  18.953  0.00  0.00    +0.000 A 
ATOM      6  C   UNL     1       2.473   5.493  18.628  0.00  0.00    +0.000 A 
ENDROOT
BRANCH   3   7
ATOM      7  C   UNL     1       6.829   5.732  18.079  0.00  0.00    +0.000 C 
ATOM      8  C   UNL     1       7.614   5.642  19.421  0.00  0.00    +0.000 C 
ATOM      9  C   UNL     1       7.385   4.583  17.209  0.00  0.00    +0.000 C 
ATOM     10  C   UNL     1       7.211   7.092  17.461  0.00  0.00    +0.000 C 
ENDBRANCH   3   7
BRANCH   5  11
ATOM     11  C   UNL     1       2.544   3.114  19.591  0.00  0.00    +0.000 C 
ATOM     12  C   UNL     1       2.680   1.888  18.656  0.00  0.00    +0.000 C 
ATOM     13  C   UNL     1       3.181   2.686  20.941  0.00  0.00    +0.000 C 
ATOM     14  C   UNL     1       1.052   3.372  19.886  0.00  0.00    +0.000 C 
ENDBRANCH   5  11
BRANCH   1  16
ATOM     15  N   UNL     1       2.398   8.939  18.211  0.00  0.00    +0.000 NA
ATOM     16  C   UNL     1       2.253   7.770  17.677  0.00  0.00    +0.000 C 
BRANCH  15  17
ATOM     17  O   UNL     1       1.534   9.850  17.595  0.00  0.00    +0.000 OA
BRANCH  17  18
ATOM     18  C   UNL     1       1.055  10.746  18.595  0.00  0.00    +0.000 C 
BRANCH  18  20
ATOM     19  N   UNL     1      -1.081  10.775  17.409  0.00  0.00    +0.000 N 
ATOM     20  C   UNL     1      -0.469  10.758  18.645  0.00  0.00    +0.000 C 
ATOM     21  O   UNL     1      -1.074  10.763  19.714  0.00  0.00    +0.000 OA
ATOM     22  H   UNL     1      -0.461  10.758  16.611  0.00  0.00    +0.000 HD
BRANCH  19  24
ATOM     23  C   UNL     1      -2.841  10.989  15.686  0.00  0.00    +0.000 C 
ATOM     24  C   UNL     1      -2.529  10.781  17.177  0.00  0.00    +0.000 C 
ATOM     25  C   UNL     1      -3.209  11.868  18.023  0.00  0.00    +0.000 C 
ATOM     26  C   UNL     1      -3.093   9.412  17.602  0.00  0.00    +0.000 C 
ENDBRANCH  19  24
ENDBRANCH  18  20
ENDBRANCH  17  18
ENDBRANCH  15  17
ENDBRANCH   1  16
BRANCH   4  27
ATOM     27  O   UNL     1       5.338   3.260  18.869  0.00  0.00    +0.000 OA
ATOM     28  H   UNL     1       5.257   2.996  19.796  0.00  0.00    +0.000 HD
ENDBRANCH   4  27
TORSDOF 8
ENDMDL
MODEL 9
REMARK VINA RESULT:      -8.0      0.511      1.589
REMARK  Name = 
REMARK  17 active torsions:
REMARK  status: ('A' for Active; 'I' for Inactive)
REMARK    1  A    between atoms: C_1  and  C_2
REMARK    2  A    between atoms: C_2  and  C_3
REMARK    3  A    between atoms: C_2  and  C_4
REMARK    4  A    between atoms: C_2  and  N_5
REMARK    5  A    between atoms: C_6  and  C_8
REMARK    6  A    between atoms: C_8  and  O_9
REMARK    7  A    between atoms: O_9  and  N_10
REMARK    8  A    between atoms: C_11  and  C_12
REMARK    9  A    between atoms: C_14  and  C_15
REMARK   10  A    between atoms: C_15  and  C_16
REMARK   11  A    between atoms: C_15  and  C_17
REMARK   12  A    between atoms: C_15  and  C_18
REMARK   13  A    between atoms: C_19  and  O_20
REMARK   14  A    between atoms: C_21  and  C_22
REMARK   15  A    between atoms: C_22  and  C_23
REMARK   16  A    between atoms: C_22  and  C_24
REMARK   17  A    between atoms: C_22  and  C_25
REMARK                            x       y       z     vdW  Elec       q    Type
REMARK                         _______ _______ _______ _____ _____    ______ ____
ROOT
ATOM      1  C   UNL     1       3.177   6.578  18.144  0.00  0.00    +0.000 A 
ATOM      2  C   UNL     1       2.600   5.375  18.550  0.00  0.00    +0.000 A 
ATOM      3  C   UNL     1       3.376   4.246  18.861  0.00  0.00    +0.000 A 
ATOM      4  C   UNL     1       4.782   4.413  18.756  0.00  0.00    +0.000 A 
ATOM      5  C   UNL     1       5.402   5.599  18.266  0.00  0.00    +0.000 A 
ATOM      6  C   UNL     1       4.554   6.682  17.972  0.00  0.00    +0.000 A 
ENDROOT
BRANCH   3   7
ATOM      7  C   UNL     1       2.663   2.934  19.281  0.00  0.00    +0.000 C 
ATOM      8  C   UNL     1       1.126   2.957  19.032  0.00  0.00    +0.000 C 
ATOM      9  C   UNL     1       3.189   1.742  18.451  0.00  0.00    +0.000 C 
ATOM     10  C   UNL     1       2.839   2.645  20.785  0.00  0.00    +0.000 C 
ENDBRANCH   3   7
BRANCH   5  11
ATOM     11  C   UNL     1       6.929   5.709  18.016  0.00  0.00    +0.000 C 
ATOM     12  C   UNL     1       7.405   4.559  17.095  0.00  0.00    +0.000 C 
ATOM     13  C   UNL     1       7.341   7.023  17.295  0.00  0.00    +0.000 C 
ATOM     14  C   UNL     1       7.730   5.678  19.334  0.00  0.00    +0.000 C 
ENDBRANCH   5  11
BRANCH   1  16
ATOM     15  N   UNL     1       2.839   8.910  17.626  0.00  0.00    +0.000 NA
ATOM     16  C   UNL     1       2.325   7.762  17.925  0.00  0.00    +0.000 C 
BRANCH  15  17
ATOM     17  O   UNL     1       1.819   9.844  17.419  0.00  0.00    +0.000 OA
BRANCH  17  18
ATOM     18  C   UNL     1       1.032   9.906  18.606  0.00  0.00    +0.000 C 
BRANCH  18  20
ATOM     19  N   UNL     1      -1.290  10.019  17.854  0.00  0.00    +0.000 N 
ATOM     20  C   UNL     1      -0.235  10.727  18.390  0.00  0.00    +0.000 C 
ATOM     21  O   UNL     1      -0.277  11.923  18.668  0.00  0.00    +0.000 OA
ATOM     22  H   UNL     1      -1.119   9.037  17.684  0.00  0.00    +0.000 HD
BRANCH  19  24
ATOM     23  C   UNL     1      -3.695   9.476  17.677  0.00  0.00    +0.000 C 
ATOM     24  C   UNL     1      -2.618  10.565  17.556  0.00  0.00    +0.000 C 
ATOM     25  C   UNL     1      -2.644  11.191  16.154  0.00  0.00    +0.000 C 
ATOM     26  C   UNL     1      -2.929  11.668  18.585  0.00  0.00    +0.000 C 
ENDBRANCH  19  24
ENDBRANCH  18  20
ENDBRANCH  17  18
ENDBRANCH  15  17
ENDBRANCH   1  16
BRANCH   4  27
ATOM     27  O   UNL     1       5.615   3.420  19.192  0.00  0.00    +0.000 OA
ATOM     28  H   UNL     1       6.094   3.081  18.422  0.00  0.00    +0.000 HD
ENDBRANCH   4  27
TORSDOF 8
ENDMDL
