MODEL 1
REMARK VINA RESULT:      -8.1      0.000      0.000
REMARK  Name = 
REMARK  4 active torsions:
REMARK  status: ('A' for Active; 'I' for Inactive)
REMARK    1  A    between atoms: C_1  and  N_2
REMARK    2  A    between atoms: C_4  and  C_5
REMARK    3  A    between atoms: C_8  and  C_9
REMARK    4  A    between atoms: C_9  and  N_10
REMARK                            x       y       z     vdW  Elec       q    Type
REMARK                         _______ _______ _______ _____ _____    ______ ____
ROOT
ATOM      1  C   UNL     1       3.248   4.177  18.249  0.00  0.00    +0.000 C 
ENDROOT
BRANCH   1   2
ATOM      2  N   UNL     1       4.691   4.428  18.041  0.00  0.00    +0.000 N 
ATOM      3  C   UNL     1       5.450   4.544  19.203  0.00  0.00    +0.000 C 
ATOM      4  O   UNL     1       5.070   4.067  20.278  0.00  0.00    +0.000 OA
ATOM      5  C   UNL     1       6.616   5.462  19.209  0.00  0.00    +0.000 C 
ATOM      6  S   UNL     1       7.638   5.267  17.826  0.00  0.00    +0.000 S 
ATOM      7  O   UNL     1       8.237   6.562  17.554  0.00  0.00    +0.000 OA
ATOM      8  O   UNL     1       8.467   4.092  18.019  0.00  0.00    +0.000 OA
ATOM      9  C   UNL     1       6.572   4.912  16.492  0.00  0.00    +0.000 A 
ATOM     10  C   UNL     1       7.129   5.009  15.203  0.00  0.00    +0.000 A 
ATOM     11  C   UNL     1       6.366   4.676  14.094  0.00  0.00    +0.000 A 
ATOM     12  C   UNL     1       5.060   4.249  14.282  0.00  0.00    +0.000 A 
ATOM     13  C   UNL     1       4.512   4.188  15.573  0.00  0.00    +0.000 A 
ATOM     14  C   UNL     1       5.247   4.537  16.720  0.00  0.00    +0.000 A 
ENDBRANCH   1   2
BRANCH   1  18
ATOM     15  C   UNL     1       1.446   7.491  20.435  0.00  0.00    +0.000 A 
ATOM     16  C   UNL     1       1.316   6.177  20.904  0.00  0.00    +0.000 A 
ATOM     17  C   UNL     1       1.887   5.103  20.199  0.00  0.00    +0.000 A 
ATOM     18  C   UNL     1       2.576   5.319  18.992  0.00  0.00    +0.000 A 
ATOM     19  C   UNL     1       2.648   6.629  18.516  0.00  0.00    +0.000 A 
ATOM     20  F   UNL     1       3.231   6.884  17.338  0.00  0.00    +0.000 F 
ATOM     21  C   UNL     1       2.112   7.704  19.226  0.00  0.00    +0.000 A 
BRANCH  15  25
ATOM     22  C   UNL     1      -0.916  11.692  21.664  0.00  0.00    +0.000 C 
ATOM     23  N   UNL     1      -0.124  10.483  21.701  0.00  0.00    +0.000 N 
ATOM     24  C   UNL     1       0.054   9.578  20.694  0.00  0.00    +0.000 A 
ATOM     25  C   UNL     1       0.927   8.628  21.176  0.00  0.00    +0.000 A 
ATOM     26  C   UNL     1       1.199   9.058  22.498  0.00  0.00    +0.000 A 
ATOM     27  N   UNL     1       0.559  10.182  22.818  0.00  0.00    +0.000 NA
ENDBRANCH  15  25
ENDBRANCH   1  18
TORSDOF 3
ENDMDL
MODEL 2
REMARK VINA RESULT:      -7.8      3.028      4.102
REMARK  Name = 
REMARK  4 active torsions:
REMARK  status: ('A' for Active; 'I' for Inactive)
REMARK    1  A    between atoms: C_1  and  N_2
REMARK    2  A    between atoms: C_4  and  C_5
REMARK    3  A    between atoms: C_8  and  C_9
REMARK    4  A    between atoms: C_9  and  N_10
REMARK                            x       y       z     vdW  Elec       q    Type
REMARK                         _______ _______ _______ _____ _____    ______ ____
ROOT
ATOM      1  C   UNL     1       3.279   6.734  19.951  0.00  0.00    +0.000 C 
ENDROOT
BRANCH   1   2
ATOM      2  N   UNL     1       3.158   5.477  19.181  0.00  0.00    +0.000 N 
ATOM      3  C   UNL     1       2.240   4.556  19.683  0.00  0.00    +0.000 C 
ATOM      4  O   UNL     1       1.314   4.900  20.425  0.00  0.00    +0.000 OA
ATOM      5  C   UNL     1       2.518   3.107  19.522  0.00  0.00    +0.000 C 
ATOM      6  S   UNL     1       2.996   2.684  17.913  0.00  0.00    +0.000 S 
ATOM      7  O   UNL     1       3.885   1.541  18.021  0.00  0.00    +0.000 OA
ATOM      8  O   UNL     1       1.813   2.626  17.075  0.00  0.00    +0.000 OA
ATOM      9  C   UNL     1       3.955   4.020  17.333  0.00  0.00    +0.000 A 
ATOM     10  C   UNL     1       4.709   3.789  16.167  0.00  0.00    +0.000 A 
ATOM     11  C   UNL     1       5.443   4.822  15.604  0.00  0.00    +0.000 A 
ATOM     12  C   UNL     1       5.415   6.070  16.207  0.00  0.00    +0.000 A 
ATOM     13  C   UNL     1       4.682   6.274  17.386  0.00  0.00    +0.000 A 
ATOM     14  C   UNL     1       3.942   5.247  17.999  0.00  0.00    +0.000 A 
ENDBRANCH   1   2
BRANCH   1  18
ATOM     15  C   UNL     1       0.186   9.567  18.759  0.00  0.00    +0.000 A 
ATOM     16  C   UNL     1       1.078   9.050  17.810  0.00  0.00    +0.000 A 
ATOM     17  C   UNL     1       2.084   8.143  18.190  0.00  0.00    +0.000 A 
ATOM     18  C   UNL     1       2.236   7.757  19.533  0.00  0.00    +0.000 A 
ATOM     19  C   UNL     1       1.369   8.324  20.469  0.00  0.00    +0.000 A 
ATOM     20  F   UNL     1       1.513   8.046  21.771  0.00  0.00    +0.000 F 
ATOM     21  C   UNL     1       0.349   9.199  20.096  0.00  0.00    +0.000 A 
BRANCH  15  25
ATOM     22  C   UNL     1      -3.976  11.400  16.746  0.00  0.00    +0.000 C 
ATOM     23  N   UNL     1      -2.748  11.243  17.491  0.00  0.00    +0.000 N 
ATOM     24  C   UNL     1      -2.013  10.102  17.647  0.00  0.00    +0.000 A 
ATOM     25  C   UNL     1      -0.905  10.451  18.387  0.00  0.00    +0.000 A 
ATOM     26  C   UNL     1      -1.086  11.834  18.636  0.00  0.00    +0.000 A 
ATOM     27  N   UNL     1      -2.206  12.314  18.094  0.00  0.00    +0.000 NA
ENDBRANCH  15  25
ENDBRANCH   1  18
TORSDOF 3
ENDMDL
MODEL 3
REMARK VINA RESULT:      -7.7      0.926      1.307
REMARK  Name = 
REMARK  4 active torsions:
REMARK  status: ('A' for Active; 'I' for Inactive)
REMARK    1  A    between atoms: C_1  and  N_2
REMARK    2  A    between atoms: C_4  and  C_5
REMARK    3  A    between atoms: C_8  and  C_9
REMARK    4  A    between atoms: C_9  and  N_10
REMARK                            x       y       z     vdW  Elec       q    Type
REMARK                         _______ _______ _______ _____ _____    ______ ____
ROOT
ATOM      1  C   UNL     1       3.220   4.421  18.323  0.00  0.00    +0.000 C 
ENDROOT
BRANCH   1   2
ATOM      2  N   UNL     1       4.667   4.589  18.065  0.00  0.00    +0.000 N 
ATOM      3  C   UNL     1       5.466   4.696  19.201  0.00  0.00    +0.000 C 
ATOM      4  O   UNL     1       5.096   4.270  20.301  0.00  0.00    +0.000 OA
ATOM      5  C   UNL     1       6.679   5.551  19.145  0.00  0.00    +0.000 C 
ATOM      6  S   UNL     1       7.645   5.264  17.739  0.00  0.00    +0.000 S 
ATOM      7  O   UNL     1       8.302   6.518  17.413  0.00  0.00    +0.000 OA
ATOM      8  O   UNL     1       8.417   4.053  17.942  0.00  0.00    +0.000 OA
ATOM      9  C   UNL     1       6.521   4.930  16.448  0.00  0.00    +0.000 A 
ATOM     10  C   UNL     1       7.043   4.962  15.141  0.00  0.00    +0.000 A 
ATOM     11  C   UNL     1       6.229   4.639  14.066  0.00  0.00    +0.000 A 
ATOM     12  C   UNL     1       4.910   4.288  14.304  0.00  0.00    +0.000 A 
ATOM     13  C   UNL     1       4.399   4.291  15.612  0.00  0.00    +0.000 A 
ATOM     14  C   UNL     1       5.187   4.632  16.726  0.00  0.00    +0.000 A 
ENDBRANCH   1   2
BRANCH   1  18
ATOM     15  C   UNL     1       1.421   7.769  20.459  0.00  0.00    +0.000 A 
ATOM     16  C   UNL     1       2.090   7.978  19.246  0.00  0.00    +0.000 A 
ATOM     17  C   UNL     1       2.680   6.904  18.557  0.00  0.00    +0.000 A 
ATOM     18  C   UNL     1       2.639   5.601  19.083  0.00  0.00    +0.000 A 
ATOM     19  C   UNL     1       2.013   5.424  20.318  0.00  0.00    +0.000 A 
ATOM     20  F   UNL     1       2.005   4.218  20.900  0.00  0.00    +0.000 F 
ATOM     21  C   UNL     1       1.397   6.479  20.992  0.00  0.00    +0.000 A 
BRANCH  15  25
ATOM     22  C   UNL     1      -1.322  11.788  21.489  0.00  0.00    +0.000 C 
ATOM     23  N   UNL     1      -0.474  10.622  21.596  0.00  0.00    +0.000 N 
ATOM     24  C   UNL     1      -0.111   9.768  20.594  0.00  0.00    +0.000 A 
ATOM     25  C   UNL     1       0.743   8.846  21.159  0.00  0.00    +0.000 A 
ATOM     26  C   UNL     1       0.809   9.236  22.520  0.00  0.00    +0.000 A 
ATOM     27  N   UNL     1       0.068  10.312  22.786  0.00  0.00    +0.000 NA
ENDBRANCH  15  25
ENDBRANCH   1  18
TORSDOF 3
ENDMDL
MODEL 4
REMARK VINA RESULT:      -7.6      2.475      3.170
REMARK  Name = 
REMARK  4 active torsions:
REMARK  status: ('A' for Active; 'I' for Inactive)
REMARK    1  A    between atoms: C_1  and  N_2
REMARK    2  A    between atoms: C_4  and  C_5
REMARK    3  A    between atoms: C_8  and  C_9
REMARK    4  A    between atoms: C_9  and  N_10
REMARK                            x       y       z     vdW  Elec       q    Type
REMARK                         _______ _______ _______ _____ _____    ______ ____
ROOT
ATOM      1  C   UNL     1       3.005   7.382  17.407  0.00  0.00    +0.000 C 
ENDROOT
BRANCH   1   2
ATOM      2  N   UNL     1       3.516   6.045  17.780  0.00  0.00    +0.000 N 
ATOM      3  C   UNL     1       2.544   5.064  17.960  0.00  0.00    +0.000 C 
ATOM      4  O   UNL     1       1.420   5.159  17.452  0.00  0.00    +0.000 OA
ATOM      5  C   UNL     1       2.774   4.004  18.974  0.00  0.00    +0.000 C 
ATOM      6  S   UNL     1       4.349   3.296  18.867  0.00  0.00    +0.000 S 
ATOM      7  O   UNL     1       4.719   2.879  20.208  0.00  0.00    +0.000 OA
ATOM      8  O   UNL     1       4.362   2.350  17.767  0.00  0.00    +0.000 OA
ATOM      9  C   UNL     1       5.426   4.593  18.423  0.00  0.00    +0.000 A 
ATOM     10  C   UNL     1       6.803   4.339  18.568  0.00  0.00    +0.000 A 
ATOM     11  C   UNL     1       7.726   5.295  18.171  0.00  0.00    +0.000 A 
ATOM     12  C   UNL     1       7.268   6.488  17.635  0.00  0.00    +0.000 A 
ATOM     13  C   UNL     1       5.890   6.736  17.527  0.00  0.00    +0.000 A 
ATOM     14  C   UNL     1       4.923   5.800  17.937  0.00  0.00    +0.000 A 
ENDBRANCH   1   2
BRANCH   1  18
ATOM     15  C   UNL     1       0.728   9.261  20.617  0.00  0.00    +0.000 A 
ATOM     16  C   UNL     1       1.429   8.069  20.847  0.00  0.00    +0.000 A 
ATOM     17  C   UNL     1       2.157   7.453  19.814  0.00  0.00    +0.000 A 
ATOM     18  C   UNL     1       2.176   8.002  18.520  0.00  0.00    +0.000 A 
ATOM     19  C   UNL     1       1.429   9.161  18.300  0.00  0.00    +0.000 A 
ATOM     20  F   UNL     1       1.354   9.688  17.071  0.00  0.00    +0.000 F 
ATOM     21  C   UNL     1       0.730   9.795  19.327  0.00  0.00    +0.000 A 
BRANCH  15  25
ATOM     22  C   UNL     1      -1.783  12.676  23.218  0.00  0.00    +0.000 C 
ATOM     23  N   UNL     1      -1.087  11.476  22.813  0.00  0.00    +0.000 N 
ATOM     24  C   UNL     1      -0.607  11.176  21.569  0.00  0.00    +0.000 A 
ATOM     25  C   UNL     1       0.024   9.956  21.680  0.00  0.00    +0.000 A 
ATOM     26  C   UNL     1      -0.152   9.606  23.041  0.00  0.00    +0.000 A 
ATOM     27  N   UNL     1      -0.829  10.526  23.728  0.00  0.00    +0.000 NA
ENDBRANCH  15  25
ENDBRANCH   1  18
TORSDOF 3
ENDMDL
MODEL 5
REMARK VINA RESULT:      -7.4      5.058      8.892
REMARK  Name = 
REMARK  4 active torsions:
REMARK  status: ('A' for Active; 'I' for Inactive)
REMARK    1  A    between atoms: C_1  and  N_2
REMARK    2  A    between atoms: C_4  and  C_5
REMARK    3  A    between atoms: C_8  and  C_9
REMARK    4  A    between atoms: C_9  and  N_10
REMARK                            x       y       z     vdW  Elec       q    Type
REMARK                         _______ _______ _______ _____ _____    ______ ____
ROOT
ATOM      1  C   UNL     1       1.099  11.048  18.709  0.00  0.00    +0.000 C 
ENDROOT
BRANCH   1   2
ATOM      2  N   UNL     1       0.076  11.655  19.589  0.00  0.00    +0.000 N 
ATOM      3  C   UNL     1       0.560  12.211  20.771  0.00  0.00    +0.000 C 
ATOM      4  O   UNL     1       1.741  12.556  20.891  0.00  0.00    +0.000 OA
ATOM      5  C   UNL     1      -0.292  12.166  21.986  0.00  0.00    +0.000 C 
ATOM      6  S   UNL     1      -1.919  12.673  21.690  0.00  0.00    +0.000 S 
ATOM      7  O   UNL     1      -2.766  11.949  22.622  0.00  0.00    +0.000 OA
ATOM      8  O   UNL     1      -1.953  14.122  21.629  0.00  0.00    +0.000 OA
ATOM      9  C   UNL     1      -2.316  12.096  20.092  0.00  0.00    +0.000 A 
ATOM     10  C   UNL     1      -3.678  12.118  19.740  0.00  0.00    +0.000 A 
ATOM     11  C   UNL     1      -4.067  11.741  18.464  0.00  0.00    +0.000 A 
ATOM     12  C   UNL     1      -3.096  11.350  17.555  0.00  0.00    +0.000 A 
ATOM     13  C   UNL     1      -1.745  11.306  17.934  0.00  0.00    +0.000 A 
ATOM     14  C   UNL     1      -1.314  11.661  19.224  0.00  0.00    +0.000 A 
ENDBRANCH   1   2
BRANCH   1  18
ATOM     15  C   UNL     1       1.972   6.932  19.853  0.00  0.00    +0.000 A 
ATOM     16  C   UNL     1       1.368   7.809  20.765  0.00  0.00    +0.000 A 
ATOM     17  C   UNL     1       1.093   9.140  20.405  0.00  0.00    +0.000 A 
ATOM     18  C   UNL     1       1.442   9.630  19.134  0.00  0.00    +0.000 A 
ATOM     19  C   UNL     1       2.090   8.754  18.261  0.00  0.00    +0.000 A 
ATOM     20  F   UNL     1       2.509   9.186  17.065  0.00  0.00    +0.000 F 
ATOM     21  C   UNL     1       2.338   7.423  18.599  0.00  0.00    +0.000 A 
BRANCH  15  25
ATOM     22  C   UNL     1       3.955   2.377  20.101  0.00  0.00    +0.000 C 
ATOM     23  N   UNL     1       3.098   3.529  20.271  0.00  0.00    +0.000 N 
ATOM     24  C   UNL     1       3.317   4.799  19.818  0.00  0.00    +0.000 A 
ATOM     25  C   UNL     1       2.207   5.534  20.171  0.00  0.00    +0.000 A 
ATOM     26  C   UNL     1       1.385   4.601  20.851  0.00  0.00    +0.000 A 
ATOM     27  N   UNL     1       1.927   3.385  20.915  0.00  0.00    +0.000 NA
ENDBRANCH  15  25
ENDBRANCH   1  18
TORSDOF 3
ENDMDL
MODEL 6
REMARK VINA RESULT:      -7.4      5.353      9.333
REMARK  Name = 
REMARK  4 active torsions:
REMARK  status: ('A' for Active; 'I' for Inactive)
REMARK    1  A    between atoms: C_1  and  N_2
REMARK    2  A    between atoms: C_4  and  C_5
REMARK    3  A    between atoms: C_8  and  C_9
REMARK    4  A    between atoms: C_9  and  N_10
REMARK                            x       y       z     vdW  Elec       q    Type
REMARK                         _______ _______ _______ _____ _____    ______ ____
ROOT
ATOM      1  C   UNL     1       0.653  11.807  19.254  0.00  0.00    +0.000 C 
ENDROOT
BRANCH   1   2
ATOM      2  N   UNL     1      -0.435  12.229  20.161  0.00  0.00    +0.000 N 
ATOM      3  C   UNL     1      -0.023  12.743  21.389  0.00  0.00    +0.000 C 
ATOM      4  O   UNL     1       1.111  13.206  21.552  0.00  0.00    +0.000 OA
ATOM      5  C   UNL     1      -0.873  12.511  22.584  0.00  0.00    +0.000 C 
ATOM      6  S   UNL     1      -2.544  12.858  22.304  0.00  0.00    +0.000 S 
ATOM      7  O   UNL     1      -3.311  11.976  23.166  0.00  0.00    +0.000 OA
ATOM      8  O   UNL     1      -2.738  14.295  22.352  0.00  0.00    +0.000 OA
ATOM      9  C   UNL     1      -2.865  12.365  20.662  0.00  0.00    +0.000 A 
ATOM     10  C   UNL     1      -4.219  12.264  20.292  0.00  0.00    +0.000 A 
ATOM     11  C   UNL     1      -4.556  11.945  18.985  0.00  0.00    +0.000 A 
ATOM     12  C   UNL     1      -3.542  11.734  18.064  0.00  0.00    +0.000 A 
ATOM     13  C   UNL     1      -2.197  11.810  18.458  0.00  0.00    +0.000 A 
ATOM     14  C   UNL     1      -1.815  12.110  19.778  0.00  0.00    +0.000 A 
ENDBRANCH   1   2
BRANCH   1  18
ATOM     15  C   UNL     1       1.810   7.661  19.950  0.00  0.00    +0.000 A 
ATOM     16  C   UNL     1       1.167   8.397  20.955  0.00  0.00    +0.000 A 
ATOM     17  C   UNL     1       0.801   9.737  20.740  0.00  0.00    +0.000 A 
ATOM     18  C   UNL     1       1.095  10.378  19.524  0.00  0.00    +0.000 A 
ATOM     19  C   UNL     1       1.782   9.642  18.557  0.00  0.00    +0.000 A 
ATOM     20  F   UNL     1       2.150  10.223  17.408  0.00  0.00    +0.000 F 
ATOM     21  C   UNL     1       2.120   8.303  18.750  0.00  0.00    +0.000 A 
BRANCH  15  25
ATOM     22  C   UNL     1       1.845   2.935  21.498  0.00  0.00    +0.000 C 
ATOM     23  N   UNL     1       2.139   4.172  20.812  0.00  0.00    +0.000 N 
ATOM     24  C   UNL     1       1.462   5.354  20.908  0.00  0.00    +0.000 A 
ATOM     25  C   UNL     1       2.139   6.256  20.118  0.00  0.00    +0.000 A 
ATOM     26  C   UNL     1       3.207   5.497  19.578  0.00  0.00    +0.000 A 
ATOM     27  N   UNL     1       3.205   4.232  19.996  0.00  0.00    +0.000 NA
ENDBRANCH  15  25
ENDBRANCH   1  18
TORSDOF 3
ENDMDL
MODEL 7
REMARK VINA RESULT:      -7.3      2.835      4.726
REMARK  Name = 
REMARK  4 active torsions:
REMARK  status: ('A' for Active; 'I' for Inactive)
REMARK    1  A    between atoms: C_1  and  N_2
REMARK    2  A    between atoms: C_4  and  C_5
REMARK    3  A    between atoms: C_8  and  C_9
REMARK    4  A    between atoms: C_9  and  N_10
REMARK                            x       y       z     vdW  Elec       q    Type
REMARK                         _______ _______ _______ _____ _____    ______ ____
ROOT
ATOM      1  C   UNL     1       4.054   6.491  19.344  0.00  0.00    +0.000 C 
ENDROOT
BRANCH   1   2
ATOM      2  N   UNL     1       3.745   5.106  18.928  0.00  0.00    +0.000 N 
ATOM      3  C   UNL     1       4.281   4.717  17.702  0.00  0.00    +0.000 C 
ATOM      4  O   UNL     1       5.258   5.291  17.208  0.00  0.00    +0.000 OA
ATOM      5  C   UNL     1       3.521   3.759  16.859  0.00  0.00    +0.000 C 
ATOM      6  S   UNL     1       2.951   2.386  17.743  0.00  0.00    +0.000 S 
ATOM      7  O   UNL     1       1.720   1.952  17.106  0.00  0.00    +0.000 OA
ATOM      8  O   UNL     1       4.053   1.461  17.932  0.00  0.00    +0.000 OA
ATOM      9  C   UNL     1       2.521   2.981  19.324  0.00  0.00    +0.000 A 
ATOM     10  C   UNL     1       1.750   2.120  20.128  0.00  0.00    +0.000 A 
ATOM     11  C   UNL     1       1.426   2.491  21.424  0.00  0.00    +0.000 A 
ATOM     12  C   UNL     1       1.874   3.713  21.904  0.00  0.00    +0.000 A 
ATOM     13  C   UNL     1       2.616   4.571  21.077  0.00  0.00    +0.000 A 
ATOM     14  C   UNL     1       2.947   4.239  19.751  0.00  0.00    +0.000 A 
ENDBRANCH   1   2
BRANCH   1  18
ATOM     15  C   UNL     1       0.768   9.286  18.710  0.00  0.00    +0.000 A 
ATOM     16  C   UNL     1       0.934   8.656  19.951  0.00  0.00    +0.000 A 
ATOM     17  C   UNL     1       1.986   7.746  20.159  0.00  0.00    +0.000 A 
ATOM     18  C   UNL     1       2.878   7.426  19.119  0.00  0.00    +0.000 A 
ATOM     19  C   UNL     1       2.662   8.026  17.878  0.00  0.00    +0.000 A 
ATOM     20  F   UNL     1       3.436   7.705  16.834  0.00  0.00    +0.000 F 
ATOM     21  C   UNL     1       1.640   8.953  17.673  0.00  0.00    +0.000 A 
BRANCH  15  25
ATOM     22  C   UNL     1      -3.436  11.545  17.311  0.00  0.00    +0.000 C 
ATOM     23  N   UNL     1      -2.131  11.261  17.862  0.00  0.00    +0.000 N 
ATOM     24  C   UNL     1      -1.508  10.048  17.935  0.00  0.00    +0.000 A 
ATOM     25  C   UNL     1      -0.267  10.281  18.486  0.00  0.00    +0.000 A 
ATOM     26  C   UNL     1      -0.257  11.678  18.721  0.00  0.00    +0.000 A 
ATOM     27  N   UNL     1      -1.389  12.273  18.345  0.00  0.00    +0.000 NA
ENDBRANCH  15  25
ENDBRANCH   1  18
TORSDOF 3
ENDMDL
MODEL 8
REMARK VINA RESULT:      -7.1      4.770      9.027
REMARK  Name = 
REMARK  4 active torsions:
REMARK  status: ('A' for Active; 'I' for Inactive)
REMARK    1  A    between atoms: C_1  and  N_2
REMARK    2  A    between atoms: C_4  and  C_5
REMARK    3  A    between atoms: C_8  and  C_9
REMARK    4  A    between atoms: C_9  and  N_10
REMARK                            x       y       z     vdW  Elec       q    Type
REMARK                         _______ _______ _______ _____ _____    ______ ____
ROOT
ATOM      1  C   UNL     1       0.047  11.381  18.799  0.00  0.00    +0.000 C 
ENDROOT
BRANCH   1   2
ATOM      2  N   UNL     1       0.581  12.506  19.597  0.00  0.00    +0.000 N 
ATOM      3  C   UNL     1       1.759  13.073  19.114  0.00  0.00    +0.000 C 
ATOM      4  O   UNL     1       2.100  12.957  17.931  0.00  0.00    +0.000 OA
ATOM      5  C   UNL     1       2.742  13.618  20.084  0.00  0.00    +0.000 C 
ATOM      6  S   UNL     1       2.018  14.634  21.282  0.00  0.00    +0.000 S 
ATOM      7  O   UNL     1       2.819  14.507  22.487  0.00  0.00    +0.000 OA
ATOM      8  O   UNL     1       1.761  15.937  20.697  0.00  0.00    +0.000 OA
ATOM      9  C   UNL     1       0.463  13.927  21.631  0.00  0.00    +0.000 A 
ATOM     10  C   UNL     1      -0.191  14.393  22.787  0.00  0.00    +0.000 A 
ATOM     11  C   UNL     1      -1.462  13.931  23.095  0.00  0.00    +0.000 A 
ATOM     12  C   UNL     1      -2.065  13.014  22.248  0.00  0.00    +0.000 A 
ATOM     13  C   UNL     1      -1.385  12.537  21.116  0.00  0.00    +0.000 A 
ATOM     14  C   UNL     1      -0.088  12.966  20.782  0.00  0.00    +0.000 A 
ENDBRANCH   1   2
BRANCH   1  18
ATOM     15  C   UNL     1       1.890   7.540  19.723  0.00  0.00    +0.000 A 
ATOM     16  C   UNL     1       1.058   8.170  20.658  0.00  0.00    +0.000 A 
ATOM     17  C   UNL     1       0.468   9.414  20.370  0.00  0.00    +0.000 A 
ATOM     18  C   UNL     1       0.722  10.066  19.150  0.00  0.00    +0.000 A 
ATOM     19  C   UNL     1       1.595   9.444  18.256  0.00  0.00    +0.000 A 
ATOM     20  F   UNL     1       1.928  10.052  17.110  0.00  0.00    +0.000 F 
ATOM     21  C   UNL     1       2.158   8.196  18.521  0.00  0.00    +0.000 A 
BRANCH  15  25
ATOM     22  C   UNL     1       4.705   3.449  19.439  0.00  0.00    +0.000 C 
ATOM     23  N   UNL     1       3.712   4.426  19.826  0.00  0.00    +0.000 N 
ATOM     24  C   UNL     1       3.566   5.695  19.340  0.00  0.00    +0.000 A 
ATOM     25  C   UNL     1       2.458   6.224  19.964  0.00  0.00    +0.000 A 
ATOM     26  C   UNL     1       2.024   5.184  20.822  0.00  0.00    +0.000 A 
ATOM     27  N   UNL     1       2.786   4.094  20.741  0.00  0.00    +0.000 NA
ENDBRANCH  15  25
ENDBRANCH   1  18
TORSDOF 3
ENDMDL
MODEL 9
REMARK VINA RESULT:      -7.1      3.249      4.525
REMARK  Name = 
REMARK  4 active torsions:
REMARK  status: ('A' for Active; 'I' for Inactive)
REMARK    1  A    between atoms: C_1  and  N_2
REMARK    2  A    between atoms: C_4  and  C_5
REMARK    3  A    between atoms: C_8  and  C_9
REMARK    4  A    between atoms: C_9  and  N_10
REMARK                            x       y       z     vdW  Elec       q    Type
REMARK                         _______ _______ _______ _____ _____    ______ ____
ROOT
ATOM      1  C   UNL     1       2.852   7.722  19.767  0.00  0.00    +0.000 C 
ENDROOT
BRANCH   1   2
ATOM      2  N   UNL     1       2.837   6.346  19.226  0.00  0.00    +0.000 N 
ATOM      3  C   UNL     1       1.972   5.462  19.867  0.00  0.00    +0.000 C 
ATOM      4  O   UNL     1       1.005   5.861  20.527  0.00  0.00    +0.000 OA
ATOM      5  C   UNL     1       2.353   4.030  19.964  0.00  0.00    +0.000 C 
ATOM      6  S   UNL     1       2.898   3.372  18.459  0.00  0.00    +0.000 S 
ATOM      7  O   UNL     1       3.861   2.332  18.775  0.00  0.00    +0.000 OA
ATOM      8  O   UNL     1       1.744   3.086  17.628  0.00  0.00    +0.000 OA
ATOM      9  C   UNL     1       3.778   4.654  17.669  0.00  0.00    +0.000 A 
ATOM     10  C   UNL     1       4.575   4.281  16.571  0.00  0.00    +0.000 A 
ATOM     11  C   UNL     1       5.251   5.251  15.847  0.00  0.00    +0.000 A 
ATOM     12  C   UNL     1       5.123   6.579  16.224  0.00  0.00    +0.000 A 
ATOM     13  C   UNL     1       4.347   6.930  17.340  0.00  0.00    +0.000 A 
ATOM     14  C   UNL     1       3.664   5.973  18.111  0.00  0.00    +0.000 A 
ENDBRANCH   1   2
BRANCH   1  18
ATOM     15  C   UNL     1      -0.647   9.943  18.413  0.00  0.00    +0.000 A 
ATOM     16  C   UNL     1       0.233   9.371  17.484  0.00  0.00    +0.000 A 
ATOM     17  C   UNL     1       1.369   8.661  17.915  0.00  0.00    +0.000 A 
ATOM     18  C   UNL     1       1.662   8.534  19.284  0.00  0.00    +0.000 A 
ATOM     19  C   UNL     1       0.800   9.157  20.189  0.00  0.00    +0.000 A 
ATOM     20  F   UNL     1       1.069   9.128  21.500  0.00  0.00    +0.000 F 
ATOM     21  C   UNL     1      -0.345   9.835  19.771  0.00  0.00    +0.000 A 
BRANCH  15  25
ATOM     22  C   UNL     1      -5.012  12.326  18.456  0.00  0.00    +0.000 C 
ATOM     23  N   UNL     1      -3.791  11.676  18.039  0.00  0.00    +0.000 N 
ATOM     24  C   UNL     1      -2.788  11.206  18.839  0.00  0.00    +0.000 A 
ATOM     25  C   UNL     1      -1.863  10.622  18.001  0.00  0.00    +0.000 A 
ATOM     26  C   UNL     1      -2.410  10.815  16.708  0.00  0.00    +0.000 A 
ATOM     27  N   UNL     1      -3.578  11.458  16.731  0.00  0.00    +0.000 NA
ENDBRANCH  15  25
ENDBRANCH   1  18
TORSDOF 3
ENDMDL
