MODEL 1
REMARK VINA RESULT:      -8.7      0.000      0.000
REMARK  Name = 
REMARK  8 active torsions:
REMARK  status: ('A' for Active; 'I' for Inactive)
REMARK    1  A    between atoms: C_1  and  O_2
REMARK    2  A    between atoms: O_2  and  C_3
REMARK    3  A    between atoms: C_7  and  N_8
REMARK    4  A    between atoms: N_11  and  C_12
REMARK    5  A    between atoms: C_12  and  C_13
REMARK    6  A    between atoms: C_13  and  C_14
REMARK    7  A    between atoms: C_14  and  C_15
REMARK    8  A    between atoms: C_15  and  C_16
REMARK                            x       y       z     vdW  Elec       q    Type
REMARK                         _______ _______ _______ _____ _____    ______ ____
ROOT
ATOM      1  C   UNL     1       8.665   8.644  18.321  0.00  0.00    +0.000 C 
ENDROOT
BRANCH   1   2
ATOM      2  C   UNL     1       7.542   8.130  17.377  0.00  0.00    +0.000 C 
BRANCH   2   6
ATOM      3  N   UNL     1       5.012   5.219  17.902  0.00  0.00    +0.000 N 
ATOM      4  C   UNL     1       6.055   5.576  18.881  0.00  0.00    +0.000 C 
ATOM      5  C   UNL     1       7.428   5.746  18.161  0.00  0.00    +0.000 C 
ATOM      6  N   UNL     1       7.490   6.697  17.018  0.00  0.00    +0.000 NA
ATOM      7  C   UNL     1       6.319   6.399  16.134  0.00  0.00    +0.000 C 
ATOM      8  C   UNL     1       4.921   6.203  16.805  0.00  0.00    +0.000 C 
BRANCH   3  13
ATOM      9  C   UNL     1       2.389   3.994  20.248  0.00  0.00    +0.000 A 
ATOM     10  C   UNL     1       1.347   3.695  19.371  0.00  0.00    +0.000 A 
ATOM     11  C   UNL     1       1.526   3.846  17.999  0.00  0.00    +0.000 A 
ATOM     12  C   UNL     1       2.748   4.317  17.501  0.00  0.00    +0.000 A 
ATOM     13  C   UNL     1       3.819   4.641  18.351  0.00  0.00    +0.000 A 
ATOM     14  C   UNL     1       3.616   4.445  19.733  0.00  0.00    +0.000 A 
BRANCH   9  16
ATOM     15  C   UNL     1       1.540   2.569  21.951  0.00  0.00    +0.000 C 
ATOM     16  O   UNL     1       2.072   3.830  21.570  0.00  0.00    +0.000 OA
ENDBRANCH   9  16
ENDBRANCH   3  13
ENDBRANCH   2   6
ENDBRANCH   1   2
BRANCH   1  17
ATOM     17  C   UNL     1       8.760  10.133  18.778  0.00  0.00    +0.000 C 
BRANCH  17  18
ATOM     18  C   UNL     1       9.330  10.632  20.171  0.00  0.00    +0.000 C 
BRANCH  18  19
ATOM     19  C   UNL     1       9.988  12.074  20.344  0.00  0.00    +0.000 C 
ATOM     20  C   UNL     1      11.521  12.008  20.515  0.00  0.00    +0.000 C 
ATOM     21  C   UNL     1      12.234  11.817  19.153  0.00  0.00    +0.000 C 
ATOM     22  C   UNL     1      12.084  13.062  18.289  0.00  0.00    +0.000 C 
ATOM     23  C   UNL     1      10.636  13.477  18.176  0.00  0.00    +0.000 A 
ATOM     24  C   UNL     1      10.367  14.589  17.348  0.00  0.00    +0.000 A 
ATOM     25  C   UNL     1       9.448  15.548  17.772  0.00  0.00    +0.000 A 
ATOM     26  C   UNL     1       8.795  15.378  18.995  0.00  0.00    +0.000 A 
ATOM     27  C   UNL     1       8.960  14.173  19.678  0.00  0.00    +0.000 A 
ATOM     28  C   UNL     1       9.775  13.141  19.228  0.00  0.00    +0.000 A 
ATOM     29  N   UNL     1       8.616  13.937  20.997  0.00  0.00    +0.000 N 
ATOM     30  C   UNL     1       9.230  12.785  21.491  0.00  0.00    +0.000 C 
ATOM     31  O   UNL     1       9.171  12.433  22.656  0.00  0.00    +0.000 OA
ATOM     32  H   UNL     1       8.165  14.606  21.603  0.00  0.00    +0.000 HD
ENDBRANCH  18  19
ENDBRANCH  17  18
ENDBRANCH   1  17
TORSDOF 7
ENDMDL
MODEL 2
REMARK VINA RESULT:      -8.5      1.076      1.311
REMARK  Name = 
REMARK  8 active torsions:
REMARK  status: ('A' for Active; 'I' for Inactive)
REMARK    1  A    between atoms: C_1  and  O_2
REMARK    2  A    between atoms: O_2  and  C_3
REMARK    3  A    between atoms: C_7  and  N_8
REMARK    4  A    between atoms: N_11  and  C_12
REMARK    5  A    between atoms: C_12  and  C_13
REMARK    6  A    between atoms: C_13  and  C_14
REMARK    7  A    between atoms: C_14  and  C_15
REMARK    8  A    between atoms: C_15  and  C_16
REMARK                            x       y       z     vdW  Elec       q    Type
REMARK                         _______ _______ _______ _____ _____    ______ ____
ROOT
ATOM      1  C   UNL     1       8.417   9.036  18.495  0.00  0.00    +0.000 C 
ENDROOT
BRANCH   1   2
ATOM      2  C   UNL     1       7.605   8.161  17.499  0.00  0.00    +0.000 C 
BRANCH   2   6
ATOM      3  N   UNL     1       5.475   4.939  17.978  0.00  0.00    +0.000 N 
ATOM      4  C   UNL     1       6.155   5.635  19.085  0.00  0.00    +0.000 C 
ATOM      5  C   UNL     1       7.631   5.950  18.692  0.00  0.00    +0.000 C 
ATOM      6  N   UNL     1       7.859   6.707  17.430  0.00  0.00    +0.000 NA
ATOM      7  C   UNL     1       7.023   6.057  16.371  0.00  0.00    +0.000 C 
ATOM      8  C   UNL     1       5.540   5.704  16.717  0.00  0.00    +0.000 C 
BRANCH   3  13
ATOM      9  C   UNL     1       2.919   2.981  19.854  0.00  0.00    +0.000 A 
ATOM     10  C   UNL     1       1.868   2.944  18.939  0.00  0.00    +0.000 A 
ATOM     11  C   UNL     1       2.020   3.518  17.680  0.00  0.00    +0.000 A 
ATOM     12  C   UNL     1       3.223   4.150  17.340  0.00  0.00    +0.000 A 
ATOM     13  C   UNL     1       4.302   4.220  18.237  0.00  0.00    +0.000 A 
ATOM     14  C   UNL     1       4.128   3.600  19.492  0.00  0.00    +0.000 A 
BRANCH   9  16
ATOM     15  C   UNL     1       1.394   2.768  21.665  0.00  0.00    +0.000 C 
ATOM     16  O   UNL     1       2.629   2.406  21.063  0.00  0.00    +0.000 OA
ENDBRANCH   9  16
ENDBRANCH   3  13
ENDBRANCH   2   6
ENDBRANCH   1   2
BRANCH   1  17
ATOM     17  C   UNL     1       9.324  10.216  18.028  0.00  0.00    +0.000 C 
BRANCH  17  18
ATOM     18  C   UNL     1       8.894  11.742  17.980  0.00  0.00    +0.000 C 
BRANCH  18  19
ATOM     19  C   UNL     1       9.774  12.887  18.656  0.00  0.00    +0.000 C 
ATOM     20  C   UNL     1      11.228  12.439  18.917  0.00  0.00    +0.000 C 
ATOM     21  C   UNL     1      12.081  12.509  17.625  0.00  0.00    +0.000 C 
ATOM     22  C   UNL     1      12.287  13.955  17.195  0.00  0.00    +0.000 C 
ATOM     23  C   UNL     1      10.972  14.692  17.108  0.00  0.00    +0.000 A 
ATOM     24  C   UNL     1      11.033  16.029  16.660  0.00  0.00    +0.000 A 
ATOM     25  C   UNL     1      10.254  16.997  17.294  0.00  0.00    +0.000 A 
ATOM     26  C   UNL     1       9.413  16.620  18.344  0.00  0.00    +0.000 A 
ATOM     27  C   UNL     1       9.255  15.261  18.616  0.00  0.00    +0.000 A 
ATOM     28  C   UNL     1       9.922  14.256  17.925  0.00  0.00    +0.000 A 
ATOM     29  N   UNL     1       8.688  14.726  19.760  0.00  0.00    +0.000 N 
ATOM     30  C   UNL     1       9.004  13.374  19.907  0.00  0.00    +0.000 C 
ATOM     31  O   UNL     1       8.714  12.715  20.890  0.00  0.00    +0.000 OA
ATOM     32  H   UNL     1       8.286  15.267  20.510  0.00  0.00    +0.000 HD
ENDBRANCH  18  19
ENDBRANCH  17  18
ENDBRANCH   1  17
TORSDOF 7
ENDMDL
MODEL 3
REMARK VINA RESULT:      -8.4      1.180      1.363
REMARK  Name = 
REMARK  8 active torsions:
REMARK  status: ('A' for Active; 'I' for Inactive)
REMARK    1  A    between atoms: C_1  and  O_2
REMARK    2  A    between atoms: O_2  and  C_3
REMARK    3  A    between atoms: C_7  and  N_8
REMARK    4  A    between atoms: N_11  and  C_12
REMARK    5  A    between atoms: C_12  and  C_13
REMARK    6  A    between atoms: C_13  and  C_14
REMARK    7  A    between atoms: C_14  and  C_15
REMARK    8  A    between atoms: C_15  and  C_16
REMARK                            x       y       z     vdW  Elec       q    Type
REMARK                         _______ _______ _______ _____ _____    ______ ____
ROOT
ATOM      1  C   UNL     1       7.669   8.904  17.786  0.00  0.00    +0.000 C 
ENDROOT
BRANCH   1   2
ATOM      2  C   UNL     1       7.852   7.361  17.801  0.00  0.00    +0.000 C 
BRANCH   2   6
ATOM      3  N   UNL     1       5.104   4.611  17.621  0.00  0.00    +0.000 N 
ATOM      4  C   UNL     1       6.524   4.324  17.891  0.00  0.00    +0.000 C 
ATOM      5  C   UNL     1       7.426   5.071  16.862  0.00  0.00    +0.000 C 
ATOM      6  N   UNL     1       7.245   6.542  16.731  0.00  0.00    +0.000 NA
ATOM      7  C   UNL     1       5.774   6.796  16.619  0.00  0.00    +0.000 C 
ATOM      8  C   UNL     1       4.821   6.061  17.616  0.00  0.00    +0.000 C 
BRANCH   3  13
ATOM      9  C   UNL     1       2.947   2.891  20.125  0.00  0.00    +0.000 A 
ATOM     10  C   UNL     1       2.015   2.258  19.304  0.00  0.00    +0.000 A 
ATOM     11  C   UNL     1       2.127   2.353  17.920  0.00  0.00    +0.000 A 
ATOM     12  C   UNL     1       3.167   3.101  17.353  0.00  0.00    +0.000 A 
ATOM     13  C   UNL     1       4.120   3.764  18.145  0.00  0.00    +0.000 A 
ATOM     14  C   UNL     1       3.997   3.620  19.543  0.00  0.00    +0.000 A 
BRANCH   9  16
ATOM     15  C   UNL     1       1.347   2.604  21.860  0.00  0.00    +0.000 C 
ATOM     16  O   UNL     1       2.704   2.743  21.465  0.00  0.00    +0.000 OA
ENDBRANCH   9  16
ENDBRANCH   3  13
ENDBRANCH   2   6
ENDBRANCH   1   2
BRANCH   1  17
ATOM     17  C   UNL     1       8.856   9.892  18.002  0.00  0.00    +0.000 C 
BRANCH  17  18
ATOM     18  C   UNL     1       8.742  11.474  18.031  0.00  0.00    +0.000 C 
BRANCH  18  19
ATOM     19  C   UNL     1       9.772  12.378  18.845  0.00  0.00    +0.000 C 
ATOM     20  C   UNL     1      11.243  12.031  18.529  0.00  0.00    +0.000 C 
ATOM     21  C   UNL     1      11.699  12.668  17.192  0.00  0.00    +0.000 C 
ATOM     22  C   UNL     1      11.771  14.184  17.316  0.00  0.00    +0.000 C 
ATOM     23  C   UNL     1      10.481  14.749  17.861  0.00  0.00    +0.000 A 
ATOM     24  C   UNL     1      10.410  16.155  17.966  0.00  0.00    +0.000 A 
ATOM     25  C   UNL     1       9.837  16.727  19.101  0.00  0.00    +0.000 A 
ATOM     26  C   UNL     1       9.325  15.898  20.102  0.00  0.00    +0.000 A 
ATOM     27  C   UNL     1       9.254  14.526  19.860  0.00  0.00    +0.000 A 
ATOM     28  C   UNL     1       9.705  13.928  18.688  0.00  0.00    +0.000 A 
ATOM     29  N   UNL     1       9.033  13.546  20.812  0.00  0.00    +0.000 N 
ATOM     30  C   UNL     1       9.382  12.280  20.339  0.00  0.00    +0.000 C 
ATOM     31  O   UNL     1       9.382  11.276  21.030  0.00  0.00    +0.000 OA
ATOM     32  H   UNL     1       8.856  13.723  21.789  0.00  0.00    +0.000 HD
ENDBRANCH  18  19
ENDBRANCH  17  18
ENDBRANCH   1  17
TORSDOF 7
ENDMDL
MODEL 4
REMARK VINA RESULT:      -8.4      7.579     11.415
REMARK  Name = 
REMARK  8 active torsions:
REMARK  status: ('A' for Active; 'I' for Inactive)
REMARK    1  A    between atoms: C_1  and  O_2
REMARK    2  A    between atoms: O_2  and  C_3
REMARK    3  A    between atoms: C_7  and  N_8
REMARK    4  A    between atoms: N_11  and  C_12
REMARK    5  A    between atoms: C_12  and  C_13
REMARK    6  A    between atoms: C_13  and  C_14
REMARK    7  A    between atoms: C_14  and  C_15
REMARK    8  A    between atoms: C_15  and  C_16
REMARK                            x       y       z     vdW  Elec       q    Type
REMARK                         _______ _______ _______ _____ _____    ______ ____
ROOT
ATOM      1  C   UNL     1       1.103   9.539  19.124  0.00  0.00    +0.000 C 
ENDROOT
BRANCH   1   2
ATOM      2  C   UNL     1      -0.083  10.412  18.626  0.00  0.00    +0.000 C 
BRANCH   2   6
ATOM      3  N   UNL     1      -2.245  12.465  21.127  0.00  0.00    +0.000 N 
ATOM      4  C   UNL     1      -2.650  12.194  19.736  0.00  0.00    +0.000 C 
ATOM      5  C   UNL     1      -1.468  12.502  18.766  0.00  0.00    +0.000 C 
ATOM      6  N   UNL     1      -0.168  11.830  19.033  0.00  0.00    +0.000 NA
ATOM      7  C   UNL     1       0.122  11.997  20.493  0.00  0.00    +0.000 C 
ATOM      8  C   UNL     1      -1.031  11.716  21.509  0.00  0.00    +0.000 C 
BRANCH   3  13
ATOM      9  C   UNL     1      -5.604  13.004  22.648  0.00  0.00    +0.000 A 
ATOM     10  C   UNL     1      -5.339  12.781  23.998  0.00  0.00    +0.000 A 
ATOM     11  C   UNL     1      -4.041  12.506  24.417  0.00  0.00    +0.000 A 
ATOM     12  C   UNL     1      -3.004  12.434  23.478  0.00  0.00    +0.000 A 
ATOM     13  C   UNL     1      -3.231  12.640  22.107  0.00  0.00    +0.000 A 
ATOM     14  C   UNL     1      -4.551  12.949  21.719  0.00  0.00    +0.000 A 
BRANCH   9  16
ATOM     15  C   UNL     1      -7.869  12.347  22.949  0.00  0.00    +0.000 C 
ATOM     16  O   UNL     1      -6.925  13.235  22.367  0.00  0.00    +0.000 OA
ENDBRANCH   9  16
ENDBRANCH   3  13
ENDBRANCH   2   6
ENDBRANCH   1   2
BRANCH   1  17
ATOM     17  C   UNL     1       2.096   8.838  18.147  0.00  0.00    +0.000 C 
BRANCH  17  18
ATOM     18  C   UNL     1       1.983   7.338  17.642  0.00  0.00    +0.000 C 
BRANCH  18  19
ATOM     19  C   UNL     1       2.746   6.144  18.371  0.00  0.00    +0.000 C 
ATOM     20  C   UNL     1       2.936   6.397  19.882  0.00  0.00    +0.000 C 
ATOM     21  C   UNL     1       1.640   6.088  20.674  0.00  0.00    +0.000 C 
ATOM     22  C   UNL     1       1.344   4.595  20.658  0.00  0.00    +0.000 C 
ATOM     23  C   UNL     1       1.352   4.052  19.249  0.00  0.00    +0.000 A 
ATOM     24  C   UNL     1       1.031   2.684  19.104  0.00  0.00    +0.000 A 
ATOM     25  C   UNL     1       1.768   1.901  18.217  0.00  0.00    +0.000 A 
ATOM     26  C   UNL     1       2.794   2.489  17.472  0.00  0.00    +0.000 A 
ATOM     27  C   UNL     1       2.940   3.876  17.518  0.00  0.00    +0.000 A 
ATOM     28  C   UNL     1       2.145   4.707  18.299  0.00  0.00    +0.000 A 
ATOM     29  N   UNL     1       4.039   4.588  17.071  0.00  0.00    +0.000 N 
ATOM     30  C   UNL     1       4.052   5.888  17.581  0.00  0.00    +0.000 C 
ATOM     31  O   UNL     1       4.974   6.668  17.420  0.00  0.00    +0.000 OA
ATOM     32  H   UNL     1       4.845   4.182  16.621  0.00  0.00    +0.000 HD
ENDBRANCH  18  19
ENDBRANCH  17  18
ENDBRANCH   1  17
TORSDOF 7
ENDMDL
MODEL 5
REMARK VINA RESULT:      -8.3      1.526      2.330
REMARK  Name = 
REMARK  8 active torsions:
REMARK  status: ('A' for Active; 'I' for Inactive)
REMARK    1  A    between atoms: C_1  and  O_2
REMARK    2  A    between atoms: O_2  and  C_3
REMARK    3  A    between atoms: C_7  and  N_8
REMARK    4  A    between atoms: N_11  and  C_12
REMARK    5  A    between atoms: C_12  and  C_13
REMARK    6  A    between atoms: C_13  and  C_14
REMARK    7  A    between atoms: C_14  and  C_15
REMARK    8  A    between atoms: C_15  and  C_16
REMARK                            x       y       z     vdW  Elec       q    Type
REMARK                         _______ _______ _______ _____ _____    ______ ____
ROOT
ATOM      1  C   UNL     1       7.603   8.638  17.828  0.00  0.00    +0.000 C 
ENDROOT
BRANCH   1   2
ATOM      2  C   UNL     1       7.933   7.120  17.868  0.00  0.00    +0.000 C 
BRANCH   2   6
ATOM      3  N   UNL     1       4.742   4.899  17.689  0.00  0.00    +0.000 N 
ATOM      4  C   UNL     1       6.022   4.437  18.253  0.00  0.00    +0.000 C 
ATOM      5  C   UNL     1       7.192   4.792  17.285  0.00  0.00    +0.000 C 
ATOM      6  N   UNL     1       7.330   6.214  16.868  0.00  0.00    +0.000 NA
ATOM      7  C   UNL     1       5.971   6.685  16.454  0.00  0.00    +0.000 C 
ATOM      8  C   UNL     1       4.759   6.343  17.380  0.00  0.00    +0.000 C 
BRANCH   3  13
ATOM      9  C   UNL     1       2.089   3.877  20.098  0.00  0.00    +0.000 A 
ATOM     10  C   UNL     1       1.061   3.495  19.237  0.00  0.00    +0.000 A 
ATOM     11  C   UNL     1       1.259   3.524  17.860  0.00  0.00    +0.000 A 
ATOM     12  C   UNL     1       2.487   3.954  17.339  0.00  0.00    +0.000 A 
ATOM     13  C   UNL     1       3.544   4.358  18.171  0.00  0.00    +0.000 A 
ATOM     14  C   UNL     1       3.322   4.285  19.562  0.00  0.00    +0.000 A 
BRANCH   9  16
ATOM     15  C   UNL     1       1.812   2.559  22.057  0.00  0.00    +0.000 C 
ATOM     16  O   UNL     1       1.754   3.830  21.425  0.00  0.00    +0.000 OA
ENDBRANCH   9  16
ENDBRANCH   3  13
ENDBRANCH   2   6
ENDBRANCH   1   2
BRANCH   1  17
ATOM     17  C   UNL     1       8.710   9.737  17.816  0.00  0.00    +0.000 C 
BRANCH  17  18
ATOM     18  C   UNL     1       9.230  10.531  19.087  0.00  0.00    +0.000 C 
BRANCH  18  19
ATOM     19  C   UNL     1       9.759  12.031  18.985  0.00  0.00    +0.000 C 
ATOM     20  C   UNL     1       9.479  12.665  17.605  0.00  0.00    +0.000 C 
ATOM     21  C   UNL     1       8.011  13.147  17.492  0.00  0.00    +0.000 C 
ATOM     22  C   UNL     1       7.760  14.328  18.418  0.00  0.00    +0.000 C 
ATOM     23  C   UNL     1       8.201  14.020  19.829  0.00  0.00    +0.000 A 
ATOM     24  C   UNL     1       7.963  15.024  20.793  0.00  0.00    +0.000 A 
ATOM     25  C   UNL     1       8.948  15.309  21.739  0.00  0.00    +0.000 A 
ATOM     26  C   UNL     1      10.139  14.580  21.728  0.00  0.00    +0.000 A 
ATOM     27  C   UNL     1      10.241  13.479  20.877  0.00  0.00    +0.000 A 
ATOM     28  C   UNL     1       9.233  13.089  20.003  0.00  0.00    +0.000 A 
ATOM     29  N   UNL     1      11.411  12.819  20.544  0.00  0.00    +0.000 N 
ATOM     30  C   UNL     1      11.246  12.019  19.411  0.00  0.00    +0.000 C 
ATOM     31  O   UNL     1      12.160  11.431  18.861  0.00  0.00    +0.000 OA
ATOM     32  H   UNL     1      12.322  13.038  20.918  0.00  0.00    +0.000 HD
ENDBRANCH  18  19
ENDBRANCH  17  18
ENDBRANCH   1  17
TORSDOF 7
ENDMDL
MODEL 6
REMARK VINA RESULT:      -8.3      1.235      1.789
REMARK  Name = 
REMARK  8 active torsions:
REMARK  status: ('A' for Active; 'I' for Inactive)
REMARK    1  A    between atoms: C_1  and  O_2
REMARK    2  A    between atoms: O_2  and  C_3
REMARK    3  A    between atoms: C_7  and  N_8
REMARK    4  A    between atoms: N_11  and  C_12
REMARK    5  A    between atoms: C_12  and  C_13
REMARK    6  A    between atoms: C_13  and  C_14
REMARK    7  A    between atoms: C_14  and  C_15
REMARK    8  A    between atoms: C_15  and  C_16
REMARK                            x       y       z     vdW  Elec       q    Type
REMARK                         _______ _______ _______ _____ _____    ______ ____
ROOT
ATOM      1  C   UNL     1       8.624   9.150  18.496  0.00  0.00    +0.000 C 
ENDROOT
BRANCH   1   2
ATOM      2  C   UNL     1       7.612   8.319  17.659  0.00  0.00    +0.000 C 
BRANCH   2   6
ATOM      3  N   UNL     1       5.659   4.972  18.023  0.00  0.00    +0.000 N 
ATOM      4  C   UNL     1       6.469   5.561  19.104  0.00  0.00    +0.000 C 
ATOM      5  C   UNL     1       7.866   5.986  18.555  0.00  0.00    +0.000 C 
ATOM      6  N   UNL     1       7.893   6.895  17.377  0.00  0.00    +0.000 NA
ATOM      7  C   UNL     1       6.934   6.340  16.370  0.00  0.00    +0.000 C 
ATOM      8  C   UNL     1       5.525   5.883  16.869  0.00  0.00    +0.000 C 
BRANCH   3  13
ATOM      9  C   UNL     1       3.007   3.348  20.075  0.00  0.00    +0.000 A 
ATOM     10  C   UNL     1       2.199   2.781  19.090  0.00  0.00    +0.000 A 
ATOM     11  C   UNL     1       2.557   2.886  17.749  0.00  0.00    +0.000 A 
ATOM     12  C   UNL     1       3.720   3.580  17.389  0.00  0.00    +0.000 A 
ATOM     13  C   UNL     1       4.554   4.176  18.349  0.00  0.00    +0.000 A 
ATOM     14  C   UNL     1       4.181   4.022  19.700  0.00  0.00    +0.000 A 
BRANCH   9  16
ATOM     15  C   UNL     1       1.214   2.668  21.481  0.00  0.00    +0.000 C 
ATOM     16  O   UNL     1       2.526   3.197  21.349  0.00  0.00    +0.000 OA
ENDBRANCH   9  16
ENDBRANCH   3  13
ENDBRANCH   2   6
ENDBRANCH   1   2
BRANCH   1  17
ATOM     17  C   UNL     1       8.938  10.646  18.188  0.00  0.00    +0.000 C 
BRANCH  17  18
ATOM     18  C   UNL     1      10.373  11.234  17.853  0.00  0.00    +0.000 C 
BRANCH  18  19
ATOM     19  C   UNL     1      10.918  12.567  18.537  0.00  0.00    +0.000 C 
ATOM     20  C   UNL     1      12.036  13.242  17.713  0.00  0.00    +0.000 C 
ATOM     21  C   UNL     1      11.453  14.055  16.530  0.00  0.00    +0.000 C 
ATOM     22  C   UNL     1      10.685  15.267  17.038  0.00  0.00    +0.000 C 
ATOM     23  C   UNL     1       9.664  14.871  18.077  0.00  0.00    +0.000 A 
ATOM     24  C   UNL     1       8.849  15.908  18.580  0.00  0.00    +0.000 A 
ATOM     25  C   UNL     1       8.573  15.958  19.946  0.00  0.00    +0.000 A 
ATOM     26  C   UNL     1       9.091  14.969  20.786  0.00  0.00    +0.000 A 
ATOM     27  C   UNL     1       9.729  13.871  20.209  0.00  0.00    +0.000 A 
ATOM     28  C   UNL     1       9.917  13.725  18.840  0.00  0.00    +0.000 A 
ATOM     29  N   UNL     1      10.520  12.952  20.877  0.00  0.00    +0.000 N 
ATOM     30  C   UNL     1      11.303  12.207  19.992  0.00  0.00    +0.000 C 
ATOM     31  O   UNL     1      12.159  11.417  20.348  0.00  0.00    +0.000 OA
ATOM     32  H   UNL     1      10.688  12.952  21.871  0.00  0.00    +0.000 HD
ENDBRANCH  18  19
ENDBRANCH  17  18
ENDBRANCH   1  17
TORSDOF 7
ENDMDL
MODEL 7
REMARK VINA RESULT:      -8.2      1.423      2.460
REMARK  Name = 
REMARK  8 active torsions:
REMARK  status: ('A' for Active; 'I' for Inactive)
REMARK    1  A    between atoms: C_1  and  O_2
REMARK    2  A    between atoms: O_2  and  C_3
REMARK    3  A    between atoms: C_7  and  N_8
REMARK    4  A    between atoms: N_11  and  C_12
REMARK    5  A    between atoms: C_12  and  C_13
REMARK    6  A    between atoms: C_13  and  C_14
REMARK    7  A    between atoms: C_14  and  C_15
REMARK    8  A    between atoms: C_15  and  C_16
REMARK                            x       y       z     vdW  Elec       q    Type
REMARK                         _______ _______ _______ _____ _____    ______ ____
ROOT
ATOM      1  C   UNL     1       8.433   8.905  17.537  0.00  0.00    +0.000 C 
ENDROOT
BRANCH   1   2
ATOM      2  C   UNL     1       7.323   7.852  17.811  0.00  0.00    +0.000 C 
BRANCH   2   6
ATOM      3  N   UNL     1       5.059   4.691  17.638  0.00  0.00    +0.000 N 
ATOM      4  C   UNL     1       6.425   4.683  18.191  0.00  0.00    +0.000 C 
ATOM      5  C   UNL     1       7.400   5.413  17.218  0.00  0.00    +0.000 C 
ATOM      6  N   UNL     1       7.051   6.801  16.809  0.00  0.00    +0.000 NA
ATOM      7  C   UNL     1       5.609   6.791  16.407  0.00  0.00    +0.000 C 
ATOM      8  C   UNL     1       4.589   6.059  17.338  0.00  0.00    +0.000 C 
BRANCH   3  13
ATOM      9  C   UNL     1       3.010   2.744  20.066  0.00  0.00    +0.000 A 
ATOM     10  C   UNL     1       2.087   2.127  19.222  0.00  0.00    +0.000 A 
ATOM     11  C   UNL     1       2.173   2.309  17.845  0.00  0.00    +0.000 A 
ATOM     12  C   UNL     1       3.175   3.128  17.309  0.00  0.00    +0.000 A 
ATOM     13  C   UNL     1       4.116   3.778  18.125  0.00  0.00    +0.000 A 
ATOM     14  C   UNL     1       4.022   3.546  19.513  0.00  0.00    +0.000 A 
BRANCH   9  16
ATOM     15  C   UNL     1       1.489   2.761  21.893  0.00  0.00    +0.000 C 
ATOM     16  O   UNL     1       2.796   2.507  21.398  0.00  0.00    +0.000 OA
ENDBRANCH   9  16
ENDBRANCH   3  13
ENDBRANCH   2   6
ENDBRANCH   1   2
BRANCH   1  17
ATOM     17  C   UNL     1       8.635  10.164  18.436  0.00  0.00    +0.000 C 
BRANCH  17  18
ATOM     18  C   UNL     1       9.529  11.421  18.069  0.00  0.00    +0.000 C 
BRANCH  18  19
ATOM     19  C   UNL     1       9.922  12.522  19.154  0.00  0.00    +0.000 C 
ATOM     20  C   UNL     1      10.476  13.813  18.514  0.00  0.00    +0.000 C 
ATOM     21  C   UNL     1       9.335  14.712  17.976  0.00  0.00    +0.000 C 
ATOM     22  C   UNL     1       8.511  15.279  19.124  0.00  0.00    +0.000 C 
ATOM     23  C   UNL     1       8.048  14.185  20.057  0.00  0.00    +0.000 A 
ATOM     24  C   UNL     1       7.223  14.586  21.130  0.00  0.00    +0.000 A 
ATOM     25  C   UNL     1       7.435  14.037  22.395  0.00  0.00    +0.000 A 
ATOM     26  C   UNL     1       8.443  13.086  22.569  0.00  0.00    +0.000 A 
ATOM     27  C   UNL     1       9.097  12.593  21.440  0.00  0.00    +0.000 A 
ATOM     28  C   UNL     1       8.830  13.027  20.147  0.00  0.00    +0.000 A 
ATOM     29  N   UNL     1      10.275  11.865  21.440  0.00  0.00    +0.000 N 
ATOM     30  C   UNL     1      10.864  11.839  20.174  0.00  0.00    +0.000 C 
ATOM     31  O   UNL     1      11.960  11.357  19.949  0.00  0.00    +0.000 OA
ATOM     32  H   UNL     1      10.771  11.574  22.268  0.00  0.00    +0.000 HD
ENDBRANCH  18  19
ENDBRANCH  17  18
ENDBRANCH   1  17
TORSDOF 7
ENDMDL
MODEL 8
REMARK VINA RESULT:      -8.1      7.022     11.310
REMARK  Name = 
REMARK  8 active torsions:
REMARK  status: ('A' for Active; 'I' for Inactive)
REMARK    1  A    between atoms: C_1  and  O_2
REMARK    2  A    between atoms: O_2  and  C_3
REMARK    3  A    between atoms: C_7  and  N_8
REMARK    4  A    between atoms: N_11  and  C_12
REMARK    5  A    between atoms: C_12  and  C_13
REMARK    6  A    between atoms: C_13  and  C_14
REMARK    7  A    between atoms: C_14  and  C_15
REMARK    8  A    between atoms: C_15  and  C_16
REMARK                            x       y       z     vdW  Elec       q    Type
REMARK                         _______ _______ _______ _____ _____    ______ ____
ROOT
ATOM      1  C   UNL     1       1.580   9.659  17.784  0.00  0.00    +0.000 C 
ENDROOT
BRANCH   1   2
ATOM      2  C   UNL     1       0.921  10.468  18.936  0.00  0.00    +0.000 C 
BRANCH   2   6
ATOM      3  N   UNL     1      -1.461  11.693  21.760  0.00  0.00    +0.000 N 
ATOM      4  C   UNL     1      -0.320  10.790  21.994  0.00  0.00    +0.000 C 
ATOM      5  C   UNL     1      -0.329   9.634  20.948  0.00  0.00    +0.000 C 
ATOM      6  N   UNL     1      -0.363  10.010  19.509  0.00  0.00    +0.000 NA
ATOM      7  C   UNL     1      -1.431  11.046  19.350  0.00  0.00    +0.000 C 
ATOM      8  C   UNL     1      -1.478  12.220  20.381  0.00  0.00    +0.000 C 
BRANCH   3  13
ATOM      9  C   UNL     1      -1.430  14.540  24.163  0.00  0.00    +0.000 A 
ATOM     10  C   UNL     1      -2.721  14.480  24.685  0.00  0.00    +0.000 A 
ATOM     11  C   UNL     1      -3.588  13.467  24.285  0.00  0.00    +0.000 A 
ATOM     12  C   UNL     1      -3.168  12.519  23.343  0.00  0.00    +0.000 A 
ATOM     13  C   UNL     1      -1.879  12.551  22.784  0.00  0.00    +0.000 A 
ATOM     14  C   UNL     1      -1.014  13.570  23.236  0.00  0.00    +0.000 A 
BRANCH   9  16
ATOM     15  C   UNL     1      -1.398  16.633  25.290  0.00  0.00    +0.000 C 
ATOM     16  O   UNL     1      -0.691  15.600  24.618  0.00  0.00    +0.000 OA
ENDBRANCH   9  16
ENDBRANCH   3  13
ENDBRANCH   2   6
ENDBRANCH   1   2
BRANCH   1  17
ATOM     17  C   UNL     1       2.586   8.496  18.046  0.00  0.00    +0.000 C 
BRANCH  17  18
ATOM     18  C   UNL     1       2.413   7.002  17.542  0.00  0.00    +0.000 C 
BRANCH  18  19
ATOM     19  C   UNL     1       2.992   5.764  18.364  0.00  0.00    +0.000 C 
ATOM     20  C   UNL     1       3.175   6.081  19.864  0.00  0.00    +0.000 C 
ATOM     21  C   UNL     1       1.830   5.993  20.628  0.00  0.00    +0.000 C 
ATOM     22  C   UNL     1       1.339   4.554  20.686  0.00  0.00    +0.000 C 
ATOM     23  C   UNL     1       1.310   3.930  19.311  0.00  0.00    +0.000 A 
ATOM     24  C   UNL     1       0.815   2.610  19.234  0.00  0.00    +0.000 A 
ATOM     25  C   UNL     1       1.464   1.684  18.417  0.00  0.00    +0.000 A 
ATOM     26  C   UNL     1       2.577   2.087  17.676  0.00  0.00    +0.000 A 
ATOM     27  C   UNL     1       2.905   3.442  17.648  0.00  0.00    +0.000 A 
ATOM     28  C   UNL     1       2.208   4.416  18.353  0.00  0.00    +0.000 A 
ATOM     29  N   UNL     1       4.100   3.977  17.198  0.00  0.00    +0.000 N 
ATOM     30  C   UNL     1       4.272   5.292  17.633  0.00  0.00    +0.000 C 
ATOM     31  O   UNL     1       5.294   5.933  17.460  0.00  0.00    +0.000 OA
ATOM     32  H   UNL     1       4.856   3.441  16.799  0.00  0.00    +0.000 HD
ENDBRANCH  18  19
ENDBRANCH  17  18
ENDBRANCH   1  17
TORSDOF 7
ENDMDL
MODEL 9
REMARK VINA RESULT:      -8.1      5.791      9.580
REMARK  Name = 
REMARK  8 active torsions:
REMARK  status: ('A' for Active; 'I' for Inactive)
REMARK    1  A    between atoms: C_1  and  O_2
REMARK    2  A    between atoms: O_2  and  C_3
REMARK    3  A    between atoms: C_7  and  N_8
REMARK    4  A    between atoms: N_11  and  C_12
REMARK    5  A    between atoms: C_12  and  C_13
REMARK    6  A    between atoms: C_13  and  C_14
REMARK    7  A    between atoms: C_14  and  C_15
REMARK    8  A    between atoms: C_15  and  C_16
REMARK                            x       y       z     vdW  Elec       q    Type
REMARK                         _______ _______ _______ _____ _____    ______ ____
ROOT
ATOM      1  C   UNL     1       2.895   7.956  17.795  0.00  0.00    +0.000 C 
ENDROOT
BRANCH   1   2
ATOM      2  C   UNL     1       2.157   9.247  18.248  0.00  0.00    +0.000 C 
BRANCH   2   6
ATOM      3  N   UNL     1       0.103  11.387  20.767  0.00  0.00    +0.000 N 
ATOM      4  C   UNL     1       1.070  10.354  21.179  0.00  0.00    +0.000 C 
ATOM      5  C   UNL     1       0.829   9.043  20.370  0.00  0.00    +0.000 C 
ATOM      6  N   UNL     1       0.828   9.143  18.885  0.00  0.00    +0.000 NA
ATOM      7  C   UNL     1      -0.043  10.306  18.523  0.00  0.00    +0.000 C 
ATOM      8  C   UNL     1       0.146  11.641  19.313  0.00  0.00    +0.000 C 
BRANCH   3  13
ATOM      9  C   UNL     1       0.232  14.872  22.081  0.00  0.00    +0.000 A 
ATOM     10  C   UNL     1      -0.712  14.820  23.106  0.00  0.00    +0.000 A 
ATOM     11  C   UNL     1      -1.354  13.621  23.401  0.00  0.00    +0.000 A 
ATOM     12  C   UNL     1      -1.065  12.470  22.655  0.00  0.00    +0.000 A 
ATOM     13  C   UNL     1      -0.130  12.483  21.607  0.00  0.00    +0.000 A 
ATOM     14  C   UNL     1       0.528  13.706  21.355  0.00  0.00    +0.000 A 
BRANCH   9  16
ATOM     15  C   UNL     1       1.319  16.373  20.592  0.00  0.00    +0.000 C 
ATOM     16  O   UNL     1       0.767  16.116  21.876  0.00  0.00    +0.000 OA
ENDBRANCH   9  16
ENDBRANCH   3  13
ENDBRANCH   2   6
ENDBRANCH   1   2
BRANCH   1  17
ATOM     17  C   UNL     1       2.594   6.557  18.414  0.00  0.00    +0.000 C 
BRANCH  17  18
ATOM     18  C   UNL     1       2.931   5.162  17.739  0.00  0.00    +0.000 C 
BRANCH  18  19
ATOM     19  C   UNL     1       4.424   4.612  17.640  0.00  0.00    +0.000 C 
ATOM     20  C   UNL     1       4.752   4.034  16.247  0.00  0.00    +0.000 C 
ATOM     21  C   UNL     1       5.070   5.159  15.230  0.00  0.00    +0.000 C 
ATOM     22  C   UNL     1       6.382   5.846  15.583  0.00  0.00    +0.000 C 
ATOM     23  C   UNL     1       6.393   6.296  17.025  0.00  0.00    +0.000 A 
ATOM     24  C   UNL     1       7.539   7.000  17.451  0.00  0.00    +0.000 A 
ATOM     25  C   UNL     1       8.087   6.717  18.702  0.00  0.00    +0.000 A 
ATOM     26  C   UNL     1       7.478   5.759  19.516  0.00  0.00    +0.000 A 
ATOM     27  C   UNL     1       6.247   5.234  19.123  0.00  0.00    +0.000 A 
ATOM     28  C   UNL     1       5.608   5.582  17.938  0.00  0.00    +0.000 A 
ATOM     29  N   UNL     1       5.641   4.108  19.652  0.00  0.00    +0.000 N 
ATOM     30  C   UNL     1       4.626   3.631  18.820  0.00  0.00    +0.000 C 
ATOM     31  O   UNL     1       4.025   2.590  19.017  0.00  0.00    +0.000 OA
ATOM     32  H   UNL     1       6.008   3.563  20.417  0.00  0.00    +0.000 HD
ENDBRANCH  18  19
ENDBRANCH  17  18
ENDBRANCH   1  17
TORSDOF 7
ENDMDL
