MODEL 1
REMARK VINA RESULT:      -8.2      0.000      0.000
REMARK  Name = 
REMARK  6 active torsions:
REMARK  status: ('A' for Active; 'I' for Inactive)
REMARK    1  A    between atoms: C_1  and  C_2
REMARK    2  A    between atoms: C_2  and  N_3
REMARK    3  A    between atoms: C_11  and  S_12
REMARK    4  A    between atoms: S_12  and  N_15
REMARK    5  A    between atoms: N_15  and  C_16
REMARK    6  A    between atoms: C_16  and  C_17
REMARK                            x       y       z     vdW  Elec       q    Type
REMARK                         _______ _______ _______ _____ _____    ______ ____
ROOT
ATOM      1  N   UNL     1       2.653   4.746  20.550  0.00  0.00    +0.000 N 
ATOM      2  C   UNL     1       1.882   5.916  20.378  0.00  0.00    +0.000 C 
ATOM      3  O   UNL     1       0.882   6.220  21.013  0.00  0.00    +0.000 OA
ATOM      4  C   UNL     1       2.565   6.585  19.288  0.00  0.00    +0.000 A 
ATOM      5  C   UNL     1       2.274   7.796  18.669  0.00  0.00    +0.000 A 
ATOM      6  C   UNL     1       3.111   8.180  17.615  0.00  0.00    +0.000 A 
ATOM      7  C   UNL     1       4.207   7.388  17.208  0.00  0.00    +0.000 A 
ATOM      8  C   UNL     1       4.511   6.157  17.851  0.00  0.00    +0.000 A 
ATOM      9  C   UNL     1       5.549   5.203  17.634  0.00  0.00    +0.000 A 
ATOM     10  C   UNL     1       5.631   4.027  18.431  0.00  0.00    +0.000 A 
ATOM     11  C   UNL     1       4.701   3.744  19.446  0.00  0.00    +0.000 A 
ATOM     12  C   UNL     1       3.711   4.690  19.638  0.00  0.00    +0.000 A 
ATOM     13  C   UNL     1       3.648   5.830  18.863  0.00  0.00    +0.000 A 
ENDROOT
BRANCH   9  14
ATOM     14  S   UNL     1       6.880   5.478  16.475  0.00  0.00    +0.000 S 
ATOM     15  O   UNL     1       7.302   6.860  16.548  0.00  0.00    +0.000 OA
ATOM     16  O   UNL     1       7.828   4.402  16.677  0.00  0.00    +0.000 OA
BRANCH  14  17
ATOM     17  N   UNL     1       6.160   5.201  14.978  0.00  0.00    +0.000 NA
ATOM     18  H   UNL     1       5.539   5.960  14.695  0.00  0.00    +0.000 HD
BRANCH  17  19
ATOM     19  C   UNL     1       7.064   4.793  13.896  0.00  0.00    +0.000 C 
BRANCH  19  20
ATOM     20  C   UNL     1       6.315   3.901  12.972  0.00  0.00    +0.000 A 
ATOM     21  C   UNL     1       6.694   2.925  12.072  0.00  0.00    +0.000 A 
ATOM     22  C   UNL     1       5.504   2.467  11.455  0.00  0.00    +0.000 A 
ATOM     23  C   UNL     1       4.476   3.181  12.026  0.00  0.00    +0.000 A 
ATOM     24  O   UNL     1       4.957   4.047  12.955  0.00  0.00    +0.000 OA
ENDBRANCH  19  20
ENDBRANCH  17  19
ENDBRANCH  14  17
ENDBRANCH   9  14
BRANCH   1  26
ATOM     25  C   UNL     1       1.400   2.651  20.824  0.00  0.00    +0.000 C 
ATOM     26  C   UNL     1       2.278   3.705  21.482  0.00  0.00    +0.000 C 
ENDBRANCH   1  26
TORSDOF 5
ENDMDL
MODEL 2
REMARK VINA RESULT:      -7.8      2.380      3.809
REMARK  Name = 
REMARK  6 active torsions:
REMARK  status: ('A' for Active; 'I' for Inactive)
REMARK    1  A    between atoms: C_1  and  C_2
REMARK    2  A    between atoms: C_2  and  N_3
REMARK    3  A    between atoms: C_11  and  S_12
REMARK    4  A    between atoms: S_12  and  N_15
REMARK    5  A    between atoms: N_15  and  C_16
REMARK    6  A    between atoms: C_16  and  C_17
REMARK                            x       y       z     vdW  Elec       q    Type
REMARK                         _______ _______ _______ _____ _____    ______ ____
ROOT
ATOM      1  N   UNL     1       2.197   3.866  19.674  0.00  0.00    +0.000 N 
ATOM      2  C   UNL     1       1.820   5.191  19.986  0.00  0.00    +0.000 C 
ATOM      3  O   UNL     1       1.049   5.530  20.873  0.00  0.00    +0.000 OA
ATOM      4  C   UNL     1       2.547   5.966  19.000  0.00  0.00    +0.000 A 
ATOM      5  C   UNL     1       2.583   7.342  18.803  0.00  0.00    +0.000 A 
ATOM      6  C   UNL     1       3.369   7.805  17.741  0.00  0.00    +0.000 A 
ATOM      7  C   UNL     1       4.103   6.923  16.919  0.00  0.00    +0.000 A 
ATOM      8  C   UNL     1       4.076   5.516  17.130  0.00  0.00    +0.000 A 
ATOM      9  C   UNL     1       4.726   4.442  16.455  0.00  0.00    +0.000 A 
ATOM     10  C   UNL     1       4.525   3.096  16.870  0.00  0.00    +0.000 A 
ATOM     11  C   UNL     1       3.679   2.762  17.942  0.00  0.00    +0.000 A 
ATOM     12  C   UNL     1       3.068   3.825  18.582  0.00  0.00    +0.000 A 
ATOM     13  C   UNL     1       3.278   5.126  18.172  0.00  0.00    +0.000 A 
ENDROOT
BRANCH   9  14
ATOM     14  S   UNL     1       5.931   4.708  15.162  0.00  0.00    +0.000 S 
ATOM     15  O   UNL     1       5.933   3.571  14.267  0.00  0.00    +0.000 OA
ATOM     16  O   UNL     1       5.705   6.046  14.660  0.00  0.00    +0.000 OA
BRANCH  14  17
ATOM     17  N   UNL     1       7.395   4.754  15.995  0.00  0.00    +0.000 NA
ATOM     18  H   UNL     1       8.055   5.420  15.591  0.00  0.00    +0.000 HD
BRANCH  17  19
ATOM     19  C   UNL     1       7.299   4.884  17.454  0.00  0.00    +0.000 C 
BRANCH  19  20
ATOM     20  C   UNL     1       7.698   6.266  17.828  0.00  0.00    +0.000 A 
ATOM     21  C   UNL     1       8.245   6.827  18.966  0.00  0.00    +0.000 A 
ATOM     22  C   UNL     1       8.349   8.216  18.716  0.00  0.00    +0.000 A 
ATOM     23  C   UNL     1       7.871   8.415  17.441  0.00  0.00    +0.000 A 
ATOM     24  O   UNL     1       7.484   7.235  16.890  0.00  0.00    +0.000 OA
ENDBRANCH  19  20
ENDBRANCH  17  19
ENDBRANCH  14  17
ENDBRANCH   9  14
BRANCH   1  26
ATOM     25  C   UNL     1       2.271   2.486  21.704  0.00  0.00    +0.000 C 
ATOM     26  C   UNL     1       1.623   2.722  20.349  0.00  0.00    +0.000 C 
ENDBRANCH   1  26
TORSDOF 5
ENDMDL
MODEL 3
REMARK VINA RESULT:      -7.8      2.647      4.420
REMARK  Name = 
REMARK  6 active torsions:
REMARK  status: ('A' for Active; 'I' for Inactive)
REMARK    1  A    between atoms: C_1  and  C_2
REMARK    2  A    between atoms: C_2  and  N_3
REMARK    3  A    between atoms: C_11  and  S_12
REMARK    4  A    between atoms: S_12  and  N_15
REMARK    5  A    between atoms: N_15  and  C_16
REMARK    6  A    between atoms: C_16  and  C_17
REMARK                            x       y       z     vdW  Elec       q    Type
REMARK                         _______ _______ _______ _____ _____    ______ ____
ROOT
ATOM      1  N   UNL     1       2.719   4.811  20.515  0.00  0.00    +0.000 N 
ATOM      2  C   UNL     1       1.949   5.985  20.354  0.00  0.00    +0.000 C 
ATOM      3  O   UNL     1       0.973   6.302  21.019  0.00  0.00    +0.000 OA
ATOM      4  C   UNL     1       2.601   6.637  19.235  0.00  0.00    +0.000 A 
ATOM      5  C   UNL     1       2.296   7.842  18.612  0.00  0.00    +0.000 A 
ATOM      6  C   UNL     1       3.101   8.209  17.526  0.00  0.00    +0.000 A 
ATOM      7  C   UNL     1       4.178   7.405  17.093  0.00  0.00    +0.000 A 
ATOM      8  C   UNL     1       4.495   6.179  17.739  0.00  0.00    +0.000 A 
ATOM      9  C   UNL     1       5.519   5.216  17.500  0.00  0.00    +0.000 A 
ATOM     10  C   UNL     1       5.620   4.048  18.307  0.00  0.00    +0.000 A 
ATOM     11  C   UNL     1       4.722   3.783  19.356  0.00  0.00    +0.000 A 
ATOM     12  C   UNL     1       3.745   4.738  19.568  0.00  0.00    +0.000 A 
ATOM     13  C   UNL     1       3.664   5.869  18.783  0.00  0.00    +0.000 A 
ENDROOT
BRANCH   9  14
ATOM     14  S   UNL     1       6.813   5.468  16.294  0.00  0.00    +0.000 S 
ATOM     15  O   UNL     1       7.848   4.476  16.486  0.00  0.00    +0.000 OA
ATOM     16  O   UNL     1       6.157   5.616  15.013  0.00  0.00    +0.000 OA
BRANCH  14  17
ATOM     17  N   UNL     1       7.428   6.986  16.691  0.00  0.00    +0.000 NA
ATOM     18  H   UNL     1       6.841   7.748  16.349  0.00  0.00    +0.000 HD
BRANCH  17  19
ATOM     19  C   UNL     1       7.820   7.173  18.093  0.00  0.00    +0.000 C 
BRANCH  19  20
ATOM     20  C   UNL     1       8.269   8.579  18.269  0.00  0.00    +0.000 A 
ATOM     21  C   UNL     1       9.123   9.204  19.157  0.00  0.00    +0.000 A 
ATOM     22  C   UNL     1       9.099  10.582  18.831  0.00  0.00    +0.000 A 
ATOM     23  C   UNL     1       8.244  10.709  17.761  0.00  0.00    +0.000 A 
ATOM     24  O   UNL     1       7.744   9.498  17.406  0.00  0.00    +0.000 OA
ENDBRANCH  19  20
ENDBRANCH  17  19
ENDBRANCH  14  17
ENDBRANCH   9  14
BRANCH   1  26
ATOM     25  C   UNL     1       1.273   2.872  20.939  0.00  0.00    +0.000 C 
ATOM     26  C   UNL     1       2.367   3.784  21.471  0.00  0.00    +0.000 C 
ENDBRANCH   1  26
TORSDOF 5
ENDMDL
MODEL 4
REMARK VINA RESULT:      -7.6      0.884      1.085
REMARK  Name = 
REMARK  6 active torsions:
REMARK  status: ('A' for Active; 'I' for Inactive)
REMARK    1  A    between atoms: C_1  and  C_2
REMARK    2  A    between atoms: C_2  and  N_3
REMARK    3  A    between atoms: C_11  and  S_12
REMARK    4  A    between atoms: S_12  and  N_15
REMARK    5  A    between atoms: N_15  and  C_16
REMARK    6  A    between atoms: C_16  and  C_17
REMARK                            x       y       z     vdW  Elec       q    Type
REMARK                         _______ _______ _______ _____ _____    ______ ____
ROOT
ATOM      1  N   UNL     1       2.606   4.889  20.531  0.00  0.00    +0.000 N 
ATOM      2  C   UNL     1       1.871   6.095  20.561  0.00  0.00    +0.000 C 
ATOM      3  O   UNL     1       1.009   6.393  21.376  0.00  0.00    +0.000 OA
ATOM      4  C   UNL     1       2.389   6.808  19.409  0.00  0.00    +0.000 A 
ATOM      5  C   UNL     1       2.052   8.065  18.919  0.00  0.00    +0.000 A 
ATOM      6  C   UNL     1       2.715   8.485  17.760  0.00  0.00    +0.000 A 
ATOM      7  C   UNL     1       3.688   7.682  17.126  0.00  0.00    +0.000 A 
ATOM      8  C   UNL     1       4.040   6.402  17.636  0.00  0.00    +0.000 A 
ATOM      9  C   UNL     1       4.980   5.428  17.190  0.00  0.00    +0.000 A 
ATOM     10  C   UNL     1       5.143   4.201  17.892  0.00  0.00    +0.000 A 
ATOM     11  C   UNL     1       4.387   3.887  19.035  0.00  0.00    +0.000 A 
ATOM     12  C   UNL     1       3.488   4.854  19.448  0.00  0.00    +0.000 A 
ATOM     13  C   UNL     1       3.347   6.043  18.761  0.00  0.00    +0.000 A 
ENDROOT
BRANCH   9  14
ATOM     14  S   UNL     1       6.107   5.728  15.835  0.00  0.00    +0.000 S 
ATOM     15  O   UNL     1       5.481   6.615  14.879  0.00  0.00    +0.000 OA
ATOM     16  O   UNL     1       7.383   6.063  16.431  0.00  0.00    +0.000 OA
BRANCH  14  17
ATOM     17  N   UNL     1       6.293   4.208  15.136  0.00  0.00    +0.000 NA
ATOM     18  H   UNL     1       5.423   3.673  15.122  0.00  0.00    +0.000 HD
BRANCH  17  19
ATOM     19  C   UNL     1       6.984   4.177  13.841  0.00  0.00    +0.000 C 
BRANCH  19  20
ATOM     20  C   UNL     1       6.063   3.586  12.834  0.00  0.00    +0.000 A 
ATOM     21  C   UNL     1       4.782   3.891  12.418  0.00  0.00    +0.000 A 
ATOM     22  C   UNL     1       4.434   2.918  11.450  0.00  0.00    +0.000 A 
ATOM     23  C   UNL     1       5.526   2.090  11.328  0.00  0.00    +0.000 A 
ATOM     24  O   UNL     1       6.524   2.494  12.156  0.00  0.00    +0.000 OA
ENDBRANCH  19  20
ENDBRANCH  17  19
ENDBRANCH  14  17
ENDBRANCH   9  14
BRANCH   1  26
ATOM     25  C   UNL     1       1.378   2.789  20.868  0.00  0.00    +0.000 C 
ATOM     26  C   UNL     1       2.346   3.805  21.453  0.00  0.00    +0.000 C 
ENDBRANCH   1  26
TORSDOF 5
ENDMDL
MODEL 5
REMARK VINA RESULT:      -7.4      3.239      4.621
REMARK  Name = 
REMARK  6 active torsions:
REMARK  status: ('A' for Active; 'I' for Inactive)
REMARK    1  A    between atoms: C_1  and  C_2
REMARK    2  A    between atoms: C_2  and  N_3
REMARK    3  A    between atoms: C_11  and  S_12
REMARK    4  A    between atoms: S_12  and  N_15
REMARK    5  A    between atoms: N_15  and  C_16
REMARK    6  A    between atoms: C_16  and  C_17
REMARK                            x       y       z     vdW  Elec       q    Type
REMARK                         _______ _______ _______ _____ _____    ______ ____
ROOT
ATOM      1  N   UNL     1       1.060   7.969  20.668  0.00  0.00    +0.000 N 
ATOM      2  C   UNL     1       1.334   8.920  19.660  0.00  0.00    +0.000 C 
ATOM      3  O   UNL     1       0.880  10.054  19.598  0.00  0.00    +0.000 OA
ATOM      4  C   UNL     1       2.225   8.194  18.776  0.00  0.00    +0.000 A 
ATOM      5  C   UNL     1       2.839   8.610  17.600  0.00  0.00    +0.000 A 
ATOM      6  C   UNL     1       3.640   7.667  16.943  0.00  0.00    +0.000 A 
ATOM      7  C   UNL     1       3.830   6.365  17.454  0.00  0.00    +0.000 A 
ATOM      8  C   UNL     1       3.211   5.946  18.664  0.00  0.00    +0.000 A 
ATOM      9  C   UNL     1       3.256   4.712  19.376  0.00  0.00    +0.000 A 
ATOM     10  C   UNL     1       2.528   4.547  20.588  0.00  0.00    +0.000 A 
ATOM     11  C   UNL     1       1.732   5.571  21.129  0.00  0.00    +0.000 A 
ATOM     12  C   UNL     1       1.713   6.758  20.420  0.00  0.00    +0.000 A 
ATOM     13  C   UNL     1       2.430   6.907  19.251  0.00  0.00    +0.000 A 
ENDROOT
BRANCH   9  14
ATOM     14  S   UNL     1       4.321   3.362  18.893  0.00  0.00    +0.000 S 
ATOM     15  O   UNL     1       4.194   2.284  19.849  0.00  0.00    +0.000 OA
ATOM     16  O   UNL     1       4.081   3.134  17.484  0.00  0.00    +0.000 OA
BRANCH  14  17
ATOM     17  N   UNL     1       5.867   4.021  19.011  0.00  0.00    +0.000 NA
ATOM     18  H   UNL     1       6.480   3.477  19.620  0.00  0.00    +0.000 HD
BRANCH  17  19
ATOM     19  C   UNL     1       6.515   4.370  17.741  0.00  0.00    +0.000 C 
BRANCH  19  20
ATOM     20  C   UNL     1       7.170   5.695  17.900  0.00  0.00    +0.000 A 
ATOM     21  C   UNL     1       7.890   6.287  18.919  0.00  0.00    +0.000 A 
ATOM     22  C   UNL     1       8.211   7.593  18.476  0.00  0.00    +0.000 A 
ATOM     23  C   UNL     1       7.679   7.711  17.213  0.00  0.00    +0.000 A 
ATOM     24  O   UNL     1       7.055   6.561  16.850  0.00  0.00    +0.000 OA
ENDBRANCH  19  20
ENDBRANCH  17  19
ENDBRANCH  14  17
ENDBRANCH   9  14
BRANCH   1  26
ATOM     25  C   UNL     1       0.648   9.242  22.728  0.00  0.00    +0.000 C 
ATOM     26  C   UNL     1       0.114   8.224  21.732  0.00  0.00    +0.000 C 
ENDBRANCH   1  26
TORSDOF 5
ENDMDL
MODEL 6
REMARK VINA RESULT:      -7.2      4.167      7.182
REMARK  Name = 
REMARK  6 active torsions:
REMARK  status: ('A' for Active; 'I' for Inactive)
REMARK    1  A    between atoms: C_1  and  C_2
REMARK    2  A    between atoms: C_2  and  N_3
REMARK    3  A    between atoms: C_11  and  S_12
REMARK    4  A    between atoms: S_12  and  N_15
REMARK    5  A    between atoms: N_15  and  C_16
REMARK    6  A    between atoms: C_16  and  C_17
REMARK                            x       y       z     vdW  Elec       q    Type
REMARK                         _______ _______ _______ _____ _____    ______ ____
ROOT
ATOM      1  N   UNL     1       2.694   4.616  20.270  0.00  0.00    +0.000 N 
ATOM      2  C   UNL     1       3.587   4.257  19.237  0.00  0.00    +0.000 C 
ATOM      3  O   UNL     1       4.150   3.178  19.113  0.00  0.00    +0.000 OA
ATOM      4  C   UNL     1       3.650   5.468  18.441  0.00  0.00    +0.000 A 
ATOM      5  C   UNL     1       4.370   5.729  17.280  0.00  0.00    +0.000 A 
ATOM      6  C   UNL     1       4.247   7.016  16.741  0.00  0.00    +0.000 A 
ATOM      7  C   UNL     1       3.423   7.996  17.335  0.00  0.00    +0.000 A 
ATOM      8  C   UNL     1       2.678   7.723  18.516  0.00  0.00    +0.000 A 
ATOM      9  C   UNL     1       1.786   8.527  19.283  0.00  0.00    +0.000 A 
ATOM     10  C   UNL     1       1.158   8.005  20.448  0.00  0.00    +0.000 A 
ATOM     11  C   UNL     1       1.392   6.695  20.901  0.00  0.00    +0.000 A 
ATOM     12  C   UNL     1       2.256   5.936  20.133  0.00  0.00    +0.000 A 
ATOM     13  C   UNL     1       2.852   6.454  19.001  0.00  0.00    +0.000 A 
ENDROOT
BRANCH   9  14
ATOM     14  S   UNL     1       1.283  10.163  18.770  0.00  0.00    +0.000 S 
ATOM     15  O   UNL     1       0.874  10.925  19.929  0.00  0.00    +0.000 OA
ATOM     16  O   UNL     1       2.323  10.654  17.890  0.00  0.00    +0.000 OA
BRANCH  14  17
ATOM     17  N   UNL     1      -0.062   9.873  17.799  0.00  0.00    +0.000 NA
ATOM     18  H   UNL     1      -0.032   8.957  17.350  0.00  0.00    +0.000 HD
BRANCH  17  19
ATOM     19  C   UNL     1      -1.368  10.147  18.413  0.00  0.00    +0.000 C 
BRANCH  19  20
ATOM     20  C   UNL     1      -2.356  10.378  17.326  0.00  0.00    +0.000 A 
ATOM     21  C   UNL     1      -2.536   9.834  16.069  0.00  0.00    +0.000 A 
ATOM     22  C   UNL     1      -3.638  10.511  15.495  0.00  0.00    +0.000 A 
ATOM     23  C   UNL     1      -4.068  11.415  16.439  0.00  0.00    +0.000 A 
ATOM     24  O   UNL     1      -3.302  11.334  17.558  0.00  0.00    +0.000 OA
ENDBRANCH  19  20
ENDBRANCH  17  19
ENDBRANCH  14  17
ENDBRANCH   9  14
BRANCH   1  26
ATOM     25  C   UNL     1       1.176   2.877  21.108  0.00  0.00    +0.000 C 
ATOM     26  C   UNL     1       2.403   3.733  21.379  0.00  0.00    +0.000 C 
ENDBRANCH   1  26
TORSDOF 5
ENDMDL
MODEL 7
REMARK VINA RESULT:      -7.2      3.631      7.815
REMARK  Name = 
REMARK  6 active torsions:
REMARK  status: ('A' for Active; 'I' for Inactive)
REMARK    1  A    between atoms: C_1  and  C_2
REMARK    2  A    between atoms: C_2  and  N_3
REMARK    3  A    between atoms: C_11  and  S_12
REMARK    4  A    between atoms: S_12  and  N_15
REMARK    5  A    between atoms: N_15  and  C_16
REMARK    6  A    between atoms: C_16  and  C_17
REMARK                            x       y       z     vdW  Elec       q    Type
REMARK                         _______ _______ _______ _____ _____    ______ ____
ROOT
ATOM      1  N   UNL     1       4.152   5.414  17.358  0.00  0.00    +0.000 N 
ATOM      2  C   UNL     1       4.062   4.143  17.969  0.00  0.00    +0.000 C 
ATOM      3  O   UNL     1       4.594   3.115  17.574  0.00  0.00    +0.000 OA
ATOM      4  C   UNL     1       3.197   4.400  19.104  0.00  0.00    +0.000 A 
ATOM      5  C   UNL     1       2.744   3.529  20.088  0.00  0.00    +0.000 A 
ATOM      6  C   UNL     1       1.890   4.067  21.058  0.00  0.00    +0.000 A 
ATOM      7  C   UNL     1       1.518   5.429  21.050  0.00  0.00    +0.000 A 
ATOM      8  C   UNL     1       1.993   6.321  20.049  0.00  0.00    +0.000 A 
ATOM      9  C   UNL     1       1.773   7.714  19.837  0.00  0.00    +0.000 A 
ATOM     10  C   UNL     1       2.376   8.384  18.736  0.00  0.00    +0.000 A 
ATOM     11  C   UNL     1       3.196   7.715  17.810  0.00  0.00    +0.000 A 
ATOM     12  C   UNL     1       3.396   6.367  18.046  0.00  0.00    +0.000 A 
ATOM     13  C   UNL     1       2.811   5.732  19.122  0.00  0.00    +0.000 A 
ENDROOT
BRANCH   9  14
ATOM     14  S   UNL     1       0.867   8.731  20.993  0.00  0.00    +0.000 S 
ATOM     15  O   UNL     1      -0.440   8.155  21.218  0.00  0.00    +0.000 OA
ATOM     16  O   UNL     1       1.763   8.991  22.100  0.00  0.00    +0.000 OA
BRANCH  14  17
ATOM     17  N   UNL     1       0.689  10.192  20.173  0.00  0.00    +0.000 NA
ATOM     18  H   UNL     1       0.984  10.133  19.198  0.00  0.00    +0.000 HD
BRANCH  17  19
ATOM     19  C   UNL     1      -0.612  10.857  20.320  0.00  0.00    +0.000 C 
BRANCH  19  20
ATOM     20  C   UNL     1      -1.328  10.774  19.020  0.00  0.00    +0.000 A 
ATOM     21  C   UNL     1      -1.127  10.046  17.864  0.00  0.00    +0.000 A 
ATOM     22  C   UNL     1      -2.135  10.450  16.956  0.00  0.00    +0.000 A 
ATOM     23  C   UNL     1      -2.893  11.388  17.617  0.00  0.00    +0.000 A 
ATOM     24  O   UNL     1      -2.418  11.584  18.874  0.00  0.00    +0.000 OA
ENDBRANCH  19  20
ENDBRANCH  17  19
ENDBRANCH  14  17
ENDBRANCH   9  14
BRANCH   1  26
ATOM     25  C   UNL     1       6.314   5.951  16.325  0.00  0.00    +0.000 C 
ATOM     26  C   UNL     1       4.846   5.620  16.105  0.00  0.00    +0.000 C 
ENDBRANCH   1  26
TORSDOF 5
ENDMDL
MODEL 8
REMARK VINA RESULT:      -7.1      2.167      6.785
REMARK  Name = 
REMARK  6 active torsions:
REMARK  status: ('A' for Active; 'I' for Inactive)
REMARK    1  A    between atoms: C_1  and  C_2
REMARK    2  A    between atoms: C_2  and  N_3
REMARK    3  A    between atoms: C_11  and  S_12
REMARK    4  A    between atoms: S_12  and  N_15
REMARK    5  A    between atoms: N_15  and  C_16
REMARK    6  A    between atoms: C_16  and  C_17
REMARK                            x       y       z     vdW  Elec       q    Type
REMARK                         _______ _______ _______ _____ _____    ______ ____
ROOT
ATOM      1  N   UNL     1       5.711   4.387  14.994  0.00  0.00    +0.000 N 
ATOM      2  C   UNL     1       6.905   5.001  15.429  0.00  0.00    +0.000 C 
ATOM      3  O   UNL     1       7.861   5.298  14.726  0.00  0.00    +0.000 OA
ATOM      4  C   UNL     1       6.685   5.142  16.856  0.00  0.00    +0.000 A 
ATOM      5  C   UNL     1       7.513   5.686  17.831  0.00  0.00    +0.000 A 
ATOM      6  C   UNL     1       7.032   5.664  19.146  0.00  0.00    +0.000 A 
ATOM      7  C   UNL     1       5.765   5.131  19.467  0.00  0.00    +0.000 A 
ATOM      8  C   UNL     1       4.914   4.587  18.466  0.00  0.00    +0.000 A 
ATOM      9  C   UNL     1       3.612   4.012  18.537  0.00  0.00    +0.000 A 
ATOM     10  C   UNL     1       2.967   3.530  17.363  0.00  0.00    +0.000 A 
ATOM     11  C   UNL     1       3.576   3.585  16.098  0.00  0.00    +0.000 A 
ATOM     12  C   UNL     1       4.836   4.155  16.059  0.00  0.00    +0.000 A 
ATOM     13  C   UNL     1       5.446   4.625  17.204  0.00  0.00    +0.000 A 
ENDROOT
BRANCH   9  14
ATOM     14  S   UNL     1       2.652   3.988  20.043  0.00  0.00    +0.000 S 
ATOM     15  O   UNL     1       1.251   3.833  19.717  0.00  0.00    +0.000 OA
ATOM     16  O   UNL     1       3.312   3.058  20.935  0.00  0.00    +0.000 OA
BRANCH  14  17
ATOM     17  N   UNL     1       2.899   5.523  20.690  0.00  0.00    +0.000 NA
ATOM     18  H   UNL     1       3.740   5.972  20.325  0.00  0.00    +0.000 HD
BRANCH  17  19
ATOM     19  C   UNL     1       1.738   6.422  20.670  0.00  0.00    +0.000 C 
BRANCH  19  20
ATOM     20  C   UNL     1       1.926   7.404  19.569  0.00  0.00    +0.000 A 
ATOM     21  C   UNL     1       2.609   7.373  18.370  0.00  0.00    +0.000 A 
ATOM     22  C   UNL     1       2.441   8.649  17.780  0.00  0.00    +0.000 A 
ATOM     23  C   UNL     1       1.657   9.372  18.649  0.00  0.00    +0.000 A 
ATOM     24  O   UNL     1       1.330   8.622  19.732  0.00  0.00    +0.000 OA
ENDBRANCH  19  20
ENDBRANCH  17  19
ENDBRANCH  14  17
ENDBRANCH   9  14
BRANCH   1  26
ATOM     25  C   UNL     1       6.839   3.873  12.874  0.00  0.00    +0.000 C 
ATOM     26  C   UNL     1       5.520   3.955  13.626  0.00  0.00    +0.000 C 
ENDBRANCH   1  26
TORSDOF 5
ENDMDL
MODEL 9
REMARK VINA RESULT:      -7.0      3.774      7.847
REMARK  Name = 
REMARK  6 active torsions:
REMARK  status: ('A' for Active; 'I' for Inactive)
REMARK    1  A    between atoms: C_1  and  C_2
REMARK    2  A    between atoms: C_2  and  N_3
REMARK    3  A    between atoms: C_11  and  S_12
REMARK    4  A    between atoms: S_12  and  N_15
REMARK    5  A    between atoms: N_15  and  C_16
REMARK    6  A    between atoms: C_16  and  C_17
REMARK                            x       y       z     vdW  Elec       q    Type
REMARK                         _______ _______ _______ _____ _____    ______ ____
ROOT
ATOM      1  N   UNL     1       2.989   4.239  20.225  0.00  0.00    +0.000 N 
ATOM      2  C   UNL     1       3.953   3.843  19.272  0.00  0.00    +0.000 C 
ATOM      3  O   UNL     1       4.552   2.776  19.254  0.00  0.00    +0.000 OA
ATOM      4  C   UNL     1       4.031   5.001  18.403  0.00  0.00    +0.000 A 
ATOM      5  C   UNL     1       4.813   5.209  17.272  0.00  0.00    +0.000 A 
ATOM      6  C   UNL     1       4.688   6.454  16.643  0.00  0.00    +0.000 A 
ATOM      7  C   UNL     1       3.803   7.444  17.121  0.00  0.00    +0.000 A 
ATOM      8  C   UNL     1       2.995   7.224  18.271  0.00  0.00    +0.000 A 
ATOM      9  C   UNL     1       2.036   8.048  18.930  0.00  0.00    +0.000 A 
ATOM     10  C   UNL     1       1.353   7.582  20.088  0.00  0.00    +0.000 A 
ATOM     11  C   UNL     1       1.594   6.312  20.639  0.00  0.00    +0.000 A 
ATOM     12  C   UNL     1       2.524   5.534  19.975  0.00  0.00    +0.000 A 
ATOM     13  C   UNL     1       3.173   5.995  18.849  0.00  0.00    +0.000 A 
ENDROOT
BRANCH   9  14
ATOM     14  S   UNL     1       1.520   9.631  18.280  0.00  0.00    +0.000 S 
ATOM     15  O   UNL     1       2.651  10.286  17.659  0.00  0.00    +0.000 OA
ATOM     16  O   UNL     1       0.302   9.392  17.536  0.00  0.00    +0.000 OA
BRANCH  14  17
ATOM     17  N   UNL     1       1.074  10.493  19.657  0.00  0.00    +0.000 NA
ATOM     18  H   UNL     1       1.745  11.225  19.896  0.00  0.00    +0.000 HD
BRANCH  17  19
ATOM     19  C   UNL     1      -0.311  10.977  19.691  0.00  0.00    +0.000 C 
BRANCH  19  20
ATOM     20  C   UNL     1      -0.747  11.048  21.110  0.00  0.00    +0.000 A 
ATOM     21  C   UNL     1      -1.425  11.994  21.854  0.00  0.00    +0.000 A 
ATOM     22  C   UNL     1      -1.494  11.489  23.175  0.00  0.00    +0.000 A 
ATOM     23  C   UNL     1      -0.867  10.264  23.152  0.00  0.00    +0.000 A 
ATOM     24  O   UNL     1      -0.420   9.983  21.901  0.00  0.00    +0.000 OA
ENDBRANCH  19  20
ENDBRANCH  17  19
ENDBRANCH  14  17
ENDBRANCH   9  14
BRANCH   1  26
ATOM     25  C   UNL     1       1.272   2.803  21.236  0.00  0.00    +0.000 C 
ATOM     26  C   UNL     1       2.655   3.421  21.371  0.00  0.00    +0.000 C 
ENDBRANCH   1  26
TORSDOF 5
ENDMDL
