MODEL 1
REMARK VINA RESULT:      -6.8      0.000      0.000
REMARK  Name = 
REMARK  9 active torsions:
REMARK  status: ('A' for Active; 'I' for Inactive)
REMARK    1  A    between atoms: C_1  and  C_2
REMARK    2  A    between atoms: C_2  and  O_3
REMARK    3  A    between atoms: O_3  and  C_4
REMARK    4  A    between atoms: C_4  and  C_6
REMARK    5  A    between atoms: C_6  and  N_7
REMARK    6  A    between atoms: C_8  and  S_9
REMARK    7  A    between atoms: N_10  and  C_11
REMARK    8  A    between atoms: N_10  and  C_17
REMARK    9  A    between atoms: C_11  and  C_12
REMARK                            x       y       z     vdW  Elec       q    Type
REMARK                         _______ _______ _______ _____ _____    ______ ____
ROOT
ATOM      1  N   UNL     1       6.005   5.500  18.885  0.00  0.00    +0.000 NA
ATOM      2  C   UNL     1       5.147   4.830  18.204  0.00  0.00    +0.000 C 
ATOM      3  N   UNL     1       3.822   4.752  18.622  0.00  0.00    +0.000 N 
ENDROOT
BRANCH   3   4
ATOM      4  C   UNL     1       2.972   3.573  18.377  0.00  0.00    +0.000 C 
ATOM      5  C   UNL     1       2.933   2.574  19.538  0.00  0.00    +0.000 C 
ATOM      6  C   UNL     1       1.594   1.868  19.392  0.00  0.00    +0.000 C 
ATOM      7  C   UNL     1       0.662   2.844  18.684  0.00  0.00    +0.000 C 
ATOM      8  C   UNL     1       1.520   3.970  18.121  0.00  0.00    +0.000 C 
ENDBRANCH   3   4
BRANCH   2   9
ATOM      9  S   UNL     1       5.560   4.007  16.694  0.00  0.00    +0.000 S 
ATOM     10  H   UNL     1       5.831   2.807  17.224  0.00  0.00    +0.000 HD
ENDBRANCH   2   9
BRANCH   1  11
ATOM     11  C   UNL     1       7.423   5.612  18.558  0.00  0.00    +0.000 C 
BRANCH  11  12
ATOM     12  C   UNL     1       7.696   6.842  17.709  0.00  0.00    +0.000 C 
ATOM     13  O   UNL     1       7.566   6.893  16.492  0.00  0.00    +0.000 OA
BRANCH  12  14
ATOM     14  O   UNL     1       8.224   7.832  18.488  0.00  0.00    +0.000 OA
BRANCH  14  16
ATOM     15  C   UNL     1       9.067  10.043  18.796  0.00  0.00    +0.000 C 
ATOM     16  C   UNL     1       8.186   9.154  17.937  0.00  0.00    +0.000 C 
ENDBRANCH  14  16
ENDBRANCH  12  14
ENDBRANCH  11  12
ENDBRANCH   1  11
BRANCH   3  17
ATOM     17  C   UNL     1       3.333   5.736  19.610  0.00  0.00    +0.000 C 
BRANCH  17  18
ATOM     18  C   UNL     1       2.732   7.025  19.102  0.00  0.00    +0.000 A 
ATOM     19  C   UNL     1       2.840   7.646  17.873  0.00  0.00    +0.000 A 
ATOM     20  C   UNL     1       2.116   8.877  17.818  0.00  0.00    +0.000 A 
ATOM     21  C   UNL     1       1.455   9.139  18.996  0.00  0.00    +0.000 A 
ATOM     22  S   UNL     1       1.714   7.924  20.163  0.00  0.00    +0.000 S 
ENDBRANCH  17  18
ENDBRANCH   3  17
TORSDOF 8
ENDMDL
MODEL 2
REMARK VINA RESULT:      -6.5      2.865      5.247
REMARK  Name = 
REMARK  9 active torsions:
REMARK  status: ('A' for Active; 'I' for Inactive)
REMARK    1  A    between atoms: C_1  and  C_2
REMARK    2  A    between atoms: C_2  and  O_3
REMARK    3  A    between atoms: O_3  and  C_4
REMARK    4  A    between atoms: C_4  and  C_6
REMARK    5  A    between atoms: C_6  and  N_7
REMARK    6  A    between atoms: C_8  and  S_9
REMARK    7  A    between atoms: N_10  and  C_11
REMARK    8  A    between atoms: N_10  and  C_17
REMARK    9  A    between atoms: C_11  and  C_12
REMARK                            x       y       z     vdW  Elec       q    Type
REMARK                         _______ _______ _______ _____ _____    ______ ____
ROOT
ATOM      1  N   UNL     1       5.000   4.236  16.565  0.00  0.00    +0.000 NA
ATOM      2  C   UNL     1       4.970   5.209  17.402  0.00  0.00    +0.000 C 
ATOM      3  N   UNL     1       3.767   5.606  17.977  0.00  0.00    +0.000 N 
ENDROOT
BRANCH   3   4
ATOM      4  C   UNL     1       3.482   7.000  18.360  0.00  0.00    +0.000 C 
ATOM      5  C   UNL     1       2.879   7.850  17.237  0.00  0.00    +0.000 C 
ATOM      6  C   UNL     1       2.085   8.930  17.957  0.00  0.00    +0.000 C 
ATOM      7  C   UNL     1       1.674   8.344  19.302  0.00  0.00    +0.000 C 
ATOM      8  C   UNL     1       2.490   7.075  19.518  0.00  0.00    +0.000 C 
ENDBRANCH   3   4
BRANCH   2   9
ATOM      9  S   UNL     1       6.425   6.076  17.912  0.00  0.00    +0.000 S 
ATOM     10  H   UNL     1       6.143   7.243  17.319  0.00  0.00    +0.000 HD
ENDBRANCH   2   9
BRANCH   1  11
ATOM     11  C   UNL     1       6.199   3.768  15.875  0.00  0.00    +0.000 C 
BRANCH  11  12
ATOM     12  C   UNL     1       6.437   4.550  14.595  0.00  0.00    +0.000 C 
ATOM     13  O   UNL     1       7.314   5.391  14.443  0.00  0.00    +0.000 OA
BRANCH  12  14
ATOM     14  O   UNL     1       5.455   4.262  13.689  0.00  0.00    +0.000 OA
BRANCH  14  16
ATOM     15  C   UNL     1       4.619   3.225  11.710  0.00  0.00    +0.000 C 
ATOM     16  C   UNL     1       5.843   3.441  12.580  0.00  0.00    +0.000 C 
ENDBRANCH  14  16
ENDBRANCH  12  14
ENDBRANCH  11  12
ENDBRANCH   1  11
BRANCH   3  17
ATOM     17  C   UNL     1       2.617   4.679  17.923  0.00  0.00    +0.000 C 
BRANCH  17  18
ATOM     18  C   UNL     1       2.246   3.921  19.176  0.00  0.00    +0.000 A 
ATOM     19  C   UNL     1       1.020   3.727  19.782  0.00  0.00    +0.000 A 
ATOM     20  C   UNL     1       1.119   2.951  20.977  0.00  0.00    +0.000 A 
ATOM     21  C   UNL     1       2.412   2.554  21.228  0.00  0.00    +0.000 A 
ATOM     22  S   UNL     1       3.499   3.120  20.044  0.00  0.00    +0.000 S 
ENDBRANCH  17  18
ENDBRANCH   3  17
TORSDOF 8
ENDMDL
MODEL 3
REMARK VINA RESULT:      -6.3      1.589      2.445
REMARK  Name = 
REMARK  9 active torsions:
REMARK  status: ('A' for Active; 'I' for Inactive)
REMARK    1  A    between atoms: C_1  and  C_2
REMARK    2  A    between atoms: C_2  and  O_3
REMARK    3  A    between atoms: O_3  and  C_4
REMARK    4  A    between atoms: C_4  and  C_6
REMARK    5  A    between atoms: C_6  and  N_7
REMARK    6  A    between atoms: C_8  and  S_9
REMARK    7  A    between atoms: N_10  and  C_11
REMARK    8  A    between atoms: N_10  and  C_17
REMARK    9  A    between atoms: C_11  and  C_12
REMARK                            x       y       z     vdW  Elec       q    Type
REMARK                         _______ _______ _______ _____ _____    ______ ____
ROOT
ATOM      1  N   UNL     1       5.811   5.302  18.629  0.00  0.00    +0.000 NA
ATOM      2  C   UNL     1       4.792   4.543  18.444  0.00  0.00    +0.000 C 
ATOM      3  N   UNL     1       3.647   4.698  19.220  0.00  0.00    +0.000 N 
ENDROOT
BRANCH   3   4
ATOM      4  C   UNL     1       2.764   3.576  19.581  0.00  0.00    +0.000 C 
ATOM      5  C   UNL     1       2.530   3.419  21.087  0.00  0.00    +0.000 C 
ATOM      6  C   UNL     1       1.178   2.731  21.197  0.00  0.00    +0.000 C 
ATOM      7  C   UNL     1       0.395   3.110  19.945  0.00  0.00    +0.000 C 
ATOM      8  C   UNL     1       1.378   3.728  18.959  0.00  0.00    +0.000 C 
ENDBRANCH   3   4
BRANCH   2   9
ATOM      9  S   UNL     1       4.745   3.296  17.191  0.00  0.00    +0.000 S 
ATOM     10  H   UNL     1       6.058   3.271  16.928  0.00  0.00    +0.000 HD
ENDBRANCH   2   9
BRANCH   1  11
ATOM     11  C   UNL     1       7.071   5.195  17.900  0.00  0.00    +0.000 C 
BRANCH  11  12
ATOM     12  C   UNL     1       7.141   6.210  16.772  0.00  0.00    +0.000 C 
ATOM     13  O   UNL     1       6.923   7.409  16.896  0.00  0.00    +0.000 OA
BRANCH  12  14
ATOM     14  O   UNL     1       7.360   5.567  15.586  0.00  0.00    +0.000 OA
BRANCH  14  16
ATOM     15  C   UNL     1       6.446   4.123  13.920  0.00  0.00    +0.000 C 
ATOM     16  C   UNL     1       6.208   5.367  14.757  0.00  0.00    +0.000 C 
ENDBRANCH  14  16
ENDBRANCH  12  14
ENDBRANCH  11  12
ENDBRANCH   1  11
BRANCH   3  17
ATOM     17  C   UNL     1       3.468   5.959  19.971  0.00  0.00    +0.000 C 
BRANCH  17  18
ATOM     18  C   UNL     1       2.763   7.108  19.288  0.00  0.00    +0.000 A 
ATOM     19  C   UNL     1       2.813   7.544  17.979  0.00  0.00    +0.000 A 
ATOM     20  C   UNL     1       1.994   8.692  17.754  0.00  0.00    +0.000 A 
ATOM     21  C   UNL     1       1.323   9.077  18.892  0.00  0.00    +0.000 A 
ATOM     22  S   UNL     1       1.685   8.073  20.222  0.00  0.00    +0.000 S 
ENDBRANCH  17  18
ENDBRANCH   3  17
TORSDOF 8
ENDMDL
MODEL 4
REMARK VINA RESULT:      -6.2      1.113      1.162
REMARK  Name = 
REMARK  9 active torsions:
REMARK  status: ('A' for Active; 'I' for Inactive)
REMARK    1  A    between atoms: C_1  and  C_2
REMARK    2  A    between atoms: C_2  and  O_3
REMARK    3  A    between atoms: O_3  and  C_4
REMARK    4  A    between atoms: C_4  and  C_6
REMARK    5  A    between atoms: C_6  and  N_7
REMARK    6  A    between atoms: C_8  and  S_9
REMARK    7  A    between atoms: N_10  and  C_11
REMARK    8  A    between atoms: N_10  and  C_17
REMARK    9  A    between atoms: C_11  and  C_12
REMARK                            x       y       z     vdW  Elec       q    Type
REMARK                         _______ _______ _______ _____ _____    ______ ____
ROOT
ATOM      1  N   UNL     1       5.685   6.496  17.663  0.00  0.00    +0.000 NA
ATOM      2  C   UNL     1       4.833   5.682  17.154  0.00  0.00    +0.000 C 
ATOM      3  N   UNL     1       3.709   5.295  17.878  0.00  0.00    +0.000 N 
ENDROOT
BRANCH   3   4
ATOM      4  C   UNL     1       3.082   3.969  17.738  0.00  0.00    +0.000 C 
ATOM      5  C   UNL     1       3.562   2.936  18.763  0.00  0.00    +0.000 C 
ATOM      6  C   UNL     1       2.405   1.956  18.891  0.00  0.00    +0.000 C 
ATOM      7  C   UNL     1       1.139   2.731  18.547  0.00  0.00    +0.000 C 
ATOM      8  C   UNL     1       1.566   4.043  17.902  0.00  0.00    +0.000 C 
ENDBRANCH   3   4
BRANCH   2   9
ATOM      9  S   UNL     1       4.991   5.033  15.516  0.00  0.00    +0.000 S 
ATOM     10  H   UNL     1       5.105   6.207  14.880  0.00  0.00    +0.000 HD
ENDBRANCH   2   9
BRANCH   1  11
ATOM     11  C   UNL     1       6.914   6.932  17.006  0.00  0.00    +0.000 C 
BRANCH  11  12
ATOM     12  C   UNL     1       7.917   7.467  18.014  0.00  0.00    +0.000 C 
ATOM     13  O   UNL     1       8.378   6.824  18.948  0.00  0.00    +0.000 OA
BRANCH  12  14
ATOM     14  O   UNL     1       8.126   8.799  17.793  0.00  0.00    +0.000 OA
BRANCH  14  16
ATOM     15  C   UNL     1       9.266  10.844  18.253  0.00  0.00    +0.000 C 
ATOM     16  C   UNL     1       8.839   9.502  18.818  0.00  0.00    +0.000 C 
ENDBRANCH  14  16
ENDBRANCH  12  14
ENDBRANCH  11  12
ENDBRANCH   1  11
BRANCH   3  17
ATOM     17  C   UNL     1       3.308   6.105  19.048  0.00  0.00    +0.000 C 
BRANCH  17  18
ATOM     18  C   UNL     1       2.538   7.382  18.806  0.00  0.00    +0.000 A 
ATOM     19  C   UNL     1       2.354   8.119  17.652  0.00  0.00    +0.000 A 
ATOM     20  C   UNL     1       1.560   9.286  17.870  0.00  0.00    +0.000 A 
ATOM     21  C   UNL     1       1.139   9.386  19.176  0.00  0.00    +0.000 A 
ATOM     22  S   UNL     1       1.705   8.095  20.135  0.00  0.00    +0.000 S 
ENDBRANCH  17  18
ENDBRANCH   3  17
TORSDOF 8
ENDMDL
MODEL 5
REMARK VINA RESULT:      -6.1      3.537      6.824
REMARK  Name = 
REMARK  9 active torsions:
REMARK  status: ('A' for Active; 'I' for Inactive)
REMARK    1  A    between atoms: C_1  and  C_2
REMARK    2  A    between atoms: C_2  and  O_3
REMARK    3  A    between atoms: O_3  and  C_4
REMARK    4  A    between atoms: C_4  and  C_6
REMARK    5  A    between atoms: C_6  and  N_7
REMARK    6  A    between atoms: C_8  and  S_9
REMARK    7  A    between atoms: N_10  and  C_11
REMARK    8  A    between atoms: N_10  and  C_17
REMARK    9  A    between atoms: C_11  and  C_12
REMARK                            x       y       z     vdW  Elec       q    Type
REMARK                         _______ _______ _______ _____ _____    ______ ____
ROOT
ATOM      1  N   UNL     1       2.942   4.005  17.613  0.00  0.00    +0.000 NA
ATOM      2  C   UNL     1       3.585   5.114  17.686  0.00  0.00    +0.000 C 
ATOM      3  N   UNL     1       4.962   5.143  17.494  0.00  0.00    +0.000 N 
ENDROOT
BRANCH   3   4
ATOM      4  C   UNL     1       5.847   6.106  18.173  0.00  0.00    +0.000 C 
ATOM      5  C   UNL     1       7.147   5.496  18.708  0.00  0.00    +0.000 C 
ATOM      6  C   UNL     1       8.131   6.655  18.737  0.00  0.00    +0.000 C 
ATOM      7  C   UNL     1       7.679   7.637  17.663  0.00  0.00    +0.000 C 
ATOM      8  C   UNL     1       6.271   7.237  17.240  0.00  0.00    +0.000 C 
ENDBRANCH   3   4
BRANCH   2   9
ATOM      9  S   UNL     1       2.786   6.663  17.986  0.00  0.00    +0.000 S 
ATOM     10  H   UNL     1       2.100   6.726  16.837  0.00  0.00    +0.000 HD
ENDBRANCH   2   9
BRANCH   1  11
ATOM     11  C   UNL     1       1.507   3.858  17.838  0.00  0.00    +0.000 C 
BRANCH  11  12
ATOM     12  C   UNL     1       1.210   2.684  18.755  0.00  0.00    +0.000 C 
ATOM     13  O   UNL     1       0.141   2.088  18.802  0.00  0.00    +0.000 OA
BRANCH  12  14
ATOM     14  O   UNL     1       2.267   2.478  19.596  0.00  0.00    +0.000 OA
BRANCH  14  16
ATOM     15  C   UNL     1       2.117   4.099  21.341  0.00  0.00    +0.000 C 
ATOM     16  C   UNL     1       1.995   2.626  20.995  0.00  0.00    +0.000 C 
ENDBRANCH  14  16
ENDBRANCH  12  14
ENDBRANCH  11  12
ENDBRANCH   1  11
BRANCH   3  17
ATOM     17  C   UNL     1       5.610   3.988  16.837  0.00  0.00    +0.000 C 
BRANCH  17  18
ATOM     18  C   UNL     1       5.890   4.068  15.355  0.00  0.00    +0.000 A 
ATOM     19  C   UNL     1       5.161   3.611  14.275  0.00  0.00    +0.000 A 
ATOM     20  C   UNL     1       5.803   3.883  13.028  0.00  0.00    +0.000 A 
ATOM     21  C   UNL     1       6.986   4.565  13.196  0.00  0.00    +0.000 A 
ATOM     22  S   UNL     1       7.328   4.864  14.839  0.00  0.00    +0.000 S 
ENDBRANCH  17  18
ENDBRANCH   3  17
TORSDOF 8
ENDMDL
MODEL 6
REMARK VINA RESULT:      -6.1      1.870      2.826
REMARK  Name = 
REMARK  9 active torsions:
REMARK  status: ('A' for Active; 'I' for Inactive)
REMARK    1  A    between atoms: C_1  and  C_2
REMARK    2  A    between atoms: C_2  and  O_3
REMARK    3  A    between atoms: O_3  and  C_4
REMARK    4  A    between atoms: C_4  and  C_6
REMARK    5  A    between atoms: C_6  and  N_7
REMARK    6  A    between atoms: C_8  and  S_9
REMARK    7  A    between atoms: N_10  and  C_11
REMARK    8  A    between atoms: N_10  and  C_17
REMARK    9  A    between atoms: C_11  and  C_12
REMARK                            x       y       z     vdW  Elec       q    Type
REMARK                         _______ _______ _______ _____ _____    ______ ____
ROOT
ATOM      1  N   UNL     1       5.255   5.933  18.607  0.00  0.00    +0.000 NA
ATOM      2  C   UNL     1       4.264   5.126  18.730  0.00  0.00    +0.000 C 
ATOM      3  N   UNL     1       2.959   5.608  18.734  0.00  0.00    +0.000 N 
ENDROOT
BRANCH   3   4
ATOM      4  C   UNL     1       1.870   4.972  19.496  0.00  0.00    +0.000 C 
ATOM      5  C   UNL     1       1.294   3.714  18.839  0.00  0.00    +0.000 C 
ATOM      6  C   UNL     1       0.738   2.897  19.995  0.00  0.00    +0.000 C 
ATOM      7  C   UNL     1       1.547   3.282  21.228  0.00  0.00    +0.000 C 
ATOM      8  C   UNL     1       2.333   4.541  20.886  0.00  0.00    +0.000 C 
ENDBRANCH   3   4
BRANCH   2   9
ATOM      9  S   UNL     1       4.469   3.374  18.858  0.00  0.00    +0.000 S 
ATOM     10  H   UNL     1       4.266   3.276  20.179  0.00  0.00    +0.000 HD
ENDBRANCH   2   9
BRANCH   1  11
ATOM     11  C   UNL     1       6.659   5.535  18.631  0.00  0.00    +0.000 C 
BRANCH  11  12
ATOM     12  C   UNL     1       7.360   5.909  17.336  0.00  0.00    +0.000 C 
ATOM     13  O   UNL     1       7.513   7.055  16.931  0.00  0.00    +0.000 OA
BRANCH  12  14
ATOM     14  O   UNL     1       7.677   4.777  16.641  0.00  0.00    +0.000 OA
BRANCH  14  16
ATOM     15  C   UNL     1       6.759   4.680  14.441  0.00  0.00    +0.000 C 
ATOM     16  C   UNL     1       6.619   4.193  15.871  0.00  0.00    +0.000 C 
ENDBRANCH  14  16
ENDBRANCH  12  14
ENDBRANCH  11  12
ENDBRANCH   1  11
BRANCH   3  17
ATOM     17  C   UNL     1       2.707   6.971  18.218  0.00  0.00    +0.000 C 
BRANCH  17  18
ATOM     18  C   UNL     1       1.996   7.958  19.114  0.00  0.00    +0.000 A 
ATOM     19  C   UNL     1       1.733   7.917  20.469  0.00  0.00    +0.000 A 
ATOM     20  C   UNL     1       1.010   9.063  20.920  0.00  0.00    +0.000 A 
ATOM     21  C   UNL     1       0.771   9.955  19.900  0.00  0.00    +0.000 A 
ATOM     22  S   UNL     1       1.399   9.412  18.411  0.00  0.00    +0.000 S 
ENDBRANCH  17  18
ENDBRANCH   3  17
TORSDOF 8
ENDMDL
MODEL 7
REMARK VINA RESULT:      -6.1      3.548      6.404
REMARK  Name = 
REMARK  9 active torsions:
REMARK  status: ('A' for Active; 'I' for Inactive)
REMARK    1  A    between atoms: C_1  and  C_2
REMARK    2  A    between atoms: C_2  and  O_3
REMARK    3  A    between atoms: O_3  and  C_4
REMARK    4  A    between atoms: C_4  and  C_6
REMARK    5  A    between atoms: C_6  and  N_7
REMARK    6  A    between atoms: C_8  and  S_9
REMARK    7  A    between atoms: N_10  and  C_11
REMARK    8  A    between atoms: N_10  and  C_17
REMARK    9  A    between atoms: C_11  and  C_12
REMARK                            x       y       z     vdW  Elec       q    Type
REMARK                         _______ _______ _______ _____ _____    ______ ____
ROOT
ATOM      1  N   UNL     1       1.867   7.666  20.262  0.00  0.00    +0.000 NA
ATOM      2  C   UNL     1       2.521   7.380  19.195  0.00  0.00    +0.000 C 
ATOM      3  N   UNL     1       3.279   6.215  19.125  0.00  0.00    +0.000 N 
ENDROOT
BRANCH   3   4
ATOM      4  C   UNL     1       4.516   6.109  18.332  0.00  0.00    +0.000 C 
ATOM      5  C   UNL     1       5.671   5.413  19.060  0.00  0.00    +0.000 C 
ATOM      6  C   UNL     1       6.531   4.832  17.947  0.00  0.00    +0.000 C 
ATOM      7  C   UNL     1       5.603   4.585  16.764  0.00  0.00    +0.000 C 
ATOM      8  C   UNL     1       4.296   5.316  17.047  0.00  0.00    +0.000 C 
ENDBRANCH   3   4
BRANCH   2   9
ATOM      9  S   UNL     1       2.480   8.396  17.748  0.00  0.00    +0.000 S 
ATOM     10  H   UNL     1       3.242   9.392  18.220  0.00  0.00    +0.000 HD
ENDBRANCH   2   9
BRANCH   1  11
ATOM     11  C   UNL     1       1.077   8.878  20.454  0.00  0.00    +0.000 C 
BRANCH  11  12
ATOM     12  C   UNL     1       0.928   9.210  21.929  0.00  0.00    +0.000 C 
ATOM     13  O   UNL     1       1.861   9.372  22.706  0.00  0.00    +0.000 OA
BRANCH  12  14
ATOM     14  O   UNL     1      -0.393   9.178  22.277  0.00  0.00    +0.000 OA
BRANCH  14  16
ATOM     15  C   UNL     1      -1.052  11.456  22.547  0.00  0.00    +0.000 C 
ATOM     16  C   UNL     1      -0.809  10.137  23.258  0.00  0.00    +0.000 C 
ENDBRANCH  14  16
ENDBRANCH  12  14
ENDBRANCH  11  12
ENDBRANCH   1  11
BRANCH   3  17
ATOM     17  C   UNL     1       3.023   5.143  20.110  0.00  0.00    +0.000 C 
BRANCH  17  18
ATOM     18  C   UNL     1       2.297   3.901  19.648  0.00  0.00    +0.000 A 
ATOM     19  C   UNL     1       0.951   3.665  19.455  0.00  0.00    +0.000 A 
ATOM     20  C   UNL     1       0.688   2.329  19.022  0.00  0.00    +0.000 A 
ATOM     21  C   UNL     1       1.845   1.599  18.871  0.00  0.00    +0.000 A 
ATOM     22  S   UNL     1       3.233   2.509  19.259  0.00  0.00    +0.000 S 
ENDBRANCH  17  18
ENDBRANCH   3  17
TORSDOF 8
ENDMDL
MODEL 8
REMARK VINA RESULT:      -6.0      2.110      2.909
REMARK  Name = 
REMARK  9 active torsions:
REMARK  status: ('A' for Active; 'I' for Inactive)
REMARK    1  A    between atoms: C_1  and  C_2
REMARK    2  A    between atoms: C_2  and  O_3
REMARK    3  A    between atoms: O_3  and  C_4
REMARK    4  A    between atoms: C_4  and  C_6
REMARK    5  A    between atoms: C_6  and  N_7
REMARK    6  A    between atoms: C_8  and  S_9
REMARK    7  A    between atoms: N_10  and  C_11
REMARK    8  A    between atoms: N_10  and  C_17
REMARK    9  A    between atoms: C_11  and  C_12
REMARK                            x       y       z     vdW  Elec       q    Type
REMARK                         _______ _______ _______ _____ _____    ______ ____
ROOT
ATOM      1  N   UNL     1       5.157   5.832  17.629  0.00  0.00    +0.000 NA
ATOM      2  C   UNL     1       4.196   4.984  17.710  0.00  0.00    +0.000 C 
ATOM      3  N   UNL     1       3.348   4.986  18.813  0.00  0.00    +0.000 N 
ENDROOT
BRANCH   3   4
ATOM      4  C   UNL     1       2.716   3.764  19.342  0.00  0.00    +0.000 C 
ATOM      5  C   UNL     1       3.140   3.404  20.769  0.00  0.00    +0.000 C 
ATOM      6  C   UNL     1       1.971   2.608  21.328  0.00  0.00    +0.000 C 
ATOM      7  C   UNL     1       0.728   3.080  20.583  0.00  0.00    +0.000 C 
ATOM      8  C   UNL     1       1.195   3.888  19.379  0.00  0.00    +0.000 C 
ENDBRANCH   3   4
BRANCH   2   9
ATOM      9  S   UNL     1       3.854   3.803  16.440  0.00  0.00    +0.000 S 
ATOM     10  H   UNL     1       3.295   2.870  17.223  0.00  0.00    +0.000 HD
ENDBRANCH   2   9
BRANCH   1  11
ATOM     11  C   UNL     1       6.126   5.888  16.538  0.00  0.00    +0.000 C 
BRANCH  11  12
ATOM     12  C   UNL     1       7.128   4.750  16.632  0.00  0.00    +0.000 C 
ATOM     13  O   UNL     1       7.922   4.593  17.551  0.00  0.00    +0.000 OA
BRANCH  12  14
ATOM     14  O   UNL     1       7.092   4.009  15.485  0.00  0.00    +0.000 OA
BRANCH  14  16
ATOM     15  C   UNL     1       6.208   3.759  13.283  0.00  0.00    +0.000 C 
ATOM     16  C   UNL     1       6.816   4.730  14.278  0.00  0.00    +0.000 C 
ENDBRANCH  14  16
ENDBRANCH  12  14
ENDBRANCH  11  12
ENDBRANCH   1  11
BRANCH   3  17
ATOM     17  C   UNL     1       3.315   6.184  19.679  0.00  0.00    +0.000 C 
BRANCH  17  18
ATOM     18  C   UNL     1       2.507   7.376  19.226  0.00  0.00    +0.000 A 
ATOM     19  C   UNL     1       2.334   7.921  17.968  0.00  0.00    +0.000 A 
ATOM     20  C   UNL     1       1.490   9.074  17.984  0.00  0.00    +0.000 A 
ATOM     21  C   UNL     1       1.023   9.353  19.248  0.00  0.00    +0.000 A 
ATOM     22  S   UNL     1       1.605   8.246  20.407  0.00  0.00    +0.000 S 
ENDBRANCH  17  18
ENDBRANCH   3  17
TORSDOF 8
ENDMDL
MODEL 9
REMARK VINA RESULT:      -6.0      1.409      1.828
REMARK  Name = 
REMARK  9 active torsions:
REMARK  status: ('A' for Active; 'I' for Inactive)
REMARK    1  A    between atoms: C_1  and  C_2
REMARK    2  A    between atoms: C_2  and  O_3
REMARK    3  A    between atoms: O_3  and  C_4
REMARK    4  A    between atoms: C_4  and  C_6
REMARK    5  A    between atoms: C_6  and  N_7
REMARK    6  A    between atoms: C_8  and  S_9
REMARK    7  A    between atoms: N_10  and  C_11
REMARK    8  A    between atoms: N_10  and  C_17
REMARK    9  A    between atoms: C_11  and  C_12
REMARK                            x       y       z     vdW  Elec       q    Type
REMARK                         _______ _______ _______ _____ _____    ______ ____
ROOT
ATOM      1  N   UNL     1       5.264   6.072  18.608  0.00  0.00    +0.000 NA
ATOM      2  C   UNL     1       4.284   5.247  18.699  0.00  0.00    +0.000 C 
ATOM      3  N   UNL     1       2.972   5.709  18.701  0.00  0.00    +0.000 N 
ENDROOT
BRANCH   3   4
ATOM      4  C   UNL     1       1.885   5.037  19.435  0.00  0.00    +0.000 C 
ATOM      5  C   UNL     1       1.376   3.755  18.768  0.00  0.00    +0.000 C 
ATOM      6  C   UNL     1       0.816   2.923  19.912  0.00  0.00    +0.000 C 
ATOM      7  C   UNL     1       1.573   3.344  21.166  0.00  0.00    +0.000 C 
ATOM      8  C   UNL     1       2.322   4.630  20.840  0.00  0.00    +0.000 C 
ENDBRANCH   3   4
BRANCH   2   9
ATOM      9  S   UNL     1       4.516   3.496  18.785  0.00  0.00    +0.000 S 
ATOM     10  H   UNL     1       5.759   3.514  19.284  0.00  0.00    +0.000 HD
ENDBRANCH   2   9
BRANCH   1  11
ATOM     11  C   UNL     1       6.674   5.696  18.638  0.00  0.00    +0.000 C 
BRANCH  11  12
ATOM     12  C   UNL     1       7.495   6.565  17.701  0.00  0.00    +0.000 C 
ATOM     13  O   UNL     1       7.632   6.362  16.501  0.00  0.00    +0.000 OA
BRANCH  12  14
ATOM     14  O   UNL     1       8.152   7.525  18.419  0.00  0.00    +0.000 OA
BRANCH  14  16
ATOM     15  C   UNL     1       8.947   9.746  18.779  0.00  0.00    +0.000 C 
ATOM     16  C   UNL     1       8.119   8.850  17.875  0.00  0.00    +0.000 C 
ENDBRANCH  14  16
ENDBRANCH  12  14
ENDBRANCH  11  12
ENDBRANCH   1  11
BRANCH   3  17
ATOM     17  C   UNL     1       2.704   7.081  18.217  0.00  0.00    +0.000 C 
BRANCH  17  18
ATOM     18  C   UNL     1       1.973   8.034  19.132  0.00  0.00    +0.000 A 
ATOM     19  C   UNL     1       1.738   7.976  20.492  0.00  0.00    +0.000 A 
ATOM     20  C   UNL     1       0.980   9.092  20.963  0.00  0.00    +0.000 A 
ATOM     21  C   UNL     1       0.688   9.980  19.954  0.00  0.00    +0.000 A 
ATOM     22  S   UNL     1       1.308   9.469  18.450  0.00  0.00    +0.000 S 
ENDBRANCH  17  18
ENDBRANCH   3  17
TORSDOF 8
ENDMDL
