MODEL 1
REMARK VINA RESULT:      -8.5      0.000      0.000
REMARK  Name = 
REMARK  7 active torsions:
REMARK  status: ('A' for Active; 'I' for Inactive)
REMARK    1  A    between atoms: C_1  and  C_2
REMARK    2  A    between atoms: C_2  and  C_3
REMARK    3  A    between atoms: C_2  and  N_19
REMARK    4  A    between atoms: N_9  and  C_10
REMARK    5  A    between atoms: C_21  and  O_22
REMARK    6  A    between atoms: O_22  and  C_23
REMARK    7  A    between atoms: C_29  and  C_30
REMARK                            x       y       z     vdW  Elec       q    Type
REMARK                         _______ _______ _______ _____ _____    ______ ____
ROOT
ATOM      1  C   UNL     1       2.085   6.955  19.915  0.00  0.00    +0.000 A 
ATOM      2  N   UNL     1       2.972   6.703  18.991  0.00  0.00    +0.000 NA
ATOM      3  C   UNL     1       3.141   5.384  18.741  0.00  0.00    +0.000 A 
ATOM      4  C   UNL     1       2.493   4.336  19.344  0.00  0.00    +0.000 A 
ATOM      5  C   UNL     1       2.981   3.185  18.718  0.00  0.00    +0.000 A 
ATOM      6  N   UNL     1       3.901   3.471  17.785  0.00  0.00    +0.000 NA
ATOM      7  N   UNL     1       3.998   4.826  17.827  0.00  0.00    +0.000 N 
ATOM      8  C   UNL     1       1.540   4.612  20.379  0.00  0.00    +0.000 A 
ATOM      9  O   UNL     1       0.918   3.755  20.993  0.00  0.00    +0.000 OA
ATOM     10  N   UNL     1       1.394   5.968  20.611  0.00  0.00    +0.000 N 
ATOM     11  H   UNL     1       0.771   6.237  21.361  0.00  0.00    +0.000 HD
ENDROOT
BRANCH   7  12
ATOM     12  C   UNL     1       4.948   5.506  16.954  0.00  0.00    +0.000 C 
ATOM     13  C   UNL     1       5.343   4.642  15.749  0.00  0.00    +0.000 C 
ATOM     14  C   UNL     1       6.450   5.301  14.944  0.00  0.00    +0.000 C 
ATOM     15  O   UNL     1       7.555   5.630  15.782  0.00  0.00    +0.000 OA
ATOM     16  C   UNL     1       7.207   6.591  16.775  0.00  0.00    +0.000 C 
ATOM     17  C   UNL     1       6.165   6.025  17.726  0.00  0.00    +0.000 C 
ENDBRANCH   7  12
BRANCH   1  19
ATOM     18  C   UNL     1       1.538   8.567  21.795  0.00  0.00    +0.000 C 
ATOM     19  C   UNL     1       1.711   8.399  20.280  0.00  0.00    +0.000 C 
BRANCH  19  20
ATOM     20  N   UNL     1       0.643   8.876  19.382  0.00  0.00    +0.000 NA
ATOM     21  C   UNL     1      -0.271   9.916  19.917  0.00  0.00    +0.000 C 
ATOM     22  C   UNL     1      -0.269  10.546  18.483  0.00  0.00    +0.000 C 
ATOM     23  C   UNL     1       1.136   9.882  18.414  0.00  0.00    +0.000 C 
BRANCH  22  24
ATOM     24  O   UNL     1      -1.270  10.108  17.518  0.00  0.00    +0.000 OA
BRANCH  24  25
ATOM     25  C   UNL     1      -2.503  10.733  17.570  0.00  0.00    +0.000 A 
ATOM     26  C   UNL     1      -2.988  11.312  18.756  0.00  0.00    +0.000 A 
ATOM     27  C   UNL     1      -4.219  11.954  18.798  0.00  0.00    +0.000 A 
ATOM     28  C   UNL     1      -4.977  12.004  17.652  0.00  0.00    +0.000 A 
ATOM     29  F   UNL     1      -6.178  12.604  17.684  0.00  0.00    +0.000 F 
ATOM     30  C   UNL     1      -4.538  11.438  16.464  0.00  0.00    +0.000 A 
ATOM     31  C   UNL     1      -3.286  10.808  16.408  0.00  0.00    +0.000 A 
BRANCH  31  32
ATOM     32  C   UNL     1      -2.880  10.237  15.154  0.00  0.00    +0.000 C 
ATOM     33  N   UNL     1      -2.571   9.865  14.101  0.00  0.00    +0.000 NA
ENDBRANCH  31  32
ENDBRANCH  24  25
ENDBRANCH  22  24
ENDBRANCH  19  20
ENDBRANCH   1  19
TORSDOF 6
ENDMDL
MODEL 2
REMARK VINA RESULT:      -8.3      3.944     10.250
REMARK  Name = 
REMARK  7 active torsions:
REMARK  status: ('A' for Active; 'I' for Inactive)
REMARK    1  A    between atoms: C_1  and  C_2
REMARK    2  A    between atoms: C_2  and  C_3
REMARK    3  A    between atoms: C_2  and  N_19
REMARK    4  A    between atoms: N_9  and  C_10
REMARK    5  A    between atoms: C_21  and  O_22
REMARK    6  A    between atoms: O_22  and  C_23
REMARK    7  A    between atoms: C_29  and  C_30
REMARK                            x       y       z     vdW  Elec       q    Type
REMARK                         _______ _______ _______ _____ _____    ______ ____
ROOT
ATOM      1  C   UNL     1      -1.266  11.094  18.471  0.00  0.00    +0.000 A 
ATOM      2  N   UNL     1      -2.276  11.550  19.162  0.00  0.00    +0.000 NA
ATOM      3  C   UNL     1      -3.435  11.608  18.464  0.00  0.00    +0.000 A 
ATOM      4  C   UNL     1      -3.632  11.246  17.155  0.00  0.00    +0.000 A 
ATOM      5  C   UNL     1      -4.994  11.451  16.914  0.00  0.00    +0.000 A 
ATOM      6  N   UNL     1      -5.630  11.932  17.991  0.00  0.00    +0.000 NA
ATOM      7  N   UNL     1      -4.651  12.039  18.928  0.00  0.00    +0.000 N 
ATOM      8  C   UNL     1      -2.516  10.774  16.389  0.00  0.00    +0.000 A 
ATOM      9  O   UNL     1      -2.576  10.440  15.213  0.00  0.00    +0.000 OA
ATOM     10  N   UNL     1      -1.350  10.729  17.132  0.00  0.00    +0.000 N 
ATOM     11  H   UNL     1      -0.510  10.450  16.643  0.00  0.00    +0.000 HD
ENDROOT
BRANCH   7  12
ATOM     12  C   UNL     1      -4.972  12.573  20.247  0.00  0.00    +0.000 C 
ATOM     13  C   UNL     1      -6.294  12.014  20.788  0.00  0.00    +0.000 C 
ATOM     14  C   UNL     1      -6.689  12.701  22.083  0.00  0.00    +0.000 C 
ATOM     15  O   UNL     1      -6.708  14.117  21.916  0.00  0.00    +0.000 OA
ATOM     16  C   UNL     1      -5.417  14.638  21.607  0.00  0.00    +0.000 C 
ATOM     17  C   UNL     1      -4.932  14.104  20.269  0.00  0.00    +0.000 C 
ENDBRANCH   7  12
BRANCH   1  19
ATOM     18  C   UNL     1       0.967  12.162  19.022  0.00  0.00    +0.000 C 
ATOM     19  C   UNL     1       0.110  10.894  19.122  0.00  0.00    +0.000 C 
BRANCH  19  20
ATOM     20  N   UNL     1       0.683   9.609  18.683  0.00  0.00    +0.000 NA
ATOM     21  C   UNL     1       1.962   9.665  17.931  0.00  0.00    +0.000 C 
ATOM     22  C   UNL     1       2.374   8.355  18.687  0.00  0.00    +0.000 C 
ATOM     23  C   UNL     1       1.414   8.922  19.771  0.00  0.00    +0.000 C 
BRANCH  22  24
ATOM     24  O   UNL     1       2.039   7.065  18.098  0.00  0.00    +0.000 OA
BRANCH  24  25
ATOM     25  C   UNL     1       3.096   6.284  17.664  0.00  0.00    +0.000 A 
ATOM     26  C   UNL     1       4.247   6.851  17.091  0.00  0.00    +0.000 A 
ATOM     27  C   UNL     1       5.312   6.063  16.673  0.00  0.00    +0.000 A 
ATOM     28  C   UNL     1       5.220   4.699  16.816  0.00  0.00    +0.000 A 
ATOM     29  F   UNL     1       6.234   3.924  16.398  0.00  0.00    +0.000 F 
ATOM     30  C   UNL     1       4.097   4.099  17.369  0.00  0.00    +0.000 A 
ATOM     31  C   UNL     1       3.027   4.890  17.814  0.00  0.00    +0.000 A 
BRANCH  31  32
ATOM     32  C   UNL     1       1.889   4.219  18.377  0.00  0.00    +0.000 C 
ATOM     33  N   UNL     1       1.016   3.686  18.920  0.00  0.00    +0.000 NA
ENDBRANCH  31  32
ENDBRANCH  24  25
ENDBRANCH  22  24
ENDBRANCH  19  20
ENDBRANCH   1  19
TORSDOF 6
ENDMDL
MODEL 3
REMARK VINA RESULT:      -8.3      3.903     10.155
REMARK  Name = 
REMARK  7 active torsions:
REMARK  status: ('A' for Active; 'I' for Inactive)
REMARK    1  A    between atoms: C_1  and  C_2
REMARK    2  A    between atoms: C_2  and  C_3
REMARK    3  A    between atoms: C_2  and  N_19
REMARK    4  A    between atoms: N_9  and  C_10
REMARK    5  A    between atoms: C_21  and  O_22
REMARK    6  A    between atoms: O_22  and  C_23
REMARK    7  A    between atoms: C_29  and  C_30
REMARK                            x       y       z     vdW  Elec       q    Type
REMARK                         _______ _______ _______ _____ _____    ______ ____
ROOT
ATOM      1  C   UNL     1      -1.158  11.041  18.460  0.00  0.00    +0.000 A 
ATOM      2  N   UNL     1      -2.143  11.484  19.193  0.00  0.00    +0.000 NA
ATOM      3  C   UNL     1      -3.319  11.580  18.528  0.00  0.00    +0.000 A 
ATOM      4  C   UNL     1      -3.555  11.266  17.214  0.00  0.00    +0.000 A 
ATOM      5  C   UNL     1      -4.920  11.496  17.016  0.00  0.00    +0.000 A 
ATOM      6  N   UNL     1      -5.522  11.947  18.126  0.00  0.00    +0.000 NA
ATOM      7  N   UNL     1      -4.517  12.008  19.039  0.00  0.00    +0.000 N 
ATOM      8  C   UNL     1      -2.466  10.809  16.402  0.00  0.00    +0.000 A 
ATOM      9  O   UNL     1      -2.561  10.518  15.217  0.00  0.00    +0.000 OA
ATOM     10  N   UNL     1      -1.281  10.725  17.111  0.00  0.00    +0.000 N 
ATOM     11  H   UNL     1      -0.458  10.452  16.591  0.00  0.00    +0.000 HD
ENDROOT
BRANCH   7  12
ATOM     12  C   UNL     1      -4.797  12.499  20.384  0.00  0.00    +0.000 C 
ATOM     13  C   UNL     1      -6.214  12.136  20.846  0.00  0.00    +0.000 C 
ATOM     14  C   UNL     1      -6.539  12.792  22.177  0.00  0.00    +0.000 C 
ATOM     15  O   UNL     1      -6.316  14.198  22.113  0.00  0.00    +0.000 OA
ATOM     16  C   UNL     1      -4.945  14.513  21.878  0.00  0.00    +0.000 C 
ATOM     17  C   UNL     1      -4.503  13.996  20.519  0.00  0.00    +0.000 C 
ENDBRANCH   7  12
BRANCH   1  19
ATOM     18  C   UNL     1       1.091  12.072  19.019  0.00  0.00    +0.000 C 
ATOM     19  C   UNL     1       0.232  10.801  19.067  0.00  0.00    +0.000 C 
BRANCH  19  20
ATOM     20  N   UNL     1       0.791   9.542  18.542  0.00  0.00    +0.000 NA
ATOM     21  C   UNL     1       2.104   9.624  17.854  0.00  0.00    +0.000 C 
ATOM     22  C   UNL     1       2.448   8.243  18.510  0.00  0.00    +0.000 C 
ATOM     23  C   UNL     1       1.454   8.743  19.597  0.00  0.00    +0.000 C 
BRANCH  22  24
ATOM     24  O   UNL     1       2.106   7.019  17.797  0.00  0.00    +0.000 OA
BRANCH  24  25
ATOM     25  C   UNL     1       2.711   5.853  18.233  0.00  0.00    +0.000 A 
ATOM     26  C   UNL     1       2.123   5.040  19.218  0.00  0.00    +0.000 A 
ATOM     27  C   UNL     1       2.725   3.862  19.639  0.00  0.00    +0.000 A 
ATOM     28  C   UNL     1       3.930   3.500  19.084  0.00  0.00    +0.000 A 
ATOM     29  F   UNL     1       4.533   2.374  19.496  0.00  0.00    +0.000 F 
ATOM     30  C   UNL     1       4.547   4.279  18.115  0.00  0.00    +0.000 A 
ATOM     31  C   UNL     1       3.934   5.459  17.668  0.00  0.00    +0.000 A 
BRANCH  31  32
ATOM     32  C   UNL     1       4.615   6.229  16.666  0.00  0.00    +0.000 C 
ATOM     33  N   UNL     1       5.246   6.798  15.878  0.00  0.00    +0.000 NA
ENDBRANCH  31  32
ENDBRANCH  24  25
ENDBRANCH  22  24
ENDBRANCH  19  20
ENDBRANCH   1  19
TORSDOF 6
ENDMDL
MODEL 4
REMARK VINA RESULT:      -7.9      3.849      9.944
REMARK  Name = 
REMARK  7 active torsions:
REMARK  status: ('A' for Active; 'I' for Inactive)
REMARK    1  A    between atoms: C_1  and  C_2
REMARK    2  A    between atoms: C_2  and  C_3
REMARK    3  A    between atoms: C_2  and  N_19
REMARK    4  A    between atoms: N_9  and  C_10
REMARK    5  A    between atoms: C_21  and  O_22
REMARK    6  A    between atoms: O_22  and  C_23
REMARK    7  A    between atoms: C_29  and  C_30
REMARK                            x       y       z     vdW  Elec       q    Type
REMARK                         _______ _______ _______ _____ _____    ______ ____
ROOT
ATOM      1  C   UNL     1      -1.126  10.754  18.609  0.00  0.00    +0.000 A 
ATOM      2  N   UNL     1      -2.062  11.460  19.184  0.00  0.00    +0.000 NA
ATOM      3  C   UNL     1      -3.207  11.537  18.467  0.00  0.00    +0.000 A 
ATOM      4  C   UNL     1      -3.460  10.965  17.246  0.00  0.00    +0.000 A 
ATOM      5  C   UNL     1      -4.785  11.298  16.946  0.00  0.00    +0.000 A 
ATOM      6  N   UNL     1      -5.344  12.052  17.903  0.00  0.00    +0.000 NA
ATOM      7  N   UNL     1      -4.353  12.203  18.821  0.00  0.00    +0.000 N 
ATOM      8  C   UNL     1      -2.422  10.216  16.601  0.00  0.00    +0.000 A 
ATOM      9  O   UNL     1      -2.534   9.679  15.507  0.00  0.00    +0.000 OA
ATOM     10  N   UNL     1      -1.266  10.159  17.360  0.00  0.00    +0.000 N 
ATOM     11  H   UNL     1      -0.474   9.686  16.947  0.00  0.00    +0.000 HD
ENDROOT
BRANCH   7  12
ATOM     12  C   UNL     1      -4.592  13.012  20.011  0.00  0.00    +0.000 C 
ATOM     13  C   UNL     1      -3.284  13.498  20.649  0.00  0.00    +0.000 C 
ATOM     14  C   UNL     1      -3.549  14.199  21.969  0.00  0.00    +0.000 C 
ATOM     15  O   UNL     1      -4.318  13.369  22.836  0.00  0.00    +0.000 OA
ATOM     16  C   UNL     1      -5.612  13.093  22.305  0.00  0.00    +0.000 C 
ATOM     17  C   UNL     1      -5.502  12.298  21.014  0.00  0.00    +0.000 C 
ENDBRANCH   7  12
BRANCH   1  19
ATOM     18  C   UNL     1       1.078  11.769  19.345  0.00  0.00    +0.000 C 
ATOM     19  C   UNL     1       0.216  10.501  19.311  0.00  0.00    +0.000 C 
BRANCH  19  20
ATOM     20  N   UNL     1       0.809   9.248  18.808  0.00  0.00    +0.000 NA
ATOM     21  C   UNL     1       2.057   9.366  18.012  0.00  0.00    +0.000 C 
ATOM     22  C   UNL     1       2.534   8.046  18.708  0.00  0.00    +0.000 C 
ATOM     23  C   UNL     1       1.600   8.549  19.845  0.00  0.00    +0.000 C 
BRANCH  22  24
ATOM     24  O   UNL     1       2.215   6.767  18.088  0.00  0.00    +0.000 OA
BRANCH  24  25
ATOM     25  C   UNL     1       3.274   6.038  17.577  0.00  0.00    +0.000 A 
ATOM     26  C   UNL     1       4.479   6.654  17.199  0.00  0.00    +0.000 A 
ATOM     27  C   UNL     1       5.546   5.916  16.703  0.00  0.00    +0.000 A 
ATOM     28  C   UNL     1       5.402   4.555  16.570  0.00  0.00    +0.000 A 
ATOM     29  F   UNL     1       6.419   3.832  16.073  0.00  0.00    +0.000 F 
ATOM     30  C   UNL     1       4.226   3.909  16.924  0.00  0.00    +0.000 A 
ATOM     31  C   UNL     1       3.152   4.646  17.447  0.00  0.00    +0.000 A 
BRANCH  31  32
ATOM     32  C   UNL     1       1.958   3.929  17.797  0.00  0.00    +0.000 C 
ATOM     33  N   UNL     1       0.964   3.434  18.125  0.00  0.00    +0.000 NA
ENDBRANCH  31  32
ENDBRANCH  24  25
ENDBRANCH  22  24
ENDBRANCH  19  20
ENDBRANCH   1  19
TORSDOF 6
ENDMDL
MODEL 5
REMARK VINA RESULT:      -7.9      3.989      9.522
REMARK  Name = 
REMARK  7 active torsions:
REMARK  status: ('A' for Active; 'I' for Inactive)
REMARK    1  A    between atoms: C_1  and  C_2
REMARK    2  A    between atoms: C_2  and  C_3
REMARK    3  A    between atoms: C_2  and  N_19
REMARK    4  A    between atoms: N_9  and  C_10
REMARK    5  A    between atoms: C_21  and  O_22
REMARK    6  A    between atoms: O_22  and  C_23
REMARK    7  A    between atoms: C_29  and  C_30
REMARK                            x       y       z     vdW  Elec       q    Type
REMARK                         _______ _______ _______ _____ _____    ______ ____
ROOT
ATOM      1  C   UNL     1      -0.127  10.614  18.563  0.00  0.00    +0.000 A 
ATOM      2  N   UNL     1      -0.693  11.416  19.424  0.00  0.00    +0.000 NA
ATOM      3  C   UNL     1      -2.010  11.624  19.194  0.00  0.00    +0.000 A 
ATOM      4  C   UNL     1      -2.769  11.091  18.183  0.00  0.00    +0.000 A 
ATOM      5  C   UNL     1      -4.065  11.571  18.397  0.00  0.00    +0.000 A 
ATOM      6  N   UNL     1      -4.134  12.377  19.466  0.00  0.00    +0.000 NA
ATOM      7  N   UNL     1      -2.857  12.411  19.931  0.00  0.00    +0.000 N 
ATOM      8  C   UNL     1      -2.140  10.235  17.221  0.00  0.00    +0.000 A 
ATOM      9  O   UNL     1      -2.718   9.720  16.272  0.00  0.00    +0.000 OA
ATOM     10  N   UNL     1      -0.796  10.045  17.484  0.00  0.00    +0.000 N 
ATOM     11  H   UNL     1      -0.276   9.489  16.819  0.00  0.00    +0.000 HD
ENDROOT
BRANCH   7  12
ATOM     12  C   UNL     1      -2.537  13.235  21.092  0.00  0.00    +0.000 C 
ATOM     13  C   UNL     1      -1.668  14.444  20.719  0.00  0.00    +0.000 C 
ATOM     14  C   UNL     1      -1.215  15.194  21.958  0.00  0.00    +0.000 C 
ATOM     15  O   UNL     1      -0.578  14.311  22.878  0.00  0.00    +0.000 OA
ATOM     16  C   UNL     1      -1.469  13.310  23.364  0.00  0.00    +0.000 C 
ATOM     17  C   UNL     1      -1.932  12.410  22.231  0.00  0.00    +0.000 C 
ENDBRANCH   7  12
BRANCH   1  19
ATOM     18  C   UNL     1       2.283  11.294  18.164  0.00  0.00    +0.000 C 
ATOM     19  C   UNL     1       1.346  10.209  18.711  0.00  0.00    +0.000 C 
BRANCH  19  20
ATOM     20  N   UNL     1       1.525   8.817  18.258  0.00  0.00    +0.000 NA
ATOM     21  C   UNL     1       2.872   8.439  17.761  0.00  0.00    +0.000 C 
ATOM     22  C   UNL     1       2.649   7.048  18.446  0.00  0.00    +0.000 C 
ATOM     23  C   UNL     1       1.738   7.886  19.387  0.00  0.00    +0.000 C 
BRANCH  22  24
ATOM     24  O   UNL     1       2.024   5.977  17.680  0.00  0.00    +0.000 OA
BRANCH  24  25
ATOM     25  C   UNL     1       2.467   4.690  17.929  0.00  0.00    +0.000 A 
ATOM     26  C   UNL     1       1.712   3.784  18.694  0.00  0.00    +0.000 A 
ATOM     27  C   UNL     1       2.153   2.488  18.926  0.00  0.00    +0.000 A 
ATOM     28  C   UNL     1       3.363   2.098  18.402  0.00  0.00    +0.000 A 
ATOM     29  F   UNL     1       3.810   0.854  18.635  0.00  0.00    +0.000 F 
ATOM     30  C   UNL     1       4.142   2.964  17.649  0.00  0.00    +0.000 A 
ATOM     31  C   UNL     1       3.693   4.268  17.391  0.00  0.00    +0.000 A 
BRANCH  31  32
ATOM     32  C   UNL     1       4.538   5.124  16.607  0.00  0.00    +0.000 C 
ATOM     33  N   UNL     1       5.192   5.889  16.034  0.00  0.00    +0.000 NA
ENDBRANCH  31  32
ENDBRANCH  24  25
ENDBRANCH  22  24
ENDBRANCH  19  20
ENDBRANCH   1  19
TORSDOF 6
ENDMDL
MODEL 6
REMARK VINA RESULT:      -7.8      3.867     10.180
REMARK  Name = 
REMARK  7 active torsions:
REMARK  status: ('A' for Active; 'I' for Inactive)
REMARK    1  A    between atoms: C_1  and  C_2
REMARK    2  A    between atoms: C_2  and  C_3
REMARK    3  A    between atoms: C_2  and  N_19
REMARK    4  A    between atoms: N_9  and  C_10
REMARK    5  A    between atoms: C_21  and  O_22
REMARK    6  A    between atoms: O_22  and  C_23
REMARK    7  A    between atoms: C_29  and  C_30
REMARK                            x       y       z     vdW  Elec       q    Type
REMARK                         _______ _______ _______ _____ _____    ______ ____
ROOT
ATOM      1  C   UNL     1      -1.491  11.351  18.444  0.00  0.00    +0.000 A 
ATOM      2  N   UNL     1      -2.526  11.786  19.111  0.00  0.00    +0.000 NA
ATOM      3  C   UNL     1      -3.676  11.781  18.398  0.00  0.00    +0.000 A 
ATOM      4  C   UNL     1      -3.844  11.378  17.097  0.00  0.00    +0.000 A 
ATOM      5  C   UNL     1      -5.209  11.525  16.835  0.00  0.00    +0.000 A 
ATOM      6  N   UNL     1      -5.877  12.010  17.892  0.00  0.00    +0.000 NA
ATOM      7  N   UNL     1      -4.914  12.178  18.836  0.00  0.00    +0.000 N 
ATOM      8  C   UNL     1      -2.702  10.929  16.357  0.00  0.00    +0.000 A 
ATOM      9  O   UNL     1      -2.734  10.563  15.189  0.00  0.00    +0.000 OA
ATOM     10  N   UNL     1      -1.544  10.949  17.114  0.00  0.00    +0.000 N 
ATOM     11  H   UNL     1      -0.688  10.689  16.642  0.00  0.00    +0.000 HD
ENDROOT
BRANCH   7  12
ATOM     12  C   UNL     1      -5.272  12.734  20.137  0.00  0.00    +0.000 C 
ATOM     13  C   UNL     1      -4.103  12.678  21.129  0.00  0.00    +0.000 C 
ATOM     14  C   UNL     1      -4.543  13.111  22.516  0.00  0.00    +0.000 C 
ATOM     15  O   UNL     1      -5.675  12.358  22.943  0.00  0.00    +0.000 OA
ATOM     16  C   UNL     1      -6.813  12.583  22.115  0.00  0.00    +0.000 C 
ATOM     17  C   UNL     1      -6.547  12.099  20.699  0.00  0.00    +0.000 C 
ENDBRANCH   7  12
BRANCH   1  19
ATOM     18  C   UNL     1       0.698  12.513  18.982  0.00  0.00    +0.000 C 
ATOM     19  C   UNL     1      -0.116  11.220  19.116  0.00  0.00    +0.000 C 
BRANCH  19  20
ATOM     20  N   UNL     1       0.505   9.941  18.726  0.00  0.00    +0.000 NA
ATOM     21  C   UNL     1       1.851  10.010  18.104  0.00  0.00    +0.000 C 
ATOM     22  C   UNL     1       2.196   8.698  18.887  0.00  0.00    +0.000 C 
ATOM     23  C   UNL     1       1.131   9.252  19.876  0.00  0.00    +0.000 C 
BRANCH  22  24
ATOM     24  O   UNL     1       1.929   7.410  18.260  0.00  0.00    +0.000 OA
BRANCH  24  25
ATOM     25  C   UNL     1       3.017   6.584  18.043  0.00  0.00    +0.000 A 
ATOM     26  C   UNL     1       4.066   6.955  17.185  0.00  0.00    +0.000 A 
ATOM     27  C   UNL     1       5.165   6.129  16.984  0.00  0.00    +0.000 A 
ATOM     28  C   UNL     1       5.209   4.918  17.633  0.00  0.00    +0.000 A 
ATOM     29  F   UNL     1       6.255   4.101  17.432  0.00  0.00    +0.000 F 
ATOM     30  C   UNL     1       4.189   4.511  18.482  0.00  0.00    +0.000 A 
ATOM     31  C   UNL     1       3.087   5.349  18.707  0.00  0.00    +0.000 A 
BRANCH  31  32
ATOM     32  C   UNL     1       2.060   4.880  19.594  0.00  0.00    +0.000 C 
ATOM     33  N   UNL     1       1.181   4.583  20.287  0.00  0.00    +0.000 NA
ENDBRANCH  31  32
ENDBRANCH  24  25
ENDBRANCH  22  24
ENDBRANCH  19  20
ENDBRANCH   1  19
TORSDOF 6
ENDMDL
MODEL 7
REMARK VINA RESULT:      -7.8      3.899      9.948
REMARK  Name = 
REMARK  7 active torsions:
REMARK  status: ('A' for Active; 'I' for Inactive)
REMARK    1  A    between atoms: C_1  and  C_2
REMARK    2  A    between atoms: C_2  and  C_3
REMARK    3  A    between atoms: C_2  and  N_19
REMARK    4  A    between atoms: N_9  and  C_10
REMARK    5  A    between atoms: C_21  and  O_22
REMARK    6  A    between atoms: O_22  and  C_23
REMARK    7  A    between atoms: C_29  and  C_30
REMARK                            x       y       z     vdW  Elec       q    Type
REMARK                         _______ _______ _______ _____ _____    ______ ____
ROOT
ATOM      1  C   UNL     1      -0.181  10.420  18.663  0.00  0.00    +0.000 A 
ATOM      2  N   UNL     1      -0.835  11.181  19.499  0.00  0.00    +0.000 NA
ATOM      3  C   UNL     1      -2.111  11.434  19.124  0.00  0.00    +0.000 A 
ATOM      4  C   UNL     1      -2.749  10.982  17.997  0.00  0.00    +0.000 A 
ATOM      5  C   UNL     1      -4.053  11.479  18.082  0.00  0.00    +0.000 A 
ATOM      6  N   UNL     1      -4.239  12.219  19.184  0.00  0.00    +0.000 NA
ATOM      7  N   UNL     1      -3.029  12.194  19.802  0.00  0.00    +0.000 N 
ATOM      8  C   UNL     1      -2.021  10.172  17.065  0.00  0.00    +0.000 A 
ATOM      9  O   UNL     1      -2.486   9.730  16.022  0.00  0.00    +0.000 OA
ATOM     10  N   UNL     1      -0.722   9.935  17.477  0.00  0.00    +0.000 N 
ATOM     11  H   UNL     1      -0.133   9.408  16.846  0.00  0.00    +0.000 HD
ENDROOT
BRANCH   7  12
ATOM     12  C   UNL     1      -2.840  12.938  21.043  0.00  0.00    +0.000 C 
ATOM     13  C   UNL     1      -4.054  12.823  21.974  0.00  0.00    +0.000 C 
ATOM     14  C   UNL     1      -3.904  13.731  23.182  0.00  0.00    +0.000 C 
ATOM     15  O   UNL     1      -3.636  15.070  22.776  0.00  0.00    +0.000 OA
ATOM     16  C   UNL     1      -2.397  15.182  22.081  0.00  0.00    +0.000 C 
ATOM     17  C   UNL     1      -2.438  14.393  20.783  0.00  0.00    +0.000 C 
ENDBRANCH   7  12
BRANCH   1  19
ATOM     18  C   UNL     1       2.266  10.685  18.054  0.00  0.00    +0.000 C 
ATOM     19  C   UNL     1       1.257   9.972  18.962  0.00  0.00    +0.000 C 
BRANCH  19  20
ATOM     20  N   UNL     1       1.305   8.502  19.067  0.00  0.00    +0.000 NA
ATOM     21  C   UNL     1       2.489   7.825  18.482  0.00  0.00    +0.000 C 
ATOM     22  C   UNL     1       2.421   6.829  19.690  0.00  0.00    +0.000 C 
ATOM     23  C   UNL     1       1.772   8.053  20.398  0.00  0.00    +0.000 C 
BRANCH  22  24
ATOM     24  O   UNL     1       1.618   5.620  19.563  0.00  0.00    +0.000 OA
BRANCH  24  25
ATOM     25  C   UNL     1       2.235   4.516  19.002  0.00  0.00    +0.000 A 
ATOM     26  C   UNL     1       2.713   4.530  17.680  0.00  0.00    +0.000 A 
ATOM     27  C   UNL     1       3.349   3.425  17.128  0.00  0.00    +0.000 A 
ATOM     28  C   UNL     1       3.494   2.294  17.896  0.00  0.00    +0.000 A 
ATOM     29  F   UNL     1       4.088   1.212  17.368  0.00  0.00    +0.000 F 
ATOM     30  C   UNL     1       3.028   2.237  19.202  0.00  0.00    +0.000 A 
ATOM     31  C   UNL     1       2.406   3.356  19.774  0.00  0.00    +0.000 A 
BRANCH  31  32
ATOM     32  C   UNL     1       1.941   3.244  21.128  0.00  0.00    +0.000 C 
ATOM     33  N   UNL     1       1.646   3.097  22.239  0.00  0.00    +0.000 NA
ENDBRANCH  31  32
ENDBRANCH  24  25
ENDBRANCH  22  24
ENDBRANCH  19  20
ENDBRANCH   1  19
TORSDOF 6
ENDMDL
MODEL 8
REMARK VINA RESULT:      -7.8      3.895      9.788
REMARK  Name = 
REMARK  7 active torsions:
REMARK  status: ('A' for Active; 'I' for Inactive)
REMARK    1  A    between atoms: C_1  and  C_2
REMARK    2  A    between atoms: C_2  and  C_3
REMARK    3  A    between atoms: C_2  and  N_19
REMARK    4  A    between atoms: N_9  and  C_10
REMARK    5  A    between atoms: C_21  and  O_22
REMARK    6  A    between atoms: O_22  and  C_23
REMARK    7  A    between atoms: C_29  and  C_30
REMARK                            x       y       z     vdW  Elec       q    Type
REMARK                         _______ _______ _______ _____ _____    ______ ____
ROOT
ATOM      1  C   UNL     1      -0.195  10.675  18.532  0.00  0.00    +0.000 A 
ATOM      2  N   UNL     1      -0.789  11.465  19.386  0.00  0.00    +0.000 NA
ATOM      3  C   UNL     1      -2.110  11.635  19.144  0.00  0.00    +0.000 A 
ATOM      4  C   UNL     1      -2.846  11.077  18.130  0.00  0.00    +0.000 A 
ATOM      5  C   UNL     1      -4.156  11.521  18.332  0.00  0.00    +0.000 A 
ATOM      6  N   UNL     1      -4.256  12.330  19.397  0.00  0.00    +0.000 NA
ATOM      7  N   UNL     1      -2.984  12.402  19.872  0.00  0.00    +0.000 N 
ATOM      8  C   UNL     1      -2.187  10.234  17.176  0.00  0.00    +0.000 A 
ATOM      9  O   UNL     1      -2.742   9.699  16.225  0.00  0.00    +0.000 OA
ATOM     10  N   UNL     1      -0.839  10.083  17.451  0.00  0.00    +0.000 N 
ATOM     11  H   UNL     1      -0.299   9.538  16.793  0.00  0.00    +0.000 HD
ENDROOT
BRANCH   7  12
ATOM     12  C   UNL     1      -2.696  13.239  21.031  0.00  0.00    +0.000 C 
ATOM     13  C   UNL     1      -3.058  12.543  22.349  0.00  0.00    +0.000 C 
ATOM     14  C   UNL     1      -2.902  13.489  23.527  0.00  0.00    +0.000 C 
ATOM     15  O   UNL     1      -3.638  14.691  23.309  0.00  0.00    +0.000 OA
ATOM     16  C   UNL     1      -3.148  15.423  22.188  0.00  0.00    +0.000 C 
ATOM     17  C   UNL     1      -3.334  14.626  20.907  0.00  0.00    +0.000 C 
ENDBRANCH   7  12
BRANCH   1  19
ATOM     18  C   UNL     1       2.188  11.270  17.903  0.00  0.00    +0.000 C 
ATOM     19  C   UNL     1       1.288  10.312  18.693  0.00  0.00    +0.000 C 
BRANCH  19  20
ATOM     20  N   UNL     1       1.464   8.858  18.516  0.00  0.00    +0.000 NA
ATOM     21  C   UNL     1       2.667   8.412  17.770  0.00  0.00    +0.000 C 
ATOM     22  C   UNL     1       2.746   7.208  18.770  0.00  0.00    +0.000 C 
ATOM     23  C   UNL     1       2.036   8.215  19.720  0.00  0.00    +0.000 C 
BRANCH  22  24
ATOM     24  O   UNL     1       2.040   5.975  18.446  0.00  0.00    +0.000 OA
BRANCH  24  25
ATOM     25  C   UNL     1       2.221   4.907  19.307  0.00  0.00    +0.000 A 
ATOM     26  C   UNL     1       1.504   4.800  20.511  0.00  0.00    +0.000 A 
ATOM     27  C   UNL     1       1.675   3.717  21.363  0.00  0.00    +0.000 A 
ATOM     28  C   UNL     1       2.580   2.742  21.018  0.00  0.00    +0.000 A 
ATOM     29  F   UNL     1       2.771   1.699  21.842  0.00  0.00    +0.000 F 
ATOM     30  C   UNL     1       3.314   2.814  19.842  0.00  0.00    +0.000 A 
ATOM     31  C   UNL     1       3.129   3.894  18.965  0.00  0.00    +0.000 A 
BRANCH  31  32
ATOM     32  C   UNL     1       3.914   3.921  17.763  0.00  0.00    +0.000 C 
ATOM     33  N   UNL     1       4.559   3.845  16.803  0.00  0.00    +0.000 NA
ENDBRANCH  31  32
ENDBRANCH  24  25
ENDBRANCH  22  24
ENDBRANCH  19  20
ENDBRANCH   1  19
TORSDOF 6
ENDMDL
MODEL 9
REMARK VINA RESULT:      -7.7      4.791      9.271
REMARK  Name = 
REMARK  7 active torsions:
REMARK  status: ('A' for Active; 'I' for Inactive)
REMARK    1  A    between atoms: C_1  and  C_2
REMARK    2  A    between atoms: C_2  and  C_3
REMARK    3  A    between atoms: C_2  and  N_19
REMARK    4  A    between atoms: N_9  and  C_10
REMARK    5  A    between atoms: C_21  and  O_22
REMARK    6  A    between atoms: O_22  and  C_23
REMARK    7  A    between atoms: C_29  and  C_30
REMARK                            x       y       z     vdW  Elec       q    Type
REMARK                         _______ _______ _______ _____ _____    ______ ____
ROOT
ATOM      1  C   UNL     1       5.380   4.694  18.753  0.00  0.00    +0.000 A 
ATOM      2  N   UNL     1       4.564   5.693  18.953  0.00  0.00    +0.000 NA
ATOM      3  C   UNL     1       3.491   5.377  19.717  0.00  0.00    +0.000 A 
ATOM      4  C   UNL     1       3.199   4.157  20.272  0.00  0.00    +0.000 A 
ATOM      5  C   UNL     1       2.019   4.350  20.996  0.00  0.00    +0.000 A 
ATOM      6  N   UNL     1       1.567   5.608  20.897  0.00  0.00    +0.000 NA
ATOM      7  N   UNL     1       2.476   6.219  20.092  0.00  0.00    +0.000 N 
ATOM      8  C   UNL     1       4.081   3.054  20.026  0.00  0.00    +0.000 A 
ATOM      9  O   UNL     1       3.909   1.921  20.458  0.00  0.00    +0.000 OA
ATOM     10  N   UNL     1       5.164   3.411  19.243  0.00  0.00    +0.000 N 
ATOM     11  H   UNL     1       5.805   2.671  18.989  0.00  0.00    +0.000 HD
ENDROOT
BRANCH   7  12
ATOM     12  C   UNL     1       2.287   7.619  19.728  0.00  0.00    +0.000 C 
ATOM     13  C   UNL     1       1.200   8.293  20.575  0.00  0.00    +0.000 C 
ATOM     14  C   UNL     1       0.909   9.696  20.074  0.00  0.00    +0.000 C 
ATOM     15  O   UNL     1       0.603   9.681  18.682  0.00  0.00    +0.000 OA
ATOM     16  C   UNL     1       1.705   9.236  17.896  0.00  0.00    +0.000 C 
ATOM     17  C   UNL     1       2.049   7.792  18.225  0.00  0.00    +0.000 C 
ENDBRANCH   7  12
BRANCH   1  19
ATOM     18  C   UNL     1       7.549   5.998  18.582  0.00  0.00    +0.000 C 
ATOM     19  C   UNL     1       6.686   4.887  17.969  0.00  0.00    +0.000 C 
BRANCH  19  20
ATOM     20  N   UNL     1       6.396   4.925  16.524  0.00  0.00    +0.000 NA
ATOM     21  C   UNL     1       5.857   3.683  15.913  0.00  0.00    +0.000 C 
ATOM     22  C   UNL     1       4.958   4.604  15.020  0.00  0.00    +0.000 C 
ATOM     23  C   UNL     1       5.096   5.569  16.233  0.00  0.00    +0.000 C 
BRANCH  22  24
ATOM     24  O   UNL     1       5.471   5.060  13.735  0.00  0.00    +0.000 OA
BRANCH  24  25
ATOM     25  C   UNL     1       5.929   4.087  12.864  0.00  0.00    +0.000 A 
ATOM     26  C   UNL     1       5.097   3.045  12.419  0.00  0.00    +0.000 A 
ATOM     27  C   UNL     1       5.556   2.081  11.531  0.00  0.00    +0.000 A 
ATOM     28  C   UNL     1       6.858   2.149  11.097  0.00  0.00    +0.000 A 
ATOM     29  F   UNL     1       7.321   1.211  10.254  0.00  0.00    +0.000 F 
ATOM     30  C   UNL     1       7.714   3.156  11.519  0.00  0.00    +0.000 A 
ATOM     31  C   UNL     1       7.251   4.147  12.398  0.00  0.00    +0.000 A 
BRANCH  31  32
ATOM     32  C   UNL     1       8.178   5.165  12.805  0.00  0.00    +0.000 C 
ATOM     33  N   UNL     1       8.927   5.944  13.223  0.00  0.00    +0.000 NA
ENDBRANCH  31  32
ENDBRANCH  24  25
ENDBRANCH  22  24
ENDBRANCH  19  20
ENDBRANCH   1  19
TORSDOF 6
ENDMDL
