MODEL 1
REMARK VINA RESULT:      -7.9      0.000      0.000
REMARK  Name = 
REMARK  6 active torsions:
REMARK  status: ('A' for Active; 'I' for Inactive)
REMARK    1  A    between atoms: C_1  and  N_2
REMARK    2  A    between atoms: C_5  and  C_6
REMARK    3  A    between atoms: N_19  and  C_20
REMARK    4  A    between atoms: C_23  and  C_24
REMARK    5  A    between atoms: C_24  and  C_25
REMARK    6  A    between atoms: C_25  and  O_27
REMARK                            x       y       z     vdW  Elec       q    Type
REMARK                         _______ _______ _______ _____ _____    ______ ____
ROOT
ATOM      1  C   UNL     1      -0.381   9.262  22.710  0.00  0.00    +0.000 C 
ATOM      2  N   UNL     1      -0.608  10.429  21.873  0.00  0.00    +0.000 N 
ATOM      3  C   UNL     1      -1.433  11.452  22.311  0.00  0.00    +0.000 A 
ATOM      4  O   UNL     1      -2.029  11.436  23.385  0.00  0.00    +0.000 OA
ATOM      5  C   UNL     1      -1.578  12.639  21.401  0.00  0.00    +0.000 A 
ATOM      6  C   UNL     1      -0.974  12.670  20.202  0.00  0.00    +0.000 A 
ATOM      7  C   UNL     1      -0.163  11.539  19.779  0.00  0.00    +0.000 A 
ATOM      8  C   UNL     1       0.474  11.464  18.561  0.00  0.00    +0.000 A 
ATOM      9  N   UNL     1       1.274  10.440  18.193  0.00  0.00    +0.000 NA
ATOM     10  C   UNL     1       1.419   9.442  19.076  0.00  0.00    +0.000 A 
ATOM     11  N   UNL     1       2.294   8.407  18.747  0.00  0.00    +0.000 N 
ATOM     12  N   UNL     1       0.803   9.412  20.265  0.00  0.00    +0.000 NA
ATOM     13  C   UNL     1       0.030  10.456  20.610  0.00  0.00    +0.000 A 
ATOM     14  H   UNL     1       2.656   8.561  17.813  0.00  0.00    +0.000 HD
ENDROOT
BRANCH   5  15
ATOM     15  C   UNL     1      -2.395  13.789  21.833  0.00  0.00    +0.000 A 
ATOM     16  C   UNL     1      -1.810  14.877  22.504  0.00  0.00    +0.000 A 
ATOM     17 CL   UNL     1      -0.114  14.930  22.853  0.00  0.00    +0.000 Cl
ATOM     18  C   UNL     1      -2.586  15.960  22.925  0.00  0.00    +0.000 A 
ATOM     19  C   UNL     1      -3.956  15.982  22.671  0.00  0.00    +0.000 A 
ATOM     20  C   UNL     1      -4.551  14.920  21.996  0.00  0.00    +0.000 A 
ATOM     21  C   UNL     1      -3.779  13.829  21.580  0.00  0.00    +0.000 A 
ATOM     22 CL   UNL     1      -4.599  12.537  20.769  0.00  0.00    +0.000 Cl
ENDBRANCH   5  15
BRANCH  11  23
ATOM     23  C   UNL     1       2.162   7.054  19.100  0.00  0.00    +0.000 A 
ATOM     24  C   UNL     1       1.923   6.646  20.417  0.00  0.00    +0.000 A 
ATOM     25  C   UNL     1       1.735   5.299  20.731  0.00  0.00    +0.000 A 
ATOM     26  C   UNL     1       1.772   4.319  19.732  0.00  0.00    +0.000 A 
ATOM     27  C   UNL     1       2.073   4.715  18.423  0.00  0.00    +0.000 A 
ATOM     28  C   UNL     1       2.240   6.071  18.108  0.00  0.00    +0.000 A 
BRANCH  26  29
ATOM     29  C   UNL     1       1.550   2.877  20.122  0.00  0.00    +0.000 C 
BRANCH  29  30
ATOM     30  C   UNL     1       1.918   2.518  21.545  0.00  0.00    +0.000 C 
ATOM     31  O   UNL     1       3.067   2.352  21.930  0.00  0.00    +0.000 OA
BRANCH  30  32
ATOM     32  O   UNL     1       0.860   2.447  22.385  0.00  0.00    +0.000 OA
ATOM     33  H   UNL     1       0.934   1.728  23.042  0.00  0.00    +0.000 HD
ENDBRANCH  30  32
ENDBRANCH  29  30
ENDBRANCH  26  29
ENDBRANCH  11  23
TORSDOF 5
ENDMDL
MODEL 2
REMARK VINA RESULT:      -7.8      1.057      2.065
REMARK  Name = 
REMARK  6 active torsions:
REMARK  status: ('A' for Active; 'I' for Inactive)
REMARK    1  A    between atoms: C_1  and  N_2
REMARK    2  A    between atoms: C_5  and  C_6
REMARK    3  A    between atoms: N_19  and  C_20
REMARK    4  A    between atoms: C_23  and  C_24
REMARK    5  A    between atoms: C_24  and  C_25
REMARK    6  A    between atoms: C_25  and  O_27
REMARK                            x       y       z     vdW  Elec       q    Type
REMARK                         _______ _______ _______ _____ _____    ______ ____
ROOT
ATOM      1  C   UNL     1      -0.272   9.330  22.781  0.00  0.00    +0.000 C 
ATOM      2  N   UNL     1      -0.645  10.470  21.959  0.00  0.00    +0.000 N 
ATOM      3  C   UNL     1      -1.521  11.426  22.447  0.00  0.00    +0.000 A 
ATOM      4  O   UNL     1      -2.045  11.369  23.556  0.00  0.00    +0.000 OA
ATOM      5  C   UNL     1      -1.818  12.592  21.547  0.00  0.00    +0.000 A 
ATOM      6  C   UNL     1      -1.296  12.664  20.312  0.00  0.00    +0.000 A 
ATOM      7  C   UNL     1      -0.424  11.600  19.840  0.00  0.00    +0.000 A 
ATOM      8  C   UNL     1       0.139  11.569  18.584  0.00  0.00    +0.000 A 
ATOM      9  N   UNL     1       0.995  10.611  18.167  0.00  0.00    +0.000 NA
ATOM     10  C   UNL     1       1.275   9.633  19.040  0.00  0.00    +0.000 A 
ATOM     11  N   UNL     1       2.209   8.671  18.657  0.00  0.00    +0.000 N 
ATOM     12  N   UNL     1       0.739   9.561  20.266  0.00  0.00    +0.000 NA
ATOM     13  C   UNL     1      -0.092  10.540  20.658  0.00  0.00    +0.000 A 
ATOM     14  H   UNL     1       2.498   8.847  17.703  0.00  0.00    +0.000 HD
ENDROOT
BRANCH   5  15
ATOM     15  C   UNL     1      -2.698  13.675  22.028  0.00  0.00    +0.000 A 
ATOM     16  C   UNL     1      -4.084  13.634  21.795  0.00  0.00    +0.000 A 
ATOM     17 CL   UNL     1      -4.829  12.323  20.941  0.00  0.00    +0.000 Cl
ATOM     18  C   UNL     1      -4.915  14.666  22.239  0.00  0.00    +0.000 A 
ATOM     19  C   UNL     1      -4.380  15.747  22.936  0.00  0.00    +0.000 A 
ATOM     20  C   UNL     1      -3.011  15.798  23.189  0.00  0.00    +0.000 A 
ATOM     21  C   UNL     1      -2.174  14.771  22.738  0.00  0.00    +0.000 A 
ATOM     22 CL   UNL     1      -0.481  14.922  23.070  0.00  0.00    +0.000 Cl
ENDBRANCH   5  15
BRANCH  11  23
ATOM     23  C   UNL     1       2.209   7.313  19.020  0.00  0.00    +0.000 A 
ATOM     24  C   UNL     1       1.834   6.881  20.297  0.00  0.00    +0.000 A 
ATOM     25  C   UNL     1       1.784   5.522  20.612  0.00  0.00    +0.000 A 
ATOM     26  C   UNL     1       2.102   4.553  19.653  0.00  0.00    +0.000 A 
ATOM     27  C   UNL     1       2.539   4.982  18.393  0.00  0.00    +0.000 A 
ATOM     28  C   UNL     1       2.566   6.347  18.074  0.00  0.00    +0.000 A 
BRANCH  26  29
ATOM     29  C   UNL     1       2.021   3.095  20.040  0.00  0.00    +0.000 C 
BRANCH  29  30
ATOM     30  C   UNL     1       1.506   2.160  18.969  0.00  0.00    +0.000 C 
ATOM     31  O   UNL     1       0.342   2.130  18.594  0.00  0.00    +0.000 OA
BRANCH  30  32
ATOM     32  O   UNL     1       2.463   1.382  18.413  0.00  0.00    +0.000 OA
ATOM     33  H   UNL     1       2.465   0.466  18.754  0.00  0.00    +0.000 HD
ENDBRANCH  30  32
ENDBRANCH  29  30
ENDBRANCH  26  29
ENDBRANCH  11  23
TORSDOF 5
ENDMDL
MODEL 3
REMARK VINA RESULT:      -7.8      0.057      1.644
REMARK  Name = 
REMARK  6 active torsions:
REMARK  status: ('A' for Active; 'I' for Inactive)
REMARK    1  A    between atoms: C_1  and  N_2
REMARK    2  A    between atoms: C_5  and  C_6
REMARK    3  A    between atoms: N_19  and  C_20
REMARK    4  A    between atoms: C_23  and  C_24
REMARK    5  A    between atoms: C_24  and  C_25
REMARK    6  A    between atoms: C_25  and  O_27
REMARK                            x       y       z     vdW  Elec       q    Type
REMARK                         _______ _______ _______ _____ _____    ______ ____
ROOT
ATOM      1  C   UNL     1      -0.387   9.298  22.722  0.00  0.00    +0.000 C 
ATOM      2  N   UNL     1      -0.616  10.460  21.879  0.00  0.00    +0.000 N 
ATOM      3  C   UNL     1      -1.439  11.487  22.312  0.00  0.00    +0.000 A 
ATOM      4  O   UNL     1      -2.032  11.479  23.388  0.00  0.00    +0.000 OA
ATOM      5  C   UNL     1      -1.586  12.668  21.394  0.00  0.00    +0.000 A 
ATOM      6  C   UNL     1      -0.986  12.690  20.193  0.00  0.00    +0.000 A 
ATOM      7  C   UNL     1      -0.177  11.556  19.776  0.00  0.00    +0.000 A 
ATOM      8  C   UNL     1       0.457  11.473  18.557  0.00  0.00    +0.000 A 
ATOM      9  N   UNL     1       1.256  10.446  18.193  0.00  0.00    +0.000 NA
ATOM     10  C   UNL     1       1.402   9.454  19.082  0.00  0.00    +0.000 A 
ATOM     11  N   UNL     1       2.276   8.416  18.757  0.00  0.00    +0.000 N 
ATOM     12  N   UNL     1       0.789   9.432  20.273  0.00  0.00    +0.000 NA
ATOM     13  C   UNL     1       0.018  10.478  20.613  0.00  0.00    +0.000 A 
ATOM     14  H   UNL     1       2.635   8.564  17.822  0.00  0.00    +0.000 HD
ENDROOT
BRANCH   5  15
ATOM     15  C   UNL     1      -2.401  13.821  21.821  0.00  0.00    +0.000 A 
ATOM     16  C   UNL     1      -3.783  13.859  21.564  0.00  0.00    +0.000 A 
ATOM     17 CL   UNL     1      -4.598  12.568  20.745  0.00  0.00    +0.000 Cl
ATOM     18  C   UNL     1      -4.554  14.958  21.957  0.00  0.00    +0.000 A 
ATOM     19  C   UNL     1      -3.961  16.028  22.624  0.00  0.00    +0.000 A 
ATOM     20  C   UNL     1      -2.597  16.001  22.899  0.00  0.00    +0.000 A 
ATOM     21  C   UNL     1      -1.820  14.908  22.500  0.00  0.00    +0.000 A 
ATOM     22 CL   UNL     1      -0.126  14.963  22.857  0.00  0.00    +0.000 Cl
ENDBRANCH   5  15
BRANCH  11  23
ATOM     23  C   UNL     1       2.144   7.065  19.120  0.00  0.00    +0.000 A 
ATOM     24  C   UNL     1       1.876   6.668  20.435  0.00  0.00    +0.000 A 
ATOM     25  C   UNL     1       1.688   5.323  20.757  0.00  0.00    +0.000 A 
ATOM     26  C   UNL     1       1.757   4.334  19.768  0.00  0.00    +0.000 A 
ATOM     27  C   UNL     1       2.088   4.720  18.463  0.00  0.00    +0.000 A 
ATOM     28  C   UNL     1       2.253   6.074  18.140  0.00  0.00    +0.000 A 
BRANCH  26  29
ATOM     29  C   UNL     1       1.535   2.894  20.166  0.00  0.00    +0.000 C 
BRANCH  29  30
ATOM     30  C   UNL     1       2.009   2.516  21.552  0.00  0.00    +0.000 C 
ATOM     31  O   UNL     1       3.185   2.359  21.849  0.00  0.00    +0.000 OA
BRANCH  30  32
ATOM     32  O   UNL     1       1.016   2.415  22.464  0.00  0.00    +0.000 OA
ATOM     33  H   UNL     1       0.127   2.347  22.063  0.00  0.00    +0.000 HD
ENDBRANCH  30  32
ENDBRANCH  29  30
ENDBRANCH  26  29
ENDBRANCH  11  23
TORSDOF 5
ENDMDL
MODEL 4
REMARK VINA RESULT:      -7.8      1.039      1.234
REMARK  Name = 
REMARK  6 active torsions:
REMARK  status: ('A' for Active; 'I' for Inactive)
REMARK    1  A    between atoms: C_1  and  N_2
REMARK    2  A    between atoms: C_5  and  C_6
REMARK    3  A    between atoms: N_19  and  C_20
REMARK    4  A    between atoms: C_23  and  C_24
REMARK    5  A    between atoms: C_24  and  C_25
REMARK    6  A    between atoms: C_25  and  O_27
REMARK                            x       y       z     vdW  Elec       q    Type
REMARK                         _______ _______ _______ _____ _____    ______ ____
ROOT
ATOM      1  C   UNL     1      -0.338   9.414  22.877  0.00  0.00    +0.000 C 
ATOM      2  N   UNL     1      -0.703  10.554  22.052  0.00  0.00    +0.000 N 
ATOM      3  C   UNL     1      -1.576  11.516  22.536  0.00  0.00    +0.000 A 
ATOM      4  O   UNL     1      -2.105  11.462  23.643  0.00  0.00    +0.000 OA
ATOM      5  C   UNL     1      -1.865  12.681  21.632  0.00  0.00    +0.000 A 
ATOM      6  C   UNL     1      -1.338  12.749  20.399  0.00  0.00    +0.000 A 
ATOM      7  C   UNL     1      -0.469  11.680  19.932  0.00  0.00    +0.000 A 
ATOM      8  C   UNL     1       0.099  11.645  18.679  0.00  0.00    +0.000 A 
ATOM      9  N   UNL     1       0.952  10.682  18.266  0.00  0.00    +0.000 NA
ATOM     10  C   UNL     1       1.224   9.705  19.142  0.00  0.00    +0.000 A 
ATOM     11  N   UNL     1       2.155   8.737  18.764  0.00  0.00    +0.000 N 
ATOM     12  N   UNL     1       0.683   9.636  20.365  0.00  0.00    +0.000 NA
ATOM     13  C   UNL     1      -0.145  10.620  20.753  0.00  0.00    +0.000 A 
ATOM     14  H   UNL     1       2.448   8.911  17.811  0.00  0.00    +0.000 HD
ENDROOT
BRANCH   5  15
ATOM     15  C   UNL     1      -2.741  13.769  22.109  0.00  0.00    +0.000 A 
ATOM     16  C   UNL     1      -2.214  14.854  22.830  0.00  0.00    +0.000 A 
ATOM     17 CL   UNL     1      -0.524  14.977  23.192  0.00  0.00    +0.000 Cl
ATOM     18  C   UNL     1      -3.046  15.878  23.293  0.00  0.00    +0.000 A 
ATOM     19  C   UNL     1      -4.414  15.842  23.032  0.00  0.00    +0.000 A 
ATOM     20  C   UNL     1      -4.952  14.782  22.307  0.00  0.00    +0.000 A 
ATOM     21  C   UNL     1      -4.124  13.751  21.850  0.00  0.00    +0.000 A 
ATOM     22 CL   UNL     1      -4.875  12.456  20.978  0.00  0.00    +0.000 Cl
ENDBRANCH   5  15
BRANCH  11  23
ATOM     23  C   UNL     1       2.148   7.380  19.129  0.00  0.00    +0.000 A 
ATOM     24  C   UNL     1       1.842   6.957  20.427  0.00  0.00    +0.000 A 
ATOM     25  C   UNL     1       1.781   5.600  20.747  0.00  0.00    +0.000 A 
ATOM     26  C   UNL     1       2.019   4.623  19.773  0.00  0.00    +0.000 A 
ATOM     27  C   UNL     1       2.387   5.042  18.488  0.00  0.00    +0.000 A 
ATOM     28  C   UNL     1       2.425   6.405  18.165  0.00  0.00    +0.000 A 
BRANCH  26  29
ATOM     29  C   UNL     1       1.930   3.168  20.168  0.00  0.00    +0.000 C 
BRANCH  29  30
ATOM     30  C   UNL     1       1.413   2.229  19.100  0.00  0.00    +0.000 C 
ATOM     31  O   UNL     1       0.245   2.183  18.741  0.00  0.00    +0.000 OA
BRANCH  30  32
ATOM     32  O   UNL     1       2.374   1.469  18.526  0.00  0.00    +0.000 OA
ATOM     33  H   UNL     1       2.225   1.310  17.574  0.00  0.00    +0.000 HD
ENDBRANCH  30  32
ENDBRANCH  29  30
ENDBRANCH  26  29
ENDBRANCH  11  23
TORSDOF 5
ENDMDL
MODEL 5
REMARK VINA RESULT:      -7.8      1.471      2.693
REMARK  Name = 
REMARK  6 active torsions:
REMARK  status: ('A' for Active; 'I' for Inactive)
REMARK    1  A    between atoms: C_1  and  N_2
REMARK    2  A    between atoms: C_5  and  C_6
REMARK    3  A    between atoms: N_19  and  C_20
REMARK    4  A    between atoms: C_23  and  C_24
REMARK    5  A    between atoms: C_24  and  C_25
REMARK    6  A    between atoms: C_25  and  O_27
REMARK                            x       y       z     vdW  Elec       q    Type
REMARK                         _______ _______ _______ _____ _____    ______ ____
ROOT
ATOM      1  C   UNL     1      -0.856  10.331  23.052  0.00  0.00    +0.000 C 
ATOM      2  N   UNL     1      -1.536  11.369  22.294  0.00  0.00    +0.000 N 
ATOM      3  C   UNL     1      -2.546  12.114  22.882  0.00  0.00    +0.000 A 
ATOM      4  O   UNL     1      -2.943  11.940  24.031  0.00  0.00    +0.000 OA
ATOM      5  C   UNL     1      -3.166  13.194  22.040  0.00  0.00    +0.000 A 
ATOM      6  C   UNL     1      -2.786  13.383  20.766  0.00  0.00    +0.000 A 
ATOM      7  C   UNL     1      -1.755  12.532  20.192  0.00  0.00    +0.000 A 
ATOM      8  C   UNL     1      -1.315  12.629  18.892  0.00  0.00    +0.000 A 
ATOM      9  N   UNL     1      -0.318  11.877  18.377  0.00  0.00    +0.000 NA
ATOM     10  C   UNL     1       0.242  10.977  19.198  0.00  0.00    +0.000 A 
ATOM     11  N   UNL     1       1.320  10.238  18.710  0.00  0.00    +0.000 N 
ATOM     12  N   UNL     1      -0.152  10.785  20.463  0.00  0.00    +0.000 NA
ATOM     13  C   UNL     1      -1.133  11.563  20.952  0.00  0.00    +0.000 A 
ATOM     14  H   UNL     1       1.476  10.477  17.739  0.00  0.00    +0.000 HD
ENDROOT
BRANCH   5  15
ATOM     15  C   UNL     1      -4.206  14.062  22.624  0.00  0.00    +0.000 A 
ATOM     16  C   UNL     1      -5.570  13.761  22.459  0.00  0.00    +0.000 A 
ATOM     17 CL   UNL     1      -6.099  12.368  21.574  0.00  0.00    +0.000 Cl
ATOM     18  C   UNL     1      -6.557  14.590  23.001  0.00  0.00    +0.000 A 
ATOM     19  C   UNL     1      -6.199  15.723  23.728  0.00  0.00    +0.000 A 
ATOM     20  C   UNL     1      -4.853  16.030  23.913  0.00  0.00    +0.000 A 
ATOM     21  C   UNL     1      -3.862  15.207  23.365  0.00  0.00    +0.000 A 
ATOM     22 CL   UNL     1      -2.213  15.672  23.619  0.00  0.00    +0.000 Cl
ENDBRANCH   5  15
BRANCH  11  23
ATOM     23  C   UNL     1       1.641   8.910  19.038  0.00  0.00    +0.000 A 
ATOM     24  C   UNL     1       2.177   8.018  18.102  0.00  0.00    +0.000 A 
ATOM     25  C   UNL     1       2.545   6.723  18.470  0.00  0.00    +0.000 A 
ATOM     26  C   UNL     1       2.394   6.284  19.790  0.00  0.00    +0.000 A 
ATOM     27  C   UNL     1       1.800   7.151  20.716  0.00  0.00    +0.000 A 
ATOM     28  C   UNL     1       1.453   8.458  20.348  0.00  0.00    +0.000 A 
BRANCH  26  29
ATOM     29  C   UNL     1       2.818   4.877  20.140  0.00  0.00    +0.000 C 
BRANCH  29  30
ATOM     30  C   UNL     1       1.822   4.073  20.947  0.00  0.00    +0.000 C 
ATOM     31  O   UNL     1       2.085   3.541  22.016  0.00  0.00    +0.000 OA
BRANCH  30  32
ATOM     32  O   UNL     1       0.582   4.034  20.407  0.00  0.00    +0.000 OA
ATOM     33  H   UNL     1       0.561   3.639  19.514  0.00  0.00    +0.000 HD
ENDBRANCH  30  32
ENDBRANCH  29  30
ENDBRANCH  26  29
ENDBRANCH  11  23
TORSDOF 5
ENDMDL
MODEL 6
REMARK VINA RESULT:      -7.7      1.510      2.290
REMARK  Name = 
REMARK  6 active torsions:
REMARK  status: ('A' for Active; 'I' for Inactive)
REMARK    1  A    between atoms: C_1  and  N_2
REMARK    2  A    between atoms: C_5  and  C_6
REMARK    3  A    between atoms: N_19  and  C_20
REMARK    4  A    between atoms: C_23  and  C_24
REMARK    5  A    between atoms: C_24  and  C_25
REMARK    6  A    between atoms: C_25  and  O_27
REMARK                            x       y       z     vdW  Elec       q    Type
REMARK                         _______ _______ _______ _____ _____    ______ ____
ROOT
ATOM      1  C   UNL     1      -0.936  10.408  23.066  0.00  0.00    +0.000 C 
ATOM      2  N   UNL     1      -1.627  11.440  22.310  0.00  0.00    +0.000 N 
ATOM      3  C   UNL     1      -2.649  12.169  22.897  0.00  0.00    +0.000 A 
ATOM      4  O   UNL     1      -3.047  11.985  24.044  0.00  0.00    +0.000 OA
ATOM      5  C   UNL     1      -3.279  13.245  22.058  0.00  0.00    +0.000 A 
ATOM      6  C   UNL     1      -2.897  13.443  20.786  0.00  0.00    +0.000 A 
ATOM      7  C   UNL     1      -1.854  12.608  20.212  0.00  0.00    +0.000 A 
ATOM      8  C   UNL     1      -1.411  12.716  18.914  0.00  0.00    +0.000 A 
ATOM      9  N   UNL     1      -0.402  11.980  18.400  0.00  0.00    +0.000 NA
ATOM     10  C   UNL     1       0.167  11.084  19.218  0.00  0.00    +0.000 A 
ATOM     11  N   UNL     1       1.256  10.361  18.732  0.00  0.00    +0.000 N 
ATOM     12  N   UNL     1      -0.229  10.882  20.482  0.00  0.00    +0.000 NA
ATOM     13  C   UNL     1      -1.221  11.645  20.970  0.00  0.00    +0.000 A 
ATOM     14  H   UNL     1       1.412  10.606  17.762  0.00  0.00    +0.000 HD
ENDROOT
BRANCH   5  15
ATOM     15  C   UNL     1      -4.334  14.096  22.642  0.00  0.00    +0.000 A 
ATOM     16  C   UNL     1      -4.003  15.242  23.387  0.00  0.00    +0.000 A 
ATOM     17 CL   UNL     1      -2.358  15.715  23.655  0.00  0.00    +0.000 Cl
ATOM     18  C   UNL     1      -5.001  16.041  23.951  0.00  0.00    +0.000 A 
ATOM     19  C   UNL     1      -6.344  15.719  23.769  0.00  0.00    +0.000 A 
ATOM     20  C   UNL     1      -6.691  14.595  23.023  0.00  0.00    +0.000 A 
ATOM     21  C   UNL     1      -5.695  13.787  22.464  0.00  0.00    +0.000 A 
ATOM     22 CL   UNL     1      -6.208  12.395  21.571  0.00  0.00    +0.000 Cl
ENDBRANCH   5  15
BRANCH  11  23
ATOM     23  C   UNL     1       1.594   9.036  19.055  0.00  0.00    +0.000 A 
ATOM     24  C   UNL     1       2.175   8.165  18.127  0.00  0.00    +0.000 A 
ATOM     25  C   UNL     1       2.557   6.873  18.492  0.00  0.00    +0.000 A 
ATOM     26  C   UNL     1       2.375   6.417  19.803  0.00  0.00    +0.000 A 
ATOM     27  C   UNL     1       1.736   7.262  20.719  0.00  0.00    +0.000 A 
ATOM     28  C   UNL     1       1.375   8.566  20.354  0.00  0.00    +0.000 A 
BRANCH  26  29
ATOM     29  C   UNL     1       2.816   5.014  20.150  0.00  0.00    +0.000 C 
BRANCH  29  30
ATOM     30  C   UNL     1       1.775   4.147  20.823  0.00  0.00    +0.000 C 
ATOM     31  O   UNL     1       0.668   3.925  20.354  0.00  0.00    +0.000 OA
BRANCH  30  32
ATOM     32  O   UNL     1       2.194   3.585  21.980  0.00  0.00    +0.000 OA
ATOM     33  H   UNL     1       1.541   3.657  22.704  0.00  0.00    +0.000 HD
ENDBRANCH  30  32
ENDBRANCH  29  30
ENDBRANCH  26  29
ENDBRANCH  11  23
TORSDOF 5
ENDMDL
MODEL 7
REMARK VINA RESULT:      -7.7      1.648      2.761
REMARK  Name = 
REMARK  6 active torsions:
REMARK  status: ('A' for Active; 'I' for Inactive)
REMARK    1  A    between atoms: C_1  and  N_2
REMARK    2  A    between atoms: C_5  and  C_6
REMARK    3  A    between atoms: N_19  and  C_20
REMARK    4  A    between atoms: C_23  and  C_24
REMARK    5  A    between atoms: C_24  and  C_25
REMARK    6  A    between atoms: C_25  and  O_27
REMARK                            x       y       z     vdW  Elec       q    Type
REMARK                         _______ _______ _______ _____ _____    ______ ____
ROOT
ATOM      1  C   UNL     1      -0.979  10.402  23.088  0.00  0.00    +0.000 C 
ATOM      2  N   UNL     1      -1.653  11.452  22.341  0.00  0.00    +0.000 N 
ATOM      3  C   UNL     1      -2.685  12.170  22.923  0.00  0.00    +0.000 A 
ATOM      4  O   UNL     1      -3.106  11.962  24.058  0.00  0.00    +0.000 OA
ATOM      5  C   UNL     1      -3.298  13.264  22.094  0.00  0.00    +0.000 A 
ATOM      6  C   UNL     1      -2.890  13.489  20.835  0.00  0.00    +0.000 A 
ATOM      7  C   UNL     1      -1.837  12.664  20.264  0.00  0.00    +0.000 A 
ATOM      8  C   UNL     1      -1.368  12.799  18.977  0.00  0.00    +0.000 A 
ATOM      9  N   UNL     1      -0.350  12.072  18.468  0.00  0.00    +0.000 NA
ATOM     10  C   UNL     1       0.201  11.159  19.278  0.00  0.00    +0.000 A 
ATOM     11  N   UNL     1       1.299  10.444  18.798  0.00  0.00    +0.000 N 
ATOM     12  N   UNL     1      -0.220  10.930  20.529  0.00  0.00    +0.000 NA
ATOM     13  C   UNL     1      -1.221  11.684  21.013  0.00  0.00    +0.000 A 
ATOM     14  H   UNL     1       1.474  10.710  17.836  0.00  0.00    +0.000 HD
ENDROOT
BRANCH   5  15
ATOM     15  C   UNL     1      -4.362  14.105  22.675  0.00  0.00    +0.000 A 
ATOM     16  C   UNL     1      -5.718  13.797  22.464  0.00  0.00    +0.000 A 
ATOM     17 CL   UNL     1      -6.209  12.427  21.525  0.00  0.00    +0.000 Cl
ATOM     18  C   UNL     1      -6.727  14.601  23.004  0.00  0.00    +0.000 A 
ATOM     19  C   UNL     1      -6.399  15.715  23.774  0.00  0.00    +0.000 A 
ATOM     20  C   UNL     1      -5.062  16.027  24.004  0.00  0.00    +0.000 A 
ATOM     21  C   UNL     1      -4.049  15.230  23.459  0.00  0.00    +0.000 A 
ATOM     22 CL   UNL     1      -2.411  15.701  23.771  0.00  0.00    +0.000 Cl
ENDBRANCH   5  15
BRANCH  11  23
ATOM     23  C   UNL     1       1.628   9.112  19.099  0.00  0.00    +0.000 A 
ATOM     24  C   UNL     1       1.398   8.553  20.361  0.00  0.00    +0.000 A 
ATOM     25  C   UNL     1       1.677   7.209  20.616  0.00  0.00    +0.000 A 
ATOM     26  C   UNL     1       2.190   6.382  19.610  0.00  0.00    +0.000 A 
ATOM     27  C   UNL     1       2.481   6.951  18.363  0.00  0.00    +0.000 A 
ATOM     28  C   UNL     1       2.177   8.296  18.105  0.00  0.00    +0.000 A 
BRANCH  26  29
ATOM     29  C   UNL     1       2.464   4.932  19.933  0.00  0.00    +0.000 C 
BRANCH  29  30
ATOM     30  C   UNL     1       1.404   3.949  19.488  0.00  0.00    +0.000 C 
ATOM     31  O   UNL     1       1.316   3.512  18.350  0.00  0.00    +0.000 OA
BRANCH  30  32
ATOM     32  O   UNL     1       0.579   3.545  20.481  0.00  0.00    +0.000 OA
ATOM     33  H   UNL     1       0.898   3.787  21.373  0.00  0.00    +0.000 HD
ENDBRANCH  30  32
ENDBRANCH  29  30
ENDBRANCH  26  29
ENDBRANCH  11  23
TORSDOF 5
ENDMDL
MODEL 8
REMARK VINA RESULT:      -7.7      1.658      2.253
REMARK  Name = 
REMARK  6 active torsions:
REMARK  status: ('A' for Active; 'I' for Inactive)
REMARK    1  A    between atoms: C_1  and  N_2
REMARK    2  A    between atoms: C_5  and  C_6
REMARK    3  A    between atoms: N_19  and  C_20
REMARK    4  A    between atoms: C_23  and  C_24
REMARK    5  A    between atoms: C_24  and  C_25
REMARK    6  A    between atoms: C_25  and  O_27
REMARK                            x       y       z     vdW  Elec       q    Type
REMARK                         _______ _______ _______ _____ _____    ______ ____
ROOT
ATOM      1  C   UNL     1      -0.950  10.418  23.040  0.00  0.00    +0.000 C 
ATOM      2  N   UNL     1      -1.661  11.442  22.290  0.00  0.00    +0.000 N 
ATOM      3  C   UNL     1      -2.699  12.144  22.880  0.00  0.00    +0.000 A 
ATOM      4  O   UNL     1      -3.097  11.943  24.024  0.00  0.00    +0.000 OA
ATOM      5  C   UNL     1      -3.350  13.213  22.047  0.00  0.00    +0.000 A 
ATOM      6  C   UNL     1      -2.969  13.430  20.778  0.00  0.00    +0.000 A 
ATOM      7  C   UNL     1      -1.906  12.622  20.201  0.00  0.00    +0.000 A 
ATOM      8  C   UNL     1      -1.462  12.750  18.905  0.00  0.00    +0.000 A 
ATOM      9  N   UNL     1      -0.436  12.039  18.388  0.00  0.00    +0.000 NA
ATOM     10  C   UNL     1       0.149  11.149  19.201  0.00  0.00    +0.000 A 
ATOM     11  N   UNL     1       1.255  10.453  18.712  0.00  0.00    +0.000 N 
ATOM     12  N   UNL     1      -0.245  10.928  20.462  0.00  0.00    +0.000 NA
ATOM     13  C   UNL     1      -1.255  11.666  20.953  0.00  0.00    +0.000 A 
ATOM     14  H   UNL     1       1.409  10.710  17.744  0.00  0.00    +0.000 HD
ENDROOT
BRANCH   5  15
ATOM     15  C   UNL     1      -4.424  14.037  22.634  0.00  0.00    +0.000 A 
ATOM     16  C   UNL     1      -4.119  15.160  23.424  0.00  0.00    +0.000 A 
ATOM     17 CL   UNL     1      -2.485  15.637  23.744  0.00  0.00    +0.000 Cl
ATOM     18  C   UNL     1      -5.136  15.933  23.992  0.00  0.00    +0.000 A 
ATOM     19  C   UNL     1      -6.472  15.607  23.769  0.00  0.00    +0.000 A 
ATOM     20  C   UNL     1      -6.793  14.506  22.979  0.00  0.00    +0.000 A 
ATOM     21  C   UNL     1      -5.778  13.725  22.416  0.00  0.00    +0.000 A 
ATOM     22 CL   UNL     1      -6.261  12.358  21.467  0.00  0.00    +0.000 Cl
ENDBRANCH   5  15
BRANCH  11  23
ATOM     23  C   UNL     1       1.620   9.133  19.026  0.00  0.00    +0.000 A 
ATOM     24  C   UNL     1       1.420   8.585  20.298  0.00  0.00    +0.000 A 
ATOM     25  C   UNL     1       1.735   7.252  20.565  0.00  0.00    +0.000 A 
ATOM     26  C   UNL     1       2.253   6.424  19.563  0.00  0.00    +0.000 A 
ATOM     27  C   UNL     1       2.514   6.984  18.305  0.00  0.00    +0.000 A 
ATOM     28  C   UNL     1       2.175   8.317  18.035  0.00  0.00    +0.000 A 
BRANCH  26  29
ATOM     29  C   UNL     1       2.566   4.985  19.900  0.00  0.00    +0.000 C 
BRANCH  29  30
ATOM     30  C   UNL     1       1.526   3.971  19.476  0.00  0.00    +0.000 C 
ATOM     31  O   UNL     1       1.605   3.301  18.456  0.00  0.00    +0.000 OA
BRANCH  30  32
ATOM     32  O   UNL     1       0.511   3.824  20.358  0.00  0.00    +0.000 OA
ATOM     33  H   UNL     1      -0.365   3.753  19.932  0.00  0.00    +0.000 HD
ENDBRANCH  30  32
ENDBRANCH  29  30
ENDBRANCH  26  29
ENDBRANCH  11  23
TORSDOF 5
ENDMDL
MODEL 9
REMARK VINA RESULT:      -7.6      0.123      1.946
REMARK  Name = 
REMARK  6 active torsions:
REMARK  status: ('A' for Active; 'I' for Inactive)
REMARK    1  A    between atoms: C_1  and  N_2
REMARK    2  A    between atoms: C_5  and  C_6
REMARK    3  A    between atoms: N_19  and  C_20
REMARK    4  A    between atoms: C_23  and  C_24
REMARK    5  A    between atoms: C_24  and  C_25
REMARK    6  A    between atoms: C_25  and  O_27
REMARK                            x       y       z     vdW  Elec       q    Type
REMARK                         _______ _______ _______ _____ _____    ______ ____
ROOT
ATOM      1  C   UNL     1      -0.412   9.264  22.642  0.00  0.00    +0.000 C 
ATOM      2  N   UNL     1      -0.608  10.447  21.819  0.00  0.00    +0.000 N 
ATOM      3  C   UNL     1      -1.416  11.481  22.264  0.00  0.00    +0.000 A 
ATOM      4  O   UNL     1      -2.023  11.462  23.332  0.00  0.00    +0.000 OA
ATOM      5  C   UNL     1      -1.529  12.682  21.369  0.00  0.00    +0.000 A 
ATOM      6  C   UNL     1      -0.914  12.717  20.176  0.00  0.00    +0.000 A 
ATOM      7  C   UNL     1      -0.122  11.576  19.745  0.00  0.00    +0.000 A 
ATOM      8  C   UNL     1       0.526  11.505  18.532  0.00  0.00    +0.000 A 
ATOM      9  N   UNL     1       1.309  10.470  18.157  0.00  0.00    +0.000 NA
ATOM     10  C   UNL     1       1.425   9.458  19.027  0.00  0.00    +0.000 A 
ATOM     11  N   UNL     1       2.283   8.411  18.692  0.00  0.00    +0.000 N 
ATOM     12  N   UNL     1       0.797   9.424  20.210  0.00  0.00    +0.000 NA
ATOM     13  C   UNL     1       0.042  10.478  20.562  0.00  0.00    +0.000 A 
ATOM     14  H   UNL     1       2.656   8.570  17.764  0.00  0.00    +0.000 HD
ENDROOT
BRANCH   5  15
ATOM     15  C   UNL     1      -2.328  13.842  21.809  0.00  0.00    +0.000 A 
ATOM     16  C   UNL     1      -3.712  13.896  21.568  0.00  0.00    +0.000 A 
ATOM     17 CL   UNL     1      -4.549  12.616  20.755  0.00  0.00    +0.000 Cl
ATOM     18  C   UNL     1      -4.467  15.001  21.974  0.00  0.00    +0.000 A 
ATOM     19  C   UNL     1      -3.856  16.062  22.638  0.00  0.00    +0.000 A 
ATOM     20  C   UNL     1      -2.488  16.020  22.896  0.00  0.00    +0.000 A 
ATOM     21  C   UNL     1      -1.727  14.920  22.485  0.00  0.00    +0.000 A 
ATOM     22 CL   UNL     1      -0.029  14.957  22.822  0.00  0.00    +0.000 Cl
ENDBRANCH   5  15
BRANCH  11  23
ATOM     23  C   UNL     1       2.121   7.055  19.026  0.00  0.00    +0.000 A 
ATOM     24  C   UNL     1       2.175   6.038  18.067  0.00  0.00    +0.000 A 
ATOM     25  C   UNL     1       2.072   4.695  18.435  0.00  0.00    +0.000 A 
ATOM     26  C   UNL     1       1.919   4.331  19.777  0.00  0.00    +0.000 A 
ATOM     27  C   UNL     1       1.801   5.347  20.734  0.00  0.00    +0.000 A 
ATOM     28  C   UNL     1       1.928   6.693  20.363  0.00  0.00    +0.000 A 
BRANCH  26  29
ATOM     29  C   UNL     1       1.824   2.863  20.124  0.00  0.00    +0.000 C 
BRANCH  29  30
ATOM     30  C   UNL     1       2.057   2.517  21.578  0.00  0.00    +0.000 C 
ATOM     31  O   UNL     1       1.162   2.409  22.404  0.00  0.00    +0.000 OA
BRANCH  30  32
ATOM     32  O   UNL     1       3.353   2.279  21.885  0.00  0.00    +0.000 OA
ATOM     33  H   UNL     1       3.924   2.173  21.099  0.00  0.00    +0.000 HD
ENDBRANCH  30  32
ENDBRANCH  29  30
ENDBRANCH  26  29
ENDBRANCH  11  23
TORSDOF 5
ENDMDL
