MODEL 1
REMARK VINA RESULT:      -9.1      0.000      0.000
REMARK  Name = 
REMARK  7 active torsions:
REMARK  status: ('A' for Active; 'I' for Inactive)
REMARK    1  A    between atoms: C_1  and  C_2
REMARK    2  A    between atoms: C_5  and  C_6
REMARK    3  A    between atoms: C_6  and  N_7
REMARK    4  A    between atoms: C_11  and  C_12
REMARK    5  A    between atoms: C_12  and  N_13
REMARK    6  A    between atoms: C_16  and  N_17
REMARK    7  A    between atoms: C_18  and  C_20
REMARK                            x       y       z     vdW  Elec       q    Type
REMARK                         _______ _______ _______ _____ _____    ______ ____
ROOT
ATOM      1  N   UNL     1       2.512   5.564  19.170  0.00  0.00    +0.000 NA
ATOM      2  C   UNL     1       1.931   4.797  18.043  0.00  0.00    +0.000 C 
ATOM      3  C   UNL     1       2.258   3.294  17.981  0.00  0.00    +0.000 C 
ATOM      4  C   UNL     1       3.756   2.935  18.145  0.00  0.00    +0.000 C 
ATOM      5  C   UNL     1       4.222   3.670  19.405  0.00  0.00    +0.000 C 
ATOM      6  C   UNL     1       3.907   5.179  19.440  0.00  0.00    +0.000 C 
ENDROOT
BRANCH   4   7
ATOM      7  N   UNL     1       4.546   3.220  16.928  0.00  0.00    +0.000 N 
ATOM      8  C   UNL     1       5.559   4.042  16.476  0.00  0.00    +0.000 C 
ATOM      9  O   UNL     1       5.923   3.765  15.324  0.00  0.00    +0.000 OA
ATOM     10  H   UNL     1       4.303   2.629  16.143  0.00  0.00    +0.000 HD
BRANCH   8  11
ATOM     11  C   UNL     1       6.290   5.200  17.122  0.00  0.00    +0.000 A 
ATOM     12  C   UNL     1       7.234   4.850  18.139  0.00  0.00    +0.000 A 
ATOM     13  C   UNL     1       8.068   5.794  18.766  0.00  0.00    +0.000 A 
ATOM     14  C   UNL     1       7.963   7.130  18.417  0.00  0.00    +0.000 A 
ATOM     15  C   UNL     1       7.014   7.507  17.466  0.00  0.00    +0.000 A 
ATOM     16  C   UNL     1       6.187   6.553  16.834  0.00  0.00    +0.000 A 
ATOM     17  F   UNL     1       5.287   7.010  15.967  0.00  0.00    +0.000 F 
ENDBRANCH   8  11
ENDBRANCH   4   7
BRANCH   1  18
ATOM     18  C   UNL     1       2.363   7.023  18.842  0.00  0.00    +0.000 C 
BRANCH  18  23
ATOM     19  N   UNL     1       1.247   9.215  19.614  0.00  0.00    +0.000 N 
ATOM     20  N   UNL     1       0.859   9.763  20.785  0.00  0.00    +0.000 NA
ATOM     21  N   UNL     1       1.117   8.848  21.703  0.00  0.00    +0.000 NA
ATOM     22  N   UNL     1       1.638   7.719  21.132  0.00  0.00    +0.000 NA
ATOM     23  C   UNL     1       1.714   7.944  19.829  0.00  0.00    +0.000 A 
BRANCH  19  24
ATOM     24  C   UNL     1       1.018   9.941  18.385  0.00  0.00    +0.000 C 
BRANCH  24  29
ATOM     25  C   UNL     1      -4.493  11.624  17.487  0.00  0.00    +0.000 C 
ATOM     26  C   UNL     1      -3.086  11.167  17.742  0.00  0.00    +0.000 A 
ATOM     27  C   UNL     1      -2.227  11.920  18.547  0.00  0.00    +0.000 A 
ATOM     28  C   UNL     1      -0.912  11.507  18.767  0.00  0.00    +0.000 A 
ATOM     29  C   UNL     1      -0.425  10.329  18.188  0.00  0.00    +0.000 A 
ATOM     30  C   UNL     1      -1.289   9.576  17.372  0.00  0.00    +0.000 A 
ATOM     31  C   UNL     1      -2.607   9.992  17.153  0.00  0.00    +0.000 A 
ENDBRANCH  24  29
ENDBRANCH  19  24
ENDBRANCH  18  23
ENDBRANCH   1  18
TORSDOF 6
ENDMDL
MODEL 2
REMARK VINA RESULT:      -8.8      1.743      3.462
REMARK  Name = 
REMARK  7 active torsions:
REMARK  status: ('A' for Active; 'I' for Inactive)
REMARK    1  A    between atoms: C_1  and  C_2
REMARK    2  A    between atoms: C_5  and  C_6
REMARK    3  A    between atoms: C_6  and  N_7
REMARK    4  A    between atoms: C_11  and  C_12
REMARK    5  A    between atoms: C_12  and  N_13
REMARK    6  A    between atoms: C_16  and  N_17
REMARK    7  A    between atoms: C_18  and  C_20
REMARK                            x       y       z     vdW  Elec       q    Type
REMARK                         _______ _______ _______ _____ _____    ______ ____
ROOT
ATOM      1  N   UNL     1       3.825   7.021  18.186  0.00  0.00    +0.000 NA
ATOM      2  C   UNL     1       4.058   6.030  19.262  0.00  0.00    +0.000 C 
ATOM      3  C   UNL     1       5.402   5.279  19.239  0.00  0.00    +0.000 C 
ATOM      4  C   UNL     1       5.797   4.672  17.871  0.00  0.00    +0.000 C 
ATOM      5  C   UNL     1       5.648   5.808  16.856  0.00  0.00    +0.000 C 
ATOM      6  C   UNL     1       4.288   6.534  16.876  0.00  0.00    +0.000 C 
ENDROOT
BRANCH   4   7
ATOM      7  N   UNL     1       5.036   3.445  17.551  0.00  0.00    +0.000 N 
ATOM      8  C   UNL     1       3.898   2.760  17.931  0.00  0.00    +0.000 C 
ATOM      9  O   UNL     1       3.669   1.777  17.211  0.00  0.00    +0.000 OA
ATOM     10  H   UNL     1       5.444   2.903  16.800  0.00  0.00    +0.000 HD
BRANCH   8  11
ATOM     11  C   UNL     1       2.902   2.989  19.047  0.00  0.00    +0.000 A 
ATOM     12  C   UNL     1       3.292   2.511  20.338  0.00  0.00    +0.000 A 
ATOM     13  C   UNL     1       2.529   2.733  21.499  0.00  0.00    +0.000 A 
ATOM     14  C   UNL     1       1.330   3.417  21.402  0.00  0.00    +0.000 A 
ATOM     15  C   UNL     1       0.898   3.849  20.147  0.00  0.00    +0.000 A 
ATOM     16  C   UNL     1       1.673   3.631  18.988  0.00  0.00    +0.000 A 
ATOM     17  F   UNL     1       1.164   4.047  17.831  0.00  0.00    +0.000 F 
ENDBRANCH   8  11
ENDBRANCH   4   7
BRANCH   1  18
ATOM     18  C   UNL     1       2.361   7.359  18.198  0.00  0.00    +0.000 C 
BRANCH  18  23
ATOM     19  N   UNL     1       1.274   9.261  19.556  0.00  0.00    +0.000 N 
ATOM     20  N   UNL     1       0.935   9.482  20.844  0.00  0.00    +0.000 NA
ATOM     21  N   UNL     1       1.234   8.365  21.483  0.00  0.00    +0.000 NA
ATOM     22  N   UNL     1       1.734   7.429  20.618  0.00  0.00    +0.000 NA
ATOM     23  C   UNL     1       1.752   7.984  19.416  0.00  0.00    +0.000 A 
BRANCH  19  24
ATOM     24  C   UNL     1       0.990  10.277  18.567  0.00  0.00    +0.000 C 
BRANCH  24  29
ATOM     25  C   UNL     1      -4.668  11.290  17.576  0.00  0.00    +0.000 C 
ATOM     26  C   UNL     1      -3.221  11.003  17.854  0.00  0.00    +0.000 A 
ATOM     27  C   UNL     1      -2.486  11.817  18.721  0.00  0.00    +0.000 A 
ATOM     28  C   UNL     1      -1.135  11.563  18.962  0.00  0.00    +0.000 A 
ATOM     29  C   UNL     1      -0.486  10.487  18.343  0.00  0.00    +0.000 A 
ATOM     30  C   UNL     1      -1.225   9.674  17.465  0.00  0.00    +0.000 A 
ATOM     31  C   UNL     1      -2.580   9.930  17.225  0.00  0.00    +0.000 A 
ENDBRANCH  24  29
ENDBRANCH  19  24
ENDBRANCH  18  23
ENDBRANCH   1  18
TORSDOF 6
ENDMDL
MODEL 3
REMARK VINA RESULT:      -8.7      1.999      2.823
REMARK  Name = 
REMARK  7 active torsions:
REMARK  status: ('A' for Active; 'I' for Inactive)
REMARK    1  A    between atoms: C_1  and  C_2
REMARK    2  A    between atoms: C_5  and  C_6
REMARK    3  A    between atoms: C_6  and  N_7
REMARK    4  A    between atoms: C_11  and  C_12
REMARK    5  A    between atoms: C_12  and  N_13
REMARK    6  A    between atoms: C_16  and  N_17
REMARK    7  A    between atoms: C_18  and  C_20
REMARK                            x       y       z     vdW  Elec       q    Type
REMARK                         _______ _______ _______ _____ _____    ______ ____
ROOT
ATOM      1  N   UNL     1       1.527   7.730  20.084  0.00  0.00    +0.000 NA
ATOM      2  C   UNL     1       2.331   7.639  18.842  0.00  0.00    +0.000 C 
ATOM      3  C   UNL     1       2.422   6.256  18.170  0.00  0.00    +0.000 C 
ATOM      4  C   UNL     1       2.780   5.084  19.116  0.00  0.00    +0.000 C 
ATOM      5  C   UNL     1       1.810   5.192  20.296  0.00  0.00    +0.000 C 
ATOM      6  C   UNL     1       1.749   6.577  20.971  0.00  0.00    +0.000 C 
ENDROOT
BRANCH   4   7
ATOM      7  N   UNL     1       4.212   5.067  19.484  0.00  0.00    +0.000 N 
ATOM      8  C   UNL     1       5.467   5.039  18.907  0.00  0.00    +0.000 C 
ATOM      9  O   UNL     1       6.378   5.149  19.740  0.00  0.00    +0.000 OA
ATOM     10  H   UNL     1       4.371   5.096  20.483  0.00  0.00    +0.000 HD
BRANCH   8  11
ATOM     11  C   UNL     1       5.919   4.901  17.470  0.00  0.00    +0.000 A 
ATOM     12  C   UNL     1       4.923   5.161  16.476  0.00  0.00    +0.000 A 
ATOM     13  C   UNL     1       5.203   5.176  15.097  0.00  0.00    +0.000 A 
ATOM     14  C   UNL     1       6.488   4.899  14.663  0.00  0.00    +0.000 A 
ATOM     15  C   UNL     1       7.468   4.590  15.607  0.00  0.00    +0.000 A 
ATOM     16  C   UNL     1       7.182   4.586  16.989  0.00  0.00    +0.000 A 
ATOM     17  F   UNL     1       8.170   4.244  17.812  0.00  0.00    +0.000 F 
ENDBRANCH   8  11
ENDBRANCH   4   7
BRANCH   1  18
ATOM     18  C   UNL     1       1.861   9.041  20.737  0.00  0.00    +0.000 C 
BRANCH  18  23
ATOM     19  N   UNL     1       0.276  10.886  21.591  0.00  0.00    +0.000 N 
ATOM     20  N   UNL     1      -0.420  11.142  22.719  0.00  0.00    +0.000 NA
ATOM     21  N   UNL     1      -0.205  10.103  23.507  0.00  0.00    +0.000 NA
ATOM     22  N   UNL     1       0.595   9.180  22.889  0.00  0.00    +0.000 NA
ATOM     23  C   UNL     1       0.889   9.664  21.692  0.00  0.00    +0.000 A 
BRANCH  19  24
ATOM     24  C   UNL     1       0.181  11.806  20.480  0.00  0.00    +0.000 C 
BRANCH  24  29
ATOM     25  C   UNL     1      -4.061  10.659  16.645  0.00  0.00    +0.000 C 
ATOM     26  C   UNL     1      -2.977  10.924  17.648  0.00  0.00    +0.000 A 
ATOM     27  C   UNL     1      -3.184  11.818  18.703  0.00  0.00    +0.000 A 
ATOM     28  C   UNL     1      -2.167  12.080  19.623  0.00  0.00    +0.000 A 
ATOM     29  C   UNL     1      -0.921  11.453  19.513  0.00  0.00    +0.000 A 
ATOM     30  C   UNL     1      -0.712  10.560  18.446  0.00  0.00    +0.000 A 
ATOM     31  C   UNL     1      -1.732  10.297  17.525  0.00  0.00    +0.000 A 
ENDBRANCH  24  29
ENDBRANCH  19  24
ENDBRANCH  18  23
ENDBRANCH   1  18
TORSDOF 6
ENDMDL
MODEL 4
REMARK VINA RESULT:      -8.7      0.889      1.517
REMARK  Name = 
REMARK  7 active torsions:
REMARK  status: ('A' for Active; 'I' for Inactive)
REMARK    1  A    between atoms: C_1  and  C_2
REMARK    2  A    between atoms: C_5  and  C_6
REMARK    3  A    between atoms: C_6  and  N_7
REMARK    4  A    between atoms: C_11  and  C_12
REMARK    5  A    between atoms: C_12  and  N_13
REMARK    6  A    between atoms: C_16  and  N_17
REMARK    7  A    between atoms: C_18  and  C_20
REMARK                            x       y       z     vdW  Elec       q    Type
REMARK                         _______ _______ _______ _____ _____    ______ ____
ROOT
ATOM      1  N   UNL     1       2.696   5.584  19.227  0.00  0.00    +0.000 NA
ATOM      2  C   UNL     1       2.059   4.774  18.163  0.00  0.00    +0.000 C 
ATOM      3  C   UNL     1       2.434   3.281  18.104  0.00  0.00    +0.000 C 
ATOM      4  C   UNL     1       3.952   2.979  18.159  0.00  0.00    +0.000 C 
ATOM      5  C   UNL     1       4.486   3.756  19.365  0.00  0.00    +0.000 C 
ATOM      6  C   UNL     1       4.120   5.254  19.396  0.00  0.00    +0.000 C 
ENDROOT
BRANCH   4   7
ATOM      7  N   UNL     1       4.636   3.264  16.879  0.00  0.00    +0.000 N 
ATOM      8  C   UNL     1       5.602   4.093  16.343  0.00  0.00    +0.000 C 
ATOM      9  O   UNL     1       5.871   3.813  15.165  0.00  0.00    +0.000 OA
ATOM     10  H   UNL     1       4.334   2.668  16.120  0.00  0.00    +0.000 HD
BRANCH   8  11
ATOM     11  C   UNL     1       6.374   5.259  16.922  0.00  0.00    +0.000 A 
ATOM     12  C   UNL     1       5.874   6.560  16.598  0.00  0.00    +0.000 A 
ATOM     13  C   UNL     1       6.412   7.743  17.136  0.00  0.00    +0.000 A 
ATOM     14  C   UNL     1       7.494   7.666  17.997  0.00  0.00    +0.000 A 
ATOM     15  C   UNL     1       8.036   6.414  18.289  0.00  0.00    +0.000 A 
ATOM     16  C   UNL     1       7.485   5.230  17.753  0.00  0.00    +0.000 A 
ATOM     17  F   UNL     1       8.091   4.086  18.059  0.00  0.00    +0.000 F 
ENDBRANCH   8  11
ENDBRANCH   4   7
BRANCH   1  18
ATOM     18  C   UNL     1       2.469   7.030  18.885  0.00  0.00    +0.000 C 
BRANCH  18  23
ATOM     19  N   UNL     1       1.273   9.185  19.640  0.00  0.00    +0.000 N 
ATOM     20  N   UNL     1       0.824   9.706  20.801  0.00  0.00    +0.000 NA
ATOM     21  N   UNL     1       1.062   8.783  21.716  0.00  0.00    +0.000 NA
ATOM     22  N   UNL     1       1.632   7.674  21.151  0.00  0.00    +0.000 NA
ATOM     23  C   UNL     1       1.758   7.921  19.856  0.00  0.00    +0.000 A 
BRANCH  19  24
ATOM     24  C   UNL     1       1.081   9.925  18.413  0.00  0.00    +0.000 C 
BRANCH  24  29
ATOM     25  C   UNL     1      -4.474  11.607  17.839  0.00  0.00    +0.000 C 
ATOM     26  C   UNL     1      -3.035  11.198  17.962  0.00  0.00    +0.000 A 
ATOM     27  C   UNL     1      -2.566  10.042  17.333  0.00  0.00    +0.000 A 
ATOM     28  C   UNL     1      -1.232   9.650  17.466  0.00  0.00    +0.000 A 
ATOM     29  C   UNL     1      -0.336  10.407  18.230  0.00  0.00    +0.000 A 
ATOM     30  C   UNL     1      -0.812  11.566  18.868  0.00  0.00    +0.000 A 
ATOM     31  C   UNL     1      -2.149  11.958  18.733  0.00  0.00    +0.000 A 
ENDBRANCH  24  29
ENDBRANCH  19  24
ENDBRANCH  18  23
ENDBRANCH   1  18
TORSDOF 6
ENDMDL
MODEL 5
REMARK VINA RESULT:      -8.7      1.659      2.181
REMARK  Name = 
REMARK  7 active torsions:
REMARK  status: ('A' for Active; 'I' for Inactive)
REMARK    1  A    between atoms: C_1  and  C_2
REMARK    2  A    between atoms: C_5  and  C_6
REMARK    3  A    between atoms: C_6  and  N_7
REMARK    4  A    between atoms: C_11  and  C_12
REMARK    5  A    between atoms: C_12  and  N_13
REMARK    6  A    between atoms: C_16  and  N_17
REMARK    7  A    between atoms: C_18  and  C_20
REMARK                            x       y       z     vdW  Elec       q    Type
REMARK                         _______ _______ _______ _____ _____    ______ ____
ROOT
ATOM      1  N   UNL     1       1.412   6.118  19.555  0.00  0.00    +0.000 NA
ATOM      2  C   UNL     1       1.973   5.498  18.333  0.00  0.00    +0.000 C 
ATOM      3  C   UNL     1       1.567   4.041  18.040  0.00  0.00    +0.000 C 
ATOM      4  C   UNL     1       1.701   3.065  19.234  0.00  0.00    +0.000 C 
ATOM      5  C   UNL     1       0.978   3.739  20.403  0.00  0.00    +0.000 C 
ATOM      6  C   UNL     1       1.414   5.189  20.697  0.00  0.00    +0.000 C 
ENDROOT
BRANCH   4   7
ATOM      7  N   UNL     1       3.104   2.684  19.504  0.00  0.00    +0.000 N 
ATOM      8  C   UNL     1       4.396   3.049  19.175  0.00  0.00    +0.000 C 
ATOM      9  O   UNL     1       5.248   2.411  19.810  0.00  0.00    +0.000 OA
ATOM     10  H   UNL     1       3.195   1.910  20.148  0.00  0.00    +0.000 HD
BRANCH   8  11
ATOM     11  C   UNL     1       4.945   4.065  18.199  0.00  0.00    +0.000 A 
ATOM     12  C   UNL     1       4.823   3.727  16.813  0.00  0.00    +0.000 A 
ATOM     13  C   UNL     1       5.190   4.605  15.776  0.00  0.00    +0.000 A 
ATOM     14  C   UNL     1       5.721   5.843  16.092  0.00  0.00    +0.000 A 
ATOM     15  C   UNL     1       5.900   6.180  17.434  0.00  0.00    +0.000 A 
ATOM     16  C   UNL     1       5.522   5.298  18.470  0.00  0.00    +0.000 A 
ATOM     17  F   UNL     1       5.764   5.689  19.718  0.00  0.00    +0.000 F 
ENDBRANCH   8  11
ENDBRANCH   4   7
BRANCH   1  18
ATOM     18  C   UNL     1       2.197   7.371  19.822  0.00  0.00    +0.000 C 
BRANCH  18  23
ATOM     19  N   UNL     1       1.124   9.702  20.068  0.00  0.00    +0.000 N 
ATOM     20  N   UNL     1       0.737  10.506  21.081  0.00  0.00    +0.000 NA
ATOM     21  N   UNL     1       0.965   9.815  22.184  0.00  0.00    +0.000 NA
ATOM     22  N   UNL     1       1.467   8.576  21.888  0.00  0.00    +0.000 NA
ATOM     23  C   UNL     1       1.559   8.503  20.569  0.00  0.00    +0.000 A 
BRANCH  19  24
ATOM     24  C   UNL     1       0.923  10.139  18.705  0.00  0.00    +0.000 C 
BRANCH  24  29
ATOM     25  C   UNL     1      -4.600  11.411  17.326  0.00  0.00    +0.000 C 
ATOM     26  C   UNL     1      -3.190  11.059  17.703  0.00  0.00    +0.000 A 
ATOM     27  C   UNL     1      -2.470  11.858  18.596  0.00  0.00    +0.000 A 
ATOM     28  C   UNL     1      -1.151  11.542  18.930  0.00  0.00    +0.000 A 
ATOM     29  C   UNL     1      -0.523  10.418  18.381  0.00  0.00    +0.000 A 
ATOM     30  C   UNL     1      -1.246   9.620  17.477  0.00  0.00    +0.000 A 
ATOM     31  C   UNL     1      -2.568   9.938  17.144  0.00  0.00    +0.000 A 
ENDBRANCH  24  29
ENDBRANCH  19  24
ENDBRANCH  18  23
ENDBRANCH   1  18
TORSDOF 6
ENDMDL
MODEL 6
REMARK VINA RESULT:      -8.6      6.640      9.120
REMARK  Name = 
REMARK  7 active torsions:
REMARK  status: ('A' for Active; 'I' for Inactive)
REMARK    1  A    between atoms: C_1  and  C_2
REMARK    2  A    between atoms: C_5  and  C_6
REMARK    3  A    between atoms: C_6  and  N_7
REMARK    4  A    between atoms: C_11  and  C_12
REMARK    5  A    between atoms: C_12  and  N_13
REMARK    6  A    between atoms: C_16  and  N_17
REMARK    7  A    between atoms: C_18  and  C_20
REMARK                            x       y       z     vdW  Elec       q    Type
REMARK                         _______ _______ _______ _____ _____    ______ ____
ROOT
ATOM      1  N   UNL     1      -5.308  10.852  17.775  0.00  0.00    +0.000 NA
ATOM      2  C   UNL     1      -4.909  11.782  16.694  0.00  0.00    +0.000 C 
ATOM      3  C   UNL     1      -3.709  11.365  15.823  0.00  0.00    +0.000 C 
ATOM      4  C   UNL     1      -2.456  10.897  16.603  0.00  0.00    +0.000 C 
ATOM      5  C   UNL     1      -2.958   9.847  17.599  0.00  0.00    +0.000 C 
ATOM      6  C   UNL     1      -4.144  10.289  18.479  0.00  0.00    +0.000 C 
ENDROOT
BRANCH   4   7
ATOM      7  N   UNL     1      -1.707  12.021  17.205  0.00  0.00    +0.000 N 
ATOM      8  C   UNL     1      -0.982  12.341  18.336  0.00  0.00    +0.000 C 
ATOM      9  O   UNL     1      -0.458  13.462  18.267  0.00  0.00    +0.000 OA
ATOM     10  H   UNL     1      -1.682  12.846  16.621  0.00  0.00    +0.000 HD
BRANCH   8  11
ATOM     11  C   UNL     1      -0.719  11.585  19.621  0.00  0.00    +0.000 A 
ATOM     12  C   UNL     1      -1.203  12.203  20.817  0.00  0.00    +0.000 A 
ATOM     13  C   UNL     1      -1.132  11.586  22.080  0.00  0.00    +0.000 A 
ATOM     14  C   UNL     1      -0.544  10.338  22.193  0.00  0.00    +0.000 A 
ATOM     15  C   UNL     1      -0.016   9.734  21.051  0.00  0.00    +0.000 A 
ATOM     16  C   UNL     1      -0.099  10.355  19.786  0.00  0.00    +0.000 A 
ATOM     17  F   UNL     1       0.464   9.720  18.761  0.00  0.00    +0.000 F 
ENDBRANCH   8  11
ENDBRANCH   4   7
BRANCH   1  18
ATOM     18  C   UNL     1      -6.236  11.601  18.690  0.00  0.00    +0.000 C 
BRANCH  18  23
ATOM     19  N   UNL     1      -7.270  11.354  21.038  0.00  0.00    +0.000 N 
ATOM     20  N   UNL     1      -7.759  10.351  21.798  0.00  0.00    +0.000 NA
ATOM     21  N   UNL     1      -7.690   9.271  21.040  0.00  0.00    +0.000 NA
ATOM     22  N   UNL     1      -7.189   9.575  19.804  0.00  0.00    +0.000 NA
ATOM     23  C   UNL     1      -6.932  10.874  19.799  0.00  0.00    +0.000 A 
BRANCH  19  24
ATOM     24  C   UNL     1      -7.286  12.704  21.556  0.00  0.00    +0.000 C 
BRANCH  24  29
ATOM     25  C   UNL     1      -2.331  14.480  24.068  0.00  0.00    +0.000 C 
ATOM     26  C   UNL     1      -3.591  13.991  23.416  0.00  0.00    +0.000 A 
ATOM     27  C   UNL     1      -3.905  14.361  22.105  0.00  0.00    +0.000 A 
ATOM     28  C   UNL     1      -5.088  13.924  21.505  0.00  0.00    +0.000 A 
ATOM     29  C   UNL     1      -5.984  13.105  22.202  0.00  0.00    +0.000 A 
ATOM     30  C   UNL     1      -5.671  12.740  23.524  0.00  0.00    +0.000 A 
ATOM     31  C   UNL     1      -4.484  13.179  24.123  0.00  0.00    +0.000 A 
ENDBRANCH  24  29
ENDBRANCH  19  24
ENDBRANCH  18  23
ENDBRANCH   1  18
TORSDOF 6
ENDMDL
MODEL 7
REMARK VINA RESULT:      -8.6      1.269      1.895
REMARK  Name = 
REMARK  7 active torsions:
REMARK  status: ('A' for Active; 'I' for Inactive)
REMARK    1  A    between atoms: C_1  and  C_2
REMARK    2  A    between atoms: C_5  and  C_6
REMARK    3  A    between atoms: C_6  and  N_7
REMARK    4  A    between atoms: C_11  and  C_12
REMARK    5  A    between atoms: C_12  and  N_13
REMARK    6  A    between atoms: C_16  and  N_17
REMARK    7  A    between atoms: C_18  and  C_20
REMARK                            x       y       z     vdW  Elec       q    Type
REMARK                         _______ _______ _______ _____ _____    ______ ____
ROOT
ATOM      1  N   UNL     1       2.649   5.487  19.122  0.00  0.00    +0.000 NA
ATOM      2  C   UNL     1       2.061   4.763  17.971  0.00  0.00    +0.000 C 
ATOM      3  C   UNL     1       2.336   3.251  17.883  0.00  0.00    +0.000 C 
ATOM      4  C   UNL     1       3.816   2.836  18.064  0.00  0.00    +0.000 C 
ATOM      5  C   UNL     1       4.287   3.529  19.346  0.00  0.00    +0.000 C 
ATOM      6  C   UNL     1       4.024   5.047  19.407  0.00  0.00    +0.000 C 
ENDROOT
BRANCH   4   7
ATOM      7  N   UNL     1       4.637   3.117  16.866  0.00  0.00    +0.000 N 
ATOM      8  C   UNL     1       5.644   3.955  16.429  0.00  0.00    +0.000 C 
ATOM      9  O   UNL     1       6.050   3.664  15.295  0.00  0.00    +0.000 OA
ATOM     10  H   UNL     1       4.433   2.505  16.086  0.00  0.00    +0.000 HD
BRANCH   8  11
ATOM     11  C   UNL     1       6.326   5.142  17.074  0.00  0.00    +0.000 A 
ATOM     12  C   UNL     1       7.289   4.832  18.087  0.00  0.00    +0.000 A 
ATOM     13  C   UNL     1       8.084   5.811  18.712  0.00  0.00    +0.000 A 
ATOM     14  C   UNL     1       7.920   7.141  18.365  0.00  0.00    +0.000 A 
ATOM     15  C   UNL     1       6.952   7.478  17.419  0.00  0.00    +0.000 A 
ATOM     16  C   UNL     1       6.164   6.490  16.789  0.00  0.00    +0.000 A 
ATOM     17  F   UNL     1       5.242   6.909  15.926  0.00  0.00    +0.000 F 
ENDBRANCH   8  11
ENDBRANCH   4   7
BRANCH   1  18
ATOM     18  C   UNL     1       2.556   6.956  18.822  0.00  0.00    +0.000 C 
BRANCH  18  23
ATOM     19  N   UNL     1       1.378   9.143  19.509  0.00  0.00    +0.000 N 
ATOM     20  N   UNL     1       0.834   9.657  20.633  0.00  0.00    +0.000 NA
ATOM     21  N   UNL     1       0.941   8.705  21.542  0.00  0.00    +0.000 NA
ATOM     22  N   UNL     1       1.521   7.585  21.009  0.00  0.00    +0.000 NA
ATOM     23  C   UNL     1       1.787   7.855  19.740  0.00  0.00    +0.000 A 
BRANCH  19  24
ATOM     24  C   UNL     1       1.341   9.918  18.289  0.00  0.00    +0.000 C 
BRANCH  24  29
ATOM     25  C   UNL     1      -0.189  15.510  18.925  0.00  0.00    +0.000 C 
ATOM     26  C   UNL     1       0.199  14.066  18.796  0.00  0.00    +0.000 A 
ATOM     27  C   UNL     1       1.544  13.691  18.740  0.00  0.00    +0.000 A 
ATOM     28  C   UNL     1       1.904  12.349  18.598  0.00  0.00    +0.000 A 
ATOM     29  C   UNL     1       0.927  11.350  18.511  0.00  0.00    +0.000 A 
ATOM     30  C   UNL     1      -0.427  11.730  18.560  0.00  0.00    +0.000 A 
ATOM     31  C   UNL     1      -0.785  13.075  18.703  0.00  0.00    +0.000 A 
ENDBRANCH  24  29
ENDBRANCH  19  24
ENDBRANCH  18  23
ENDBRANCH   1  18
TORSDOF 6
ENDMDL
MODEL 8
REMARK VINA RESULT:      -8.6      3.068      7.995
REMARK  Name = 
REMARK  7 active torsions:
REMARK  status: ('A' for Active; 'I' for Inactive)
REMARK    1  A    between atoms: C_1  and  C_2
REMARK    2  A    between atoms: C_5  and  C_6
REMARK    3  A    between atoms: C_6  and  N_7
REMARK    4  A    between atoms: C_11  and  C_12
REMARK    5  A    between atoms: C_12  and  N_13
REMARK    6  A    between atoms: C_16  and  N_17
REMARK    7  A    between atoms: C_18  and  C_20
REMARK                            x       y       z     vdW  Elec       q    Type
REMARK                         _______ _______ _______ _____ _____    ______ ____
ROOT
ATOM      1  N   UNL     1       4.146   3.897  18.682  0.00  0.00    +0.000 NA
ATOM      2  C   UNL     1       4.035   4.998  19.667  0.00  0.00    +0.000 C 
ATOM      3  C   UNL     1       2.618   5.511  19.983  0.00  0.00    +0.000 C 
ATOM      4  C   UNL     1       1.736   5.819  18.748  0.00  0.00    +0.000 C 
ATOM      5  C   UNL     1       1.814   4.573  17.862  0.00  0.00    +0.000 C 
ATOM      6  C   UNL     1       3.241   4.087  17.537  0.00  0.00    +0.000 C 
ENDROOT
BRANCH   4   7
ATOM      7  N   UNL     1       2.112   7.085  18.082  0.00  0.00    +0.000 N 
ATOM      8  C   UNL     1       1.940   8.450  18.200  0.00  0.00    +0.000 C 
ATOM      9  O   UNL     1       2.605   9.089  17.371  0.00  0.00    +0.000 OA
ATOM     10  H   UNL     1       2.701   6.952  17.270  0.00  0.00    +0.000 HD
BRANCH   8  11
ATOM     11  C   UNL     1       1.103   9.289  19.140  0.00  0.00    +0.000 A 
ATOM     12  C   UNL     1       0.328  10.326  18.528  0.00  0.00    +0.000 A 
ATOM     13  C   UNL     1      -0.579  11.128  19.244  0.00  0.00    +0.000 A 
ATOM     14  C   UNL     1      -0.721  10.940  20.608  0.00  0.00    +0.000 A 
ATOM     15  C   UNL     1       0.060   9.972  21.241  0.00  0.00    +0.000 A 
ATOM     16  C   UNL     1       0.962   9.165  20.515  0.00  0.00    +0.000 A 
ATOM     17  F   UNL     1       1.690   8.294  21.209  0.00  0.00    +0.000 F 
ENDBRANCH   8  11
ENDBRANCH   4   7
BRANCH   1  18
ATOM     18  C   UNL     1       5.590   3.805  18.276  0.00  0.00    +0.000 C 
BRANCH  18  23
ATOM     19  N   UNL     1       6.579   6.014  17.392  0.00  0.00    +0.000 N 
ATOM     20  N   UNL     1       7.563   6.866  17.751  0.00  0.00    +0.000 NA
ATOM     21  N   UNL     1       8.053   6.382  18.879  0.00  0.00    +0.000 NA
ATOM     22  N   UNL     1       7.380   5.251  19.255  0.00  0.00    +0.000 NA
ATOM     23  C   UNL     1       6.457   5.025  18.332  0.00  0.00    +0.000 A 
BRANCH  19  24
ATOM     24  C   UNL     1       5.779   6.313  16.226  0.00  0.00    +0.000 C 
BRANCH  24  29
ATOM     25  C   UNL     1       6.691   2.867  11.609  0.00  0.00    +0.000 C 
ATOM     26  C   UNL     1       6.476   3.733  12.817  0.00  0.00    +0.000 A 
ATOM     27  C   UNL     1       5.282   3.665  13.540  0.00  0.00    +0.000 A 
ATOM     28  C   UNL     1       5.074   4.485  14.650  0.00  0.00    +0.000 A 
ATOM     29  C   UNL     1       6.056   5.391  15.065  0.00  0.00    +0.000 A 
ATOM     30  C   UNL     1       7.254   5.465  14.332  0.00  0.00    +0.000 A 
ATOM     31  C   UNL     1       7.461   4.641  13.220  0.00  0.00    +0.000 A 
ENDBRANCH  24  29
ENDBRANCH  19  24
ENDBRANCH  18  23
ENDBRANCH   1  18
TORSDOF 6
ENDMDL
MODEL 9
REMARK VINA RESULT:      -8.5      1.651      2.052
REMARK  Name = 
REMARK  7 active torsions:
REMARK  status: ('A' for Active; 'I' for Inactive)
REMARK    1  A    between atoms: C_1  and  C_2
REMARK    2  A    between atoms: C_5  and  C_6
REMARK    3  A    between atoms: C_6  and  N_7
REMARK    4  A    between atoms: C_11  and  C_12
REMARK    5  A    between atoms: C_12  and  N_13
REMARK    6  A    between atoms: C_16  and  N_17
REMARK    7  A    between atoms: C_18  and  C_20
REMARK                            x       y       z     vdW  Elec       q    Type
REMARK                         _______ _______ _______ _____ _____    ______ ____
ROOT
ATOM      1  N   UNL     1       1.463   6.155  19.526  0.00  0.00    +0.000 NA
ATOM      2  C   UNL     1       2.161   5.570  18.358  0.00  0.00    +0.000 C 
ATOM      3  C   UNL     1       1.776   4.132  17.963  0.00  0.00    +0.000 C 
ATOM      4  C   UNL     1       1.751   3.111  19.126  0.00  0.00    +0.000 C 
ATOM      5  C   UNL     1       0.899   3.755  20.224  0.00  0.00    +0.000 C 
ATOM      6  C   UNL     1       1.313   5.185  20.624  0.00  0.00    +0.000 C 
ENDROOT
BRANCH   4   7
ATOM      7  N   UNL     1       3.106   2.696  19.550  0.00  0.00    +0.000 N 
ATOM      8  C   UNL     1       4.434   3.032  19.372  0.00  0.00    +0.000 C 
ATOM      9  O   UNL     1       5.195   2.373  20.095  0.00  0.00    +0.000 OA
ATOM     10  H   UNL     1       3.105   1.918  20.196  0.00  0.00    +0.000 HD
BRANCH   8  11
ATOM     11  C   UNL     1       5.113   4.039  18.469  0.00  0.00    +0.000 A 
ATOM     12  C   UNL     1       5.821   5.091  19.131  0.00  0.00    +0.000 A 
ATOM     13  C   UNL     1       6.589   6.048  18.443  0.00  0.00    +0.000 A 
ATOM     14  C   UNL     1       6.650   6.002  17.061  0.00  0.00    +0.000 A 
ATOM     15  C   UNL     1       5.927   5.019  16.385  0.00  0.00    +0.000 A 
ATOM     16  C   UNL     1       5.166   4.056  17.082  0.00  0.00    +0.000 A 
ATOM     17  F   UNL     1       4.481   3.179  16.352  0.00  0.00    +0.000 F 
ENDBRANCH   8  11
ENDBRANCH   4   7
BRANCH   1  18
ATOM     18  C   UNL     1       2.225   7.384  19.934  0.00  0.00    +0.000 C 
BRANCH  18  23
ATOM     19  N   UNL     1       1.060   9.675  20.123  0.00  0.00    +0.000 N 
ATOM     20  N   UNL     1       0.603  10.469  21.115  0.00  0.00    +0.000 NA
ATOM     21  N   UNL     1       0.810   9.791  22.231  0.00  0.00    +0.000 NA
ATOM     22  N   UNL     1       1.367   8.570  21.962  0.00  0.00    +0.000 NA
ATOM     23  C   UNL     1       1.517   8.494  20.648  0.00  0.00    +0.000 A 
BRANCH  19  24
ATOM     24  C   UNL     1       0.899  10.099  18.750  0.00  0.00    +0.000 C 
BRANCH  24  29
ATOM     25  C   UNL     1      -4.573  11.406  17.214  0.00  0.00    +0.000 C 
ATOM     26  C   UNL     1      -3.177  11.044  17.631  0.00  0.00    +0.000 A 
ATOM     27  C   UNL     1      -2.485  11.827  18.559  0.00  0.00    +0.000 A 
ATOM     28  C   UNL     1      -1.179  11.503  18.930  0.00  0.00    +0.000 A 
ATOM     29  C   UNL     1      -0.534  10.387  18.384  0.00  0.00    +0.000 A 
ATOM     30  C   UNL     1      -1.230   9.604  17.445  0.00  0.00    +0.000 A 
ATOM     31  C   UNL     1      -2.540   9.931  17.074  0.00  0.00    +0.000 A 
ENDBRANCH  24  29
ENDBRANCH  19  24
ENDBRANCH  18  23
ENDBRANCH   1  18
TORSDOF 6
ENDMDL
