MODEL 1
REMARK VINA RESULT:      -7.8      0.000      0.000
REMARK  Name = 
REMARK  6 active torsions:
REMARK  status: ('A' for Active; 'I' for Inactive)
REMARK    1  A    between atoms: C_1  and  C_2
REMARK    2  A    between atoms: C_2  and  C_3
REMARK    3  A    between atoms: C_3  and  N_4
REMARK    4  A    between atoms: C_5  and  C_7
REMARK    5  A    between atoms: C_7  and  C_8
REMARK    6  A    between atoms: C_10  and  C_11
REMARK                            x       y       z     vdW  Elec       q    Type
REMARK                         _______ _______ _______ _____ _____    ______ ____
ROOT
ATOM      1  C   UNL     1       3.754   6.546  17.746  0.00  0.00    +0.000 C 
ATOM      2  O   UNL     1       3.711   6.326  19.157  0.00  0.00    +0.000 OA
ATOM      3  C   UNL     1       4.104   5.008  19.550  0.00  0.00    +0.000 C 
ATOM      4  C   UNL     1       5.588   4.821  19.208  0.00  0.00    +0.000 C 
ATOM      5  C   UNL     1       5.852   5.112  17.756  0.00  0.00    +0.000 A 
ATOM      6  C   UNL     1       6.940   4.514  17.107  0.00  0.00    +0.000 A 
ATOM      7  C   UNL     1       7.088   4.649  15.732  0.00  0.00    +0.000 A 
ATOM      8  C   UNL     1       6.160   5.391  15.003  0.00  0.00    +0.000 A 
ATOM      9  C   UNL     1       5.112   6.041  15.656  0.00  0.00    +0.000 A 
ATOM     10  C   UNL     1       4.961   5.940  17.045  0.00  0.00    +0.000 A 
ENDROOT
BRANCH   3  11
ATOM     11  C   UNL     1       3.136   3.825  19.168  0.00  0.00    +0.000 C 
ATOM     12  C   UNL     1       3.429   2.555  19.979  0.00  0.00    +0.000 C 
ATOM     13  C   UNL     1       2.832   2.581  21.376  0.00  0.00    +0.000 C 
ATOM     14  C   UNL     1       1.319   2.782  21.370  0.00  0.00    +0.000 C 
ATOM     15  C   UNL     1       0.753   3.757  20.337  0.00  0.00    +0.000 C 
ATOM     16  C   UNL     1       1.603   4.018  19.087  0.00  0.00    +0.000 C 
ENDBRANCH   3  11
BRANCH   1  17
ATOM     17  C   UNL     1       3.342   7.970  17.408  0.00  0.00    +0.000 C 
BRANCH  17  19
ATOM     18  N   UNL     1       2.188   8.655  19.431  0.00  0.00    +0.000 N 
ATOM     19  C   UNL     1       2.093   8.470  18.077  0.00  0.00    +0.000 C 
ATOM     20  O   UNL     1       1.104   8.800  17.424  0.00  0.00    +0.000 OA
ATOM     21  H   UNL     1       2.918   8.188  19.955  0.00  0.00    +0.000 HD
BRANCH  18  22
ATOM     22  C   UNL     1       1.029   9.122  20.148  0.00  0.00    +0.000 C 
BRANCH  22  24
ATOM     23  C   UNL     1      -0.532   8.731  22.041  0.00  0.00    +0.000 C 
ATOM     24  C   UNL     1       0.801   8.342  21.430  0.00  0.00    +0.000 C 
ENDBRANCH  22  24
ENDBRANCH  18  22
ENDBRANCH  17  19
ENDBRANCH   1  17
TORSDOF 5
ENDMDL
MODEL 2
REMARK VINA RESULT:      -7.6      1.353      1.482
REMARK  Name = 
REMARK  6 active torsions:
REMARK  status: ('A' for Active; 'I' for Inactive)
REMARK    1  A    between atoms: C_1  and  C_2
REMARK    2  A    between atoms: C_2  and  C_3
REMARK    3  A    between atoms: C_3  and  N_4
REMARK    4  A    between atoms: C_5  and  C_7
REMARK    5  A    between atoms: C_7  and  C_8
REMARK    6  A    between atoms: C_10  and  C_11
REMARK                            x       y       z     vdW  Elec       q    Type
REMARK                         _______ _______ _______ _____ _____    ______ ____
ROOT
ATOM      1  C   UNL     1       3.799   6.521  17.740  0.00  0.00    +0.000 C 
ATOM      2  O   UNL     1       3.781   6.292  19.149  0.00  0.00    +0.000 OA
ATOM      3  C   UNL     1       4.180   4.972  19.528  0.00  0.00    +0.000 C 
ATOM      4  C   UNL     1       5.657   4.784  19.158  0.00  0.00    +0.000 C 
ATOM      5  C   UNL     1       5.896   5.085  17.704  0.00  0.00    +0.000 A 
ATOM      6  C   UNL     1       6.971   4.490  17.032  0.00  0.00    +0.000 A 
ATOM      7  C   UNL     1       7.095   4.634  15.655  0.00  0.00    +0.000 A 
ATOM      8  C   UNL     1       6.155   5.381  14.948  0.00  0.00    +0.000 A 
ATOM      9  C   UNL     1       5.120   6.028  15.623  0.00  0.00    +0.000 A 
ATOM     10  C   UNL     1       4.993   5.918  17.013  0.00  0.00    +0.000 A 
ENDROOT
BRANCH   3  11
ATOM     11  C   UNL     1       3.203   3.792  19.155  0.00  0.00    +0.000 C 
ATOM     12  C   UNL     1       3.455   2.542  20.010  0.00  0.00    +0.000 C 
ATOM     13  C   UNL     1       2.822   2.619  21.389  0.00  0.00    +0.000 C 
ATOM     14  C   UNL     1       1.313   2.842  21.338  0.00  0.00    +0.000 C 
ATOM     15  C   UNL     1       0.790   3.794  20.261  0.00  0.00    +0.000 C 
ATOM     16  C   UNL     1       1.677   4.005  19.027  0.00  0.00    +0.000 C 
ENDBRANCH   3  11
BRANCH   1  17
ATOM     17  C   UNL     1       3.383   7.948  17.418  0.00  0.00    +0.000 C 
BRANCH  17  19
ATOM     18  N   UNL     1       1.608   9.582  17.688  0.00  0.00    +0.000 N 
ATOM     19  C   UNL     1       2.252   8.503  18.235  0.00  0.00    +0.000 C 
ATOM     20  O   UNL     1       1.866   7.942  19.260  0.00  0.00    +0.000 OA
ATOM     21  H   UNL     1       2.066  10.136  16.975  0.00  0.00    +0.000 HD
BRANCH  18  22
ATOM     22  C   UNL     1       0.518  10.179  18.417  0.00  0.00    +0.000 C 
BRANCH  22  24
ATOM     23  C   UNL     1      -1.916  10.670  18.486  0.00  0.00    +0.000 C 
ATOM     24  C   UNL     1      -0.818   9.937  17.738  0.00  0.00    +0.000 C 
ENDBRANCH  22  24
ENDBRANCH  18  22
ENDBRANCH  17  19
ENDBRANCH   1  17
TORSDOF 5
ENDMDL
MODEL 3
REMARK VINA RESULT:      -7.4      3.472      4.745
REMARK  Name = 
REMARK  6 active torsions:
REMARK  status: ('A' for Active; 'I' for Inactive)
REMARK    1  A    between atoms: C_1  and  C_2
REMARK    2  A    between atoms: C_2  and  C_3
REMARK    3  A    between atoms: C_3  and  N_4
REMARK    4  A    between atoms: C_5  and  C_7
REMARK    5  A    between atoms: C_7  and  C_8
REMARK    6  A    between atoms: C_10  and  C_11
REMARK                            x       y       z     vdW  Elec       q    Type
REMARK                         _______ _______ _______ _____ _____    ______ ____
ROOT
ATOM      1  C   UNL     1       6.519   5.844  18.108  0.00  0.00    +0.000 C 
ATOM      2  O   UNL     1       5.969   5.133  19.218  0.00  0.00    +0.000 OA
ATOM      3  C   UNL     1       4.737   4.466  18.928  0.00  0.00    +0.000 C 
ATOM      4  C   UNL     1       5.013   3.359  17.902  0.00  0.00    +0.000 C 
ATOM      5  C   UNL     1       5.696   3.909  16.679  0.00  0.00    +0.000 A 
ATOM      6  C   UNL     1       5.560   3.258  15.447  0.00  0.00    +0.000 A 
ATOM      7  C   UNL     1       6.048   3.852  14.289  0.00  0.00    +0.000 A 
ATOM      8  C   UNL     1       6.683   5.090  14.360  0.00  0.00    +0.000 A 
ATOM      9  C   UNL     1       6.878   5.711  15.594  0.00  0.00    +0.000 A 
ATOM     10  C   UNL     1       6.417   5.116  16.775  0.00  0.00    +0.000 A 
ENDROOT
BRANCH   3  11
ATOM     11  C   UNL     1       3.474   5.372  18.668  0.00  0.00    +0.000 C 
ATOM     12  C   UNL     1       2.342   4.599  17.976  0.00  0.00    +0.000 C 
ATOM     13  C   UNL     1       1.524   3.747  18.932  0.00  0.00    +0.000 C 
ATOM     14  C   UNL     1       0.899   4.558  20.063  0.00  0.00    +0.000 C 
ATOM     15  C   UNL     1       1.748   5.682  20.661  0.00  0.00    +0.000 C 
ATOM     16  C   UNL     1       2.862   6.258  19.777  0.00  0.00    +0.000 C 
ENDBRANCH   3  11
BRANCH   1  17
ATOM     17  C   UNL     1       7.832   6.509  18.488  0.00  0.00    +0.000 C 
BRANCH  17  19
ATOM     18  N   UNL     1       8.819   8.682  18.935  0.00  0.00    +0.000 N 
ATOM     19  C   UNL     1       7.952   7.968  18.150  0.00  0.00    +0.000 C 
ATOM     20  O   UNL     1       7.399   8.444  17.159  0.00  0.00    +0.000 OA
ATOM     21  H   UNL     1       9.088   8.326  19.844  0.00  0.00    +0.000 HD
BRANCH  18  22
ATOM     22  C   UNL     1       8.982  10.090  18.681  0.00  0.00    +0.000 C 
BRANCH  22  24
ATOM     23  C   UNL     1      10.906  11.483  19.411  0.00  0.00    +0.000 C 
ATOM     24  C   UNL     1       9.621  10.809  19.855  0.00  0.00    +0.000 C 
ENDBRANCH  22  24
ENDBRANCH  18  22
ENDBRANCH  17  19
ENDBRANCH   1  17
TORSDOF 5
ENDMDL
MODEL 4
REMARK VINA RESULT:      -7.2      2.315      5.897
REMARK  Name = 
REMARK  6 active torsions:
REMARK  status: ('A' for Active; 'I' for Inactive)
REMARK    1  A    between atoms: C_1  and  C_2
REMARK    2  A    between atoms: C_2  and  C_3
REMARK    3  A    between atoms: C_3  and  N_4
REMARK    4  A    between atoms: C_5  and  C_7
REMARK    5  A    between atoms: C_7  and  C_8
REMARK    6  A    between atoms: C_10  and  C_11
REMARK                            x       y       z     vdW  Elec       q    Type
REMARK                         _______ _______ _______ _____ _____    ______ ____
ROOT
ATOM      1  C   UNL     1       3.254   5.706  17.868  0.00  0.00    +0.000 C 
ATOM      2  O   UNL     1       3.677   6.805  18.676  0.00  0.00    +0.000 OA
ATOM      3  C   UNL     1       2.664   7.302  19.556  0.00  0.00    +0.000 C 
ATOM      4  C   UNL     1       2.336   6.213  20.585  0.00  0.00    +0.000 C 
ATOM      5  C   UNL     1       1.958   4.923  19.910  0.00  0.00    +0.000 A 
ATOM      6  C   UNL     1       1.129   4.005  20.566  0.00  0.00    +0.000 A 
ATOM      7  C   UNL     1       0.645   2.895  19.883  0.00  0.00    +0.000 A 
ATOM      8  C   UNL     1       0.996   2.692  18.551  0.00  0.00    +0.000 A 
ATOM      9  C   UNL     1       1.873   3.570  17.914  0.00  0.00    +0.000 A 
ATOM     10  C   UNL     1       2.394   4.679  18.592  0.00  0.00    +0.000 A 
ENDROOT
BRANCH   3  11
ATOM     11  C   UNL     1       1.439   8.042  18.895  0.00  0.00    +0.000 C 
ATOM     12  C   UNL     1       0.508   8.666  19.944  0.00  0.00    +0.000 C 
ATOM     13  C   UNL     1       1.011   9.996  20.481  0.00  0.00    +0.000 C 
ATOM     14  C   UNL     1       1.226  11.035  19.384  0.00  0.00    +0.000 C 
ATOM     15  C   UNL     1       1.809  10.535  18.061  0.00  0.00    +0.000 C 
ATOM     16  C   UNL     1       1.621   9.048  17.735  0.00  0.00    +0.000 C 
ENDBRANCH   3  11
BRANCH   1  17
ATOM     17  C   UNL     1       4.386   5.222  16.977  0.00  0.00    +0.000 C 
BRANCH  17  19
ATOM     18  N   UNL     1       6.433   6.453  17.415  0.00  0.00    +0.000 N 
ATOM     19  C   UNL     1       5.382   6.265  16.555  0.00  0.00    +0.000 C 
ATOM     20  O   UNL     1       5.310   6.813  15.456  0.00  0.00    +0.000 OA
ATOM     21  H   UNL     1       6.357   6.154  18.379  0.00  0.00    +0.000 HD
BRANCH  18  22
ATOM     22  C   UNL     1       7.425   7.444  17.086  0.00  0.00    +0.000 C 
BRANCH  22  24
ATOM     23  C   UNL     1       8.472   9.397  18.211  0.00  0.00    +0.000 C 
ATOM     24  C   UNL     1       8.190   7.909  18.312  0.00  0.00    +0.000 C 
ENDBRANCH  22  24
ENDBRANCH  18  22
ENDBRANCH  17  19
ENDBRANCH   1  17
TORSDOF 5
ENDMDL
MODEL 5
REMARK VINA RESULT:      -7.2      1.894      4.870
REMARK  Name = 
REMARK  6 active torsions:
REMARK  status: ('A' for Active; 'I' for Inactive)
REMARK    1  A    between atoms: C_1  and  C_2
REMARK    2  A    between atoms: C_2  and  C_3
REMARK    3  A    between atoms: C_3  and  N_4
REMARK    4  A    between atoms: C_5  and  C_7
REMARK    5  A    between atoms: C_7  and  C_8
REMARK    6  A    between atoms: C_10  and  C_11
REMARK                            x       y       z     vdW  Elec       q    Type
REMARK                         _______ _______ _______ _____ _____    ______ ____
ROOT
ATOM      1  C   UNL     1       2.391   6.706  20.195  0.00  0.00    +0.000 C 
ATOM      2  O   UNL     1       2.283   7.262  18.884  0.00  0.00    +0.000 OA
ATOM      3  C   UNL     1       2.743   6.393  17.846  0.00  0.00    +0.000 C 
ATOM      4  C   UNL     1       1.818   5.171  17.788  0.00  0.00    +0.000 C 
ATOM      5  C   UNL     1       1.723   4.497  19.129  0.00  0.00    +0.000 A 
ATOM      6  C   UNL     1       1.414   3.133  19.209  0.00  0.00    +0.000 A 
ATOM      7  C   UNL     1       1.490   2.475  20.431  0.00  0.00    +0.000 A 
ATOM      8  C   UNL     1       1.861   3.176  21.576  0.00  0.00    +0.000 A 
ATOM      9  C   UNL     1       2.105   4.548  21.511  0.00  0.00    +0.000 A 
ATOM     10  C   UNL     1       2.008   5.236  20.295  0.00  0.00    +0.000 A 
ENDROOT
BRANCH   3  11
ATOM     11  C   UNL     1       4.292   6.111  17.779  0.00  0.00    +0.000 C 
ATOM     12  C   UNL     1       4.612   4.615  17.907  0.00  0.00    +0.000 C 
ATOM     13  C   UNL     1       4.425   3.847  16.609  0.00  0.00    +0.000 C 
ATOM     14  C   UNL     1       5.271   4.401  15.465  0.00  0.00    +0.000 C 
ATOM     15  C   UNL     1       5.409   5.922  15.379  0.00  0.00    +0.000 C 
ATOM     16  C   UNL     1       5.186   6.716  16.672  0.00  0.00    +0.000 C 
ENDBRANCH   3  11
BRANCH   1  17
ATOM     17  C   UNL     1       1.867   7.677  21.240  0.00  0.00    +0.000 C 
BRANCH  17  19
ATOM     18  N   UNL     1       0.932   9.492  19.926  0.00  0.00    +0.000 N 
ATOM     19  C   UNL     1       0.676   8.500  20.835  0.00  0.00    +0.000 C 
ATOM     20  O   UNL     1      -0.460   8.211  21.210  0.00  0.00    +0.000 OA
ATOM     21  H   UNL     1       1.877   9.834  19.803  0.00  0.00    +0.000 HD
BRANCH  18  22
ATOM     22  C   UNL     1      -0.156  10.332  19.495  0.00  0.00    +0.000 C 
BRANCH  22  24
ATOM     23  C   UNL     1      -1.831  10.818  17.725  0.00  0.00    +0.000 C 
ATOM     24  C   UNL     1      -0.600  10.006  18.081  0.00  0.00    +0.000 C 
ENDBRANCH  22  24
ENDBRANCH  18  22
ENDBRANCH  17  19
ENDBRANCH   1  17
TORSDOF 5
ENDMDL
MODEL 6
REMARK VINA RESULT:      -7.1      2.136      5.962
REMARK  Name = 
REMARK  6 active torsions:
REMARK  status: ('A' for Active; 'I' for Inactive)
REMARK    1  A    between atoms: C_1  and  C_2
REMARK    2  A    between atoms: C_2  and  C_3
REMARK    3  A    between atoms: C_3  and  N_4
REMARK    4  A    between atoms: C_5  and  C_7
REMARK    5  A    between atoms: C_7  and  C_8
REMARK    6  A    between atoms: C_10  and  C_11
REMARK                            x       y       z     vdW  Elec       q    Type
REMARK                         _______ _______ _______ _____ _____    ______ ____
ROOT
ATOM      1  C   UNL     1       3.266   5.083  17.531  0.00  0.00    +0.000 C 
ATOM      2  O   UNL     1       3.903   6.231  18.092  0.00  0.00    +0.000 OA
ATOM      3  C   UNL     1       3.087   6.953  19.019  0.00  0.00    +0.000 C 
ATOM      4  C   UNL     1       2.831   6.060  20.240  0.00  0.00    +0.000 C 
ATOM      5  C   UNL     1       2.241   4.738  19.832  0.00  0.00    +0.000 A 
ATOM      6  C   UNL     1       1.448   4.015  20.732  0.00  0.00    +0.000 A 
ATOM      7  C   UNL     1       0.769   2.880  20.304  0.00  0.00    +0.000 A 
ATOM      8  C   UNL     1       0.889   2.457  18.982  0.00  0.00    +0.000 A 
ATOM      9  C   UNL     1       1.729   3.137  18.100  0.00  0.00    +0.000 A 
ATOM     10  C   UNL     1       2.444   4.267  18.519  0.00  0.00    +0.000 A 
ENDROOT
BRANCH   3  11
ATOM     11  C   UNL     1       1.843   7.723  18.432  0.00  0.00    +0.000 C 
ATOM     12  C   UNL     1       0.813   8.066  19.517  0.00  0.00    +0.000 C 
ATOM     13  C   UNL     1       1.181   9.296  20.329  0.00  0.00    +0.000 C 
ATOM     14  C   UNL     1       1.369  10.542  19.466  0.00  0.00    +0.000 C 
ATOM     15  C   UNL     1       2.057  10.349  18.114  0.00  0.00    +0.000 C 
ATOM     16  C   UNL     1       2.004   8.945  17.499  0.00  0.00    +0.000 C 
ENDBRANCH   3  11
BRANCH   1  17
ATOM     17  C   UNL     1       4.199   4.359  16.573  0.00  0.00    +0.000 C 
BRANCH  17  19
ATOM     18  N   UNL     1       6.246   4.417  17.878  0.00  0.00    +0.000 N 
ATOM     19  C   UNL     1       5.655   4.716  16.678  0.00  0.00    +0.000 C 
ATOM     20  O   UNL     1       6.284   5.133  15.707  0.00  0.00    +0.000 OA
ATOM     21  H   UNL     1       5.675   4.278  18.702  0.00  0.00    +0.000 HD
BRANCH  18  22
ATOM     22  C   UNL     1       7.638   4.738  18.061  0.00  0.00    +0.000 C 
BRANCH  22  24
ATOM     23  C   UNL     1       7.830   7.215  18.098  0.00  0.00    +0.000 C 
ATOM     24  C   UNL     1       7.828   5.957  18.946  0.00  0.00    +0.000 C 
ENDBRANCH  22  24
ENDBRANCH  18  22
ENDBRANCH  17  19
ENDBRANCH   1  17
TORSDOF 5
ENDMDL
MODEL 7
REMARK VINA RESULT:      -7.0      1.807      4.830
REMARK  Name = 
REMARK  6 active torsions:
REMARK  status: ('A' for Active; 'I' for Inactive)
REMARK    1  A    between atoms: C_1  and  C_2
REMARK    2  A    between atoms: C_2  and  C_3
REMARK    3  A    between atoms: C_3  and  N_4
REMARK    4  A    between atoms: C_5  and  C_7
REMARK    5  A    between atoms: C_7  and  C_8
REMARK    6  A    between atoms: C_10  and  C_11
REMARK                            x       y       z     vdW  Elec       q    Type
REMARK                         _______ _______ _______ _____ _____    ______ ____
ROOT
ATOM      1  C   UNL     1       2.407   6.647  20.218  0.00  0.00    +0.000 C 
ATOM      2  O   UNL     1       2.315   7.222  18.915  0.00  0.00    +0.000 OA
ATOM      3  C   UNL     1       2.772   6.362  17.867  0.00  0.00    +0.000 C 
ATOM      4  C   UNL     1       1.832   5.152  17.786  0.00  0.00    +0.000 C 
ATOM      5  C   UNL     1       1.720   4.461  19.118  0.00  0.00    +0.000 A 
ATOM      6  C   UNL     1       1.394   3.100  19.177  0.00  0.00    +0.000 A 
ATOM      7  C   UNL     1       1.454   2.424  20.390  0.00  0.00    +0.000 A 
ATOM      8  C   UNL     1       1.825   3.105  21.547  0.00  0.00    +0.000 A 
ATOM      9  C   UNL     1       2.087   4.475  21.503  0.00  0.00    +0.000 A 
ATOM     10  C   UNL     1       2.006   5.180  20.295  0.00  0.00    +0.000 A 
ENDROOT
BRANCH   3  11
ATOM     11  C   UNL     1       4.318   6.061  17.807  0.00  0.00    +0.000 C 
ATOM     12  C   UNL     1       4.617   4.558  17.891  0.00  0.00    +0.000 C 
ATOM     13  C   UNL     1       4.434   3.833  16.569  0.00  0.00    +0.000 C 
ATOM     14  C   UNL     1       5.298   4.410  15.451  0.00  0.00    +0.000 C 
ATOM     15  C   UNL     1       5.456   5.931  15.413  0.00  0.00    +0.000 C 
ATOM     16  C   UNL     1       5.230   6.688  16.727  0.00  0.00    +0.000 C 
ENDBRANCH   3  11
BRANCH   1  17
ATOM     17  C   UNL     1       1.888   7.610  21.273  0.00  0.00    +0.000 C 
BRANCH  17  19
ATOM     18  N   UNL     1       0.858   9.370  19.954  0.00  0.00    +0.000 N 
ATOM     19  C   UNL     1       0.663   8.397  20.899  0.00  0.00    +0.000 C 
ATOM     20  O   UNL     1      -0.449   8.095  21.330  0.00  0.00    +0.000 OA
ATOM     21  H   UNL     1       1.790   9.727  19.781  0.00  0.00    +0.000 HD
BRANCH  18  22
ATOM     22  C   UNL     1      -0.265  10.175  19.550  0.00  0.00    +0.000 C 
BRANCH  22  24
ATOM     23  C   UNL     1       0.896  12.221  20.349  0.00  0.00    +0.000 C 
ATOM     24  C   UNL     1      -0.397  11.430  20.394  0.00  0.00    +0.000 C 
ENDBRANCH  22  24
ENDBRANCH  18  22
ENDBRANCH  17  19
ENDBRANCH   1  17
TORSDOF 5
ENDMDL
MODEL 8
REMARK VINA RESULT:      -6.9      1.746      4.701
REMARK  Name = 
REMARK  6 active torsions:
REMARK  status: ('A' for Active; 'I' for Inactive)
REMARK    1  A    between atoms: C_1  and  C_2
REMARK    2  A    between atoms: C_2  and  C_3
REMARK    3  A    between atoms: C_3  and  N_4
REMARK    4  A    between atoms: C_5  and  C_7
REMARK    5  A    between atoms: C_7  and  C_8
REMARK    6  A    between atoms: C_10  and  C_11
REMARK                            x       y       z     vdW  Elec       q    Type
REMARK                         _______ _______ _______ _____ _____    ______ ____
ROOT
ATOM      1  C   UNL     1       3.127   6.022  18.938  0.00  0.00    +0.000 C 
ATOM      2  O   UNL     1       3.534   6.103  17.572  0.00  0.00    +0.000 OA
ATOM      3  C   UNL     1       3.932   4.849  17.010  0.00  0.00    +0.000 C 
ATOM      4  C   UNL     1       2.705   3.928  16.958  0.00  0.00    +0.000 C 
ATOM      5  C   UNL     1       2.067   3.797  18.314  0.00  0.00    +0.000 A 
ATOM      6  C   UNL     1       1.324   2.654  18.632  0.00  0.00    +0.000 A 
ATOM      7  C   UNL     1       0.876   2.456  19.933  0.00  0.00    +0.000 A 
ATOM      8  C   UNL     1       1.157   3.404  20.915  0.00  0.00    +0.000 A 
ATOM      9  C   UNL     1       1.840   4.575  20.587  0.00  0.00    +0.000 A 
ATOM     10  C   UNL     1       2.277   4.806  19.276  0.00  0.00    +0.000 A 
ENDROOT
BRANCH   3  11
ATOM     11  C   UNL     1       5.271   4.214  17.545  0.00  0.00    +0.000 C 
ATOM     12  C   UNL     1       6.451   4.473  16.599  0.00  0.00    +0.000 C 
ATOM     13  C   UNL     1       7.056   5.858  16.756  0.00  0.00    +0.000 C 
ATOM     14  C   UNL     1       7.538   6.138  18.176  0.00  0.00    +0.000 C 
ATOM     15  C   UNL     1       6.671   5.606  19.319  0.00  0.00    +0.000 C 
ATOM     16  C   UNL     1       5.749   4.423  19.001  0.00  0.00    +0.000 C 
ENDBRANCH   3  11
BRANCH   1  17
ATOM     17  C   UNL     1       2.702   7.386  19.458  0.00  0.00    +0.000 C 
BRANCH  17  19
ATOM     18  N   UNL     1       0.989   9.003  18.870  0.00  0.00    +0.000 N 
ATOM     19  C   UNL     1       2.096   8.316  18.446  0.00  0.00    +0.000 C 
ATOM     20  O   UNL     1       2.639   8.526  17.362  0.00  0.00    +0.000 OA
ATOM     21  H   UNL     1       0.457   8.664  19.662  0.00  0.00    +0.000 HD
BRANCH  18  22
ATOM     22  C   UNL     1       0.343   9.907  17.954  0.00  0.00    +0.000 C 
BRANCH  22  24
ATOM     23  C   UNL     1      -2.117  10.020  17.624  0.00  0.00    +0.000 C 
ATOM     24  C   UNL     1      -0.963  10.444  18.512  0.00  0.00    +0.000 C 
ENDBRANCH  22  24
ENDBRANCH  18  22
ENDBRANCH  17  19
ENDBRANCH   1  17
TORSDOF 5
ENDMDL
MODEL 9
REMARK VINA RESULT:      -6.9      1.701      4.944
REMARK  Name = 
REMARK  6 active torsions:
REMARK  status: ('A' for Active; 'I' for Inactive)
REMARK    1  A    between atoms: C_1  and  C_2
REMARK    2  A    between atoms: C_2  and  C_3
REMARK    3  A    between atoms: C_3  and  N_4
REMARK    4  A    between atoms: C_5  and  C_7
REMARK    5  A    between atoms: C_7  and  C_8
REMARK    6  A    between atoms: C_10  and  C_11
REMARK                            x       y       z     vdW  Elec       q    Type
REMARK                         _______ _______ _______ _____ _____    ______ ____
ROOT
ATOM      1  C   UNL     1       1.953   6.301  20.279  0.00  0.00    +0.000 C 
ATOM      2  O   UNL     1       1.847   6.885  18.980  0.00  0.00    +0.000 OA
ATOM      3  C   UNL     1       2.510   6.141  17.954  0.00  0.00    +0.000 C 
ATOM      4  C   UNL     1       1.797   4.792  17.793  0.00  0.00    +0.000 C 
ATOM      5  C   UNL     1       1.720   4.059  19.104  0.00  0.00    +0.000 A 
ATOM      6  C   UNL     1       1.628   2.662  19.122  0.00  0.00    +0.000 A 
ATOM      7  C   UNL     1       1.724   1.975  20.327  0.00  0.00    +0.000 A 
ATOM      8  C   UNL     1       1.900   2.679  21.516  0.00  0.00    +0.000 A 
ATOM      9  C   UNL     1       1.926   4.074  21.508  0.00  0.00    +0.000 A 
ATOM     10  C   UNL     1       1.804   4.786  20.308  0.00  0.00    +0.000 A 
ENDROOT
BRANCH   3  11
ATOM     11  C   UNL     1       4.085   6.108  17.994  0.00  0.00    +0.000 C 
ATOM     12  C   UNL     1       4.634   4.676  17.925  0.00  0.00    +0.000 C 
ATOM     13  C   UNL     1       4.667   4.111  16.515  0.00  0.00    +0.000 C 
ATOM     14  C   UNL     1       5.490   4.963  15.553  0.00  0.00    +0.000 C 
ATOM     15  C   UNL     1       5.384   6.481  15.709  0.00  0.00    +0.000 C 
ATOM     16  C   UNL     1       4.945   7.012  17.079  0.00  0.00    +0.000 C 
ENDBRANCH   3  11
BRANCH   1  17
ATOM     17  C   UNL     1       1.211   7.135  21.310  0.00  0.00    +0.000 C 
BRANCH  17  19
ATOM     18  N   UNL     1       0.703   9.181  20.104  0.00  0.00    +0.000 N 
ATOM     19  C   UNL     1       1.352   8.625  21.176  0.00  0.00    +0.000 C 
ATOM     20  O   UNL     1       1.911   9.297  22.042  0.00  0.00    +0.000 OA
ATOM     21  H   UNL     1       0.440   8.602  19.317  0.00  0.00    +0.000 HD
BRANCH  18  22
ATOM     22  C   UNL     1       0.799  10.603  19.900  0.00  0.00    +0.000 C 
BRANCH  22  24
ATOM     23  C   UNL     1       1.739   9.761  17.760  0.00  0.00    +0.000 C 
ATOM     24  C   UNL     1       1.665  10.948  18.701  0.00  0.00    +0.000 C 
ENDBRANCH  22  24
ENDBRANCH  18  22
ENDBRANCH  17  19
ENDBRANCH   1  17
TORSDOF 5
ENDMDL
