MODEL 1
REMARK VINA RESULT:      -7.8      0.000      0.000
REMARK  Name = 
REMARK  4 active torsions:
REMARK  status: ('A' for Active; 'I' for Inactive)
REMARK    1  A    between atoms: C_2  and  C_3
REMARK    2  A    between atoms: N_9  and  N_10
REMARK    3  A    between atoms: N_9  and  C_17
REMARK    4  A    between atoms: N_10  and  C_11
REMARK                            x       y       z     vdW  Elec       q    Type
REMARK                         _______ _______ _______ _____ _____    ______ ____
ROOT
ATOM      1  O   UNL     1       3.273   3.758  16.683  0.00  0.00    +0.000 OA
ATOM      2  C   UNL     1       4.026   4.624  17.132  0.00  0.00    +0.000 C 
ATOM      3  N   UNL     1       5.412   4.673  16.887  0.00  0.00    +0.000 N 
ENDROOT
BRANCH   2   4
ATOM      4  C   UNL     1       3.396   5.681  17.973  0.00  0.00    +0.000 A 
ATOM      5  C   UNL     1       2.970   5.340  19.265  0.00  0.00    +0.000 A 
ATOM      6  C   UNL     1       2.329   6.292  20.063  0.00  0.00    +0.000 A 
ATOM      7  C   UNL     1       2.115   7.582  19.581  0.00  0.00    +0.000 A 
ATOM      8  C   UNL     1       2.522   7.917  18.291  0.00  0.00    +0.000 A 
ATOM      9  C   UNL     1       3.140   6.968  17.485  0.00  0.00    +0.000 A 
ENDBRANCH   2   4
BRANCH   3  10
ATOM     10  C   UNL     1       6.344   5.559  17.469  0.00  0.00    +0.000 A 
ATOM     11  C   UNL     1       7.073   5.167  18.592  0.00  0.00    +0.000 A 
ATOM     12  C   UNL     1       8.009   6.037  19.153  0.00  0.00    +0.000 A 
ATOM     13  C   UNL     1       8.183   7.314  18.622  0.00  0.00    +0.000 A 
ATOM     14  C   UNL     1       7.443   7.717  17.511  0.00  0.00    +0.000 A 
ATOM     15  C   UNL     1       6.542   6.829  16.915  0.00  0.00    +0.000 A 
ENDBRANCH   3  10
BRANCH   3  16
ATOM     16  N   UNL     1       6.027   3.655  16.116  0.00  0.00    +0.000 N 
ATOM     17  H   UNL     1       6.836   3.256  16.585  0.00  0.00    +0.000 HD
BRANCH  16  18
ATOM     18  C   UNL     1       6.283   3.931  14.744  0.00  0.00    +0.000 A 
ATOM     19  C   UNL     1       7.360   4.773  14.426  0.00  0.00    +0.000 A 
ATOM     20  C   UNL     1       7.703   5.044  13.096  0.00  0.00    +0.000 A 
ATOM     21  C   UNL     1       6.989   4.453  12.056  0.00  0.00    +0.000 A 
ATOM     22  C   UNL     1       5.942   3.589  12.349  0.00  0.00    +0.000 A 
ATOM     23  C   UNL     1       5.604   3.321  13.681  0.00  0.00    +0.000 A 
ENDBRANCH  16  18
ENDBRANCH   3  16
TORSDOF 4
ENDMDL
MODEL 2
REMARK VINA RESULT:      -7.8      0.138      1.039
REMARK  Name = 
REMARK  4 active torsions:
REMARK  status: ('A' for Active; 'I' for Inactive)
REMARK    1  A    between atoms: C_2  and  C_3
REMARK    2  A    between atoms: N_9  and  N_10
REMARK    3  A    between atoms: N_9  and  C_17
REMARK    4  A    between atoms: N_10  and  C_11
REMARK                            x       y       z     vdW  Elec       q    Type
REMARK                         _______ _______ _______ _____ _____    ______ ____
ROOT
ATOM      1  O   UNL     1       3.365   3.651  16.727  0.00  0.00    +0.000 OA
ATOM      2  C   UNL     1       4.103   4.526  17.185  0.00  0.00    +0.000 C 
ATOM      3  N   UNL     1       5.483   4.615  16.923  0.00  0.00    +0.000 N 
ENDROOT
BRANCH   2   4
ATOM      4  C   UNL     1       3.458   5.548  18.057  0.00  0.00    +0.000 A 
ATOM      5  C   UNL     1       3.053   5.168  19.345  0.00  0.00    +0.000 A 
ATOM      6  C   UNL     1       2.400   6.086  20.172  0.00  0.00    +0.000 A 
ATOM      7  C   UNL     1       2.152   7.382  19.723  0.00  0.00    +0.000 A 
ATOM      8  C   UNL     1       2.538   7.757  18.437  0.00  0.00    +0.000 A 
ATOM      9  C   UNL     1       3.168   6.840  17.602  0.00  0.00    +0.000 A 
ENDBRANCH   2   4
BRANCH   3  10
ATOM     10  C   UNL     1       6.401   5.511  17.512  0.00  0.00    +0.000 A 
ATOM     11  C   UNL     1       6.634   6.756  16.928  0.00  0.00    +0.000 A 
ATOM     12  C   UNL     1       7.526   7.649  17.524  0.00  0.00    +0.000 A 
ATOM     13  C   UNL     1       8.220   7.280  18.675  0.00  0.00    +0.000 A 
ATOM     14  C   UNL     1       8.004   6.028  19.252  0.00  0.00    +0.000 A 
ATOM     15  C   UNL     1       7.073   5.153  18.687  0.00  0.00    +0.000 A 
ENDBRANCH   3  10
BRANCH   3  16
ATOM     16  N   UNL     1       6.113   3.629  16.123  0.00  0.00    +0.000 N 
ATOM     17  H   UNL     1       6.951   3.258  16.561  0.00  0.00    +0.000 HD
BRANCH  16  18
ATOM     18  C   UNL     1       6.313   3.928  14.746  0.00  0.00    +0.000 A 
ATOM     19  C   UNL     1       7.402   4.741  14.395  0.00  0.00    +0.000 A 
ATOM     20  C   UNL     1       7.691   5.031  13.056  0.00  0.00    +0.000 A 
ATOM     21  C   UNL     1       6.910   4.487  12.040  0.00  0.00    +0.000 A 
ATOM     22  C   UNL     1       5.848   3.652  12.363  0.00  0.00    +0.000 A 
ATOM     23  C   UNL     1       5.565   3.365  13.704  0.00  0.00    +0.000 A 
ENDBRANCH  16  18
ENDBRANCH   3  16
TORSDOF 4
ENDMDL
MODEL 3
REMARK VINA RESULT:      -7.7      0.184      1.468
REMARK  Name = 
REMARK  4 active torsions:
REMARK  status: ('A' for Active; 'I' for Inactive)
REMARK    1  A    between atoms: C_2  and  C_3
REMARK    2  A    between atoms: N_9  and  N_10
REMARK    3  A    between atoms: N_9  and  C_17
REMARK    4  A    between atoms: N_10  and  C_11
REMARK                            x       y       z     vdW  Elec       q    Type
REMARK                         _______ _______ _______ _____ _____    ______ ____
ROOT
ATOM      1  O   UNL     1       3.506   3.591  16.602  0.00  0.00    +0.000 OA
ATOM      2  C   UNL     1       4.202   4.494  17.072  0.00  0.00    +0.000 C 
ATOM      3  N   UNL     1       5.582   4.636  16.832  0.00  0.00    +0.000 N 
ENDROOT
BRANCH   2   4
ATOM      4  C   UNL     1       3.504   5.490  17.933  0.00  0.00    +0.000 A 
ATOM      5  C   UNL     1       3.258   6.768  17.410  0.00  0.00    +0.000 A 
ATOM      6  C   UNL     1       2.650   7.743  18.206  0.00  0.00    +0.000 A 
ATOM      7  C   UNL     1       2.284   7.449  19.519  0.00  0.00    +0.000 A 
ATOM      8  C   UNL     1       2.544   6.185  20.045  0.00  0.00    +0.000 A 
ATOM      9  C   UNL     1       3.168   5.219  19.264  0.00  0.00    +0.000 A 
ENDBRANCH   2   4
BRANCH   3  10
ATOM     10  C   UNL     1       6.455   5.568  17.435  0.00  0.00    +0.000 A 
ATOM     11  C   UNL     1       6.604   6.841  16.886  0.00  0.00    +0.000 A 
ATOM     12  C   UNL     1       7.451   7.767  17.496  0.00  0.00    +0.000 A 
ATOM     13  C   UNL     1       8.185   7.407  18.625  0.00  0.00    +0.000 A 
ATOM     14  C   UNL     1       8.053   6.128  19.167  0.00  0.00    +0.000 A 
ATOM     15  C   UNL     1       7.166   5.216  18.588  0.00  0.00    +0.000 A 
ENDBRANCH   3  10
BRANCH   3  16
ATOM     16  N   UNL     1       6.263   3.676  16.043  0.00  0.00    +0.000 N 
ATOM     17  H   UNL     1       7.124   3.361  16.480  0.00  0.00    +0.000 HD
BRANCH  16  18
ATOM     18  C   UNL     1       6.436   3.963  14.660  0.00  0.00    +0.000 A 
ATOM     19  C   UNL     1       7.483   4.820  14.286  0.00  0.00    +0.000 A 
ATOM     20  C   UNL     1       7.745   5.103  12.941  0.00  0.00    +0.000 A 
ATOM     21  C   UNL     1       6.981   4.510  11.940  0.00  0.00    +0.000 A 
ATOM     22  C   UNL     1       5.962   3.631  12.286  0.00  0.00    +0.000 A 
ATOM     23  C   UNL     1       5.705   3.351  13.633  0.00  0.00    +0.000 A 
ENDBRANCH  16  18
ENDBRANCH   3  16
TORSDOF 4
ENDMDL
MODEL 4
REMARK VINA RESULT:      -7.7      0.159      1.042
REMARK  Name = 
REMARK  4 active torsions:
REMARK  status: ('A' for Active; 'I' for Inactive)
REMARK    1  A    between atoms: C_2  and  C_3
REMARK    2  A    between atoms: N_9  and  N_10
REMARK    3  A    between atoms: N_9  and  C_17
REMARK    4  A    between atoms: N_10  and  C_11
REMARK                            x       y       z     vdW  Elec       q    Type
REMARK                         _______ _______ _______ _____ _____    ______ ____
ROOT
ATOM      1  O   UNL     1       3.453   3.598  16.627  0.00  0.00    +0.000 OA
ATOM      2  C   UNL     1       4.160   4.496  17.089  0.00  0.00    +0.000 C 
ATOM      3  N   UNL     1       5.539   4.626  16.840  0.00  0.00    +0.000 N 
ENDROOT
BRANCH   2   4
ATOM      4  C   UNL     1       3.476   5.501  17.953  0.00  0.00    +0.000 A 
ATOM      5  C   UNL     1       3.251   6.784  17.435  0.00  0.00    +0.000 A 
ATOM      6  C   UNL     1       2.658   7.766  18.233  0.00  0.00    +0.000 A 
ATOM      7  C   UNL     1       2.285   7.473  19.544  0.00  0.00    +0.000 A 
ATOM      8  C   UNL     1       2.523   6.203  20.066  0.00  0.00    +0.000 A 
ATOM      9  C   UNL     1       3.133   5.230  19.283  0.00  0.00    +0.000 A 
ENDBRANCH   2   4
BRANCH   3  10
ATOM     10  C   UNL     1       6.424   5.552  17.435  0.00  0.00    +0.000 A 
ATOM     11  C   UNL     1       7.116   5.209  18.596  0.00  0.00    +0.000 A 
ATOM     12  C   UNL     1       8.005   6.118  19.171  0.00  0.00    +0.000 A 
ATOM     13  C   UNL     1       8.168   7.385  18.613  0.00  0.00    +0.000 A 
ATOM     14  C   UNL     1       7.464   7.739  17.462  0.00  0.00    +0.000 A 
ATOM     15  C   UNL     1       6.611   6.812  16.855  0.00  0.00    +0.000 A 
ENDBRANCH   3  10
BRANCH   3  16
ATOM     16  N   UNL     1       6.206   3.658  16.048  0.00  0.00    +0.000 N 
ATOM     17  H   UNL     1       7.049   3.311  16.497  0.00  0.00    +0.000 HD
BRANCH  16  18
ATOM     18  C   UNL     1       6.415   3.962  14.674  0.00  0.00    +0.000 A 
ATOM     19  C   UNL     1       7.473   4.820  14.337  0.00  0.00    +0.000 A 
ATOM     20  C   UNL     1       7.771   5.119  13.002  0.00  0.00    +0.000 A 
ATOM     21  C   UNL     1       7.030   4.540  11.975  0.00  0.00    +0.000 A 
ATOM     22  C   UNL     1       6.001   3.660  12.285  0.00  0.00    +0.000 A 
ATOM     23  C   UNL     1       5.708   3.365  13.621  0.00  0.00    +0.000 A 
ENDBRANCH  16  18
ENDBRANCH   3  16
TORSDOF 4
ENDMDL
MODEL 5
REMARK VINA RESULT:      -7.6      0.128      1.030
REMARK  Name = 
REMARK  4 active torsions:
REMARK  status: ('A' for Active; 'I' for Inactive)
REMARK    1  A    between atoms: C_2  and  C_3
REMARK    2  A    between atoms: N_9  and  N_10
REMARK    3  A    between atoms: N_9  and  C_17
REMARK    4  A    between atoms: N_10  and  C_11
REMARK                            x       y       z     vdW  Elec       q    Type
REMARK                         _______ _______ _______ _____ _____    ______ ____
ROOT
ATOM      1  O   UNL     1       3.369   3.771  16.752  0.00  0.00    +0.000 OA
ATOM      2  C   UNL     1       4.109   4.661  17.176  0.00  0.00    +0.000 C 
ATOM      3  N   UNL     1       5.495   4.717  16.942  0.00  0.00    +0.000 N 
ENDROOT
BRANCH   2   4
ATOM      4  C   UNL     1       3.458   5.739  17.974  0.00  0.00    +0.000 A 
ATOM      5  C   UNL     1       2.995   5.430  19.261  0.00  0.00    +0.000 A 
ATOM      6  C   UNL     1       2.336   6.403  20.018  0.00  0.00    +0.000 A 
ATOM      7  C   UNL     1       2.140   7.682  19.500  0.00  0.00    +0.000 A 
ATOM      8  C   UNL     1       2.584   7.985  18.214  0.00  0.00    +0.000 A 
ATOM      9  C   UNL     1       3.220   7.015  17.449  0.00  0.00    +0.000 A 
ENDBRANCH   2   4
BRANCH   3  10
ATOM     10  C   UNL     1       6.412   5.634  17.500  0.00  0.00    +0.000 A 
ATOM     11  C   UNL     1       7.138   5.289  18.641  0.00  0.00    +0.000 A 
ATOM     12  C   UNL     1       8.059   6.189  19.179  0.00  0.00    +0.000 A 
ATOM     13  C   UNL     1       8.221   7.450  18.607  0.00  0.00    +0.000 A 
ATOM     14  C   UNL     1       7.483   7.806  17.478  0.00  0.00    +0.000 A 
ATOM     15  C   UNL     1       6.598   6.888  16.906  0.00  0.00    +0.000 A 
ENDBRANCH   3  10
BRANCH   3  16
ATOM     16  N   UNL     1       6.129   3.680  16.213  0.00  0.00    +0.000 N 
ATOM     17  H   UNL     1       6.916   3.282  16.719  0.00  0.00    +0.000 HD
BRANCH  16  18
ATOM     18  C   UNL     1       6.440   3.929  14.848  0.00  0.00    +0.000 A 
ATOM     19  C   UNL     1       5.631   3.338  13.864  0.00  0.00    +0.000 A 
ATOM     20  C   UNL     1       5.845   3.584  12.503  0.00  0.00    +0.000 A 
ATOM     21  C   UNL     1       6.858   4.450  12.100  0.00  0.00    +0.000 A 
ATOM     22  C   UNL     1       7.648   5.073  13.058  0.00  0.00    +0.000 A 
ATOM     23  C   UNL     1       7.428   4.825  14.417  0.00  0.00    +0.000 A 
ENDBRANCH  16  18
ENDBRANCH   3  16
TORSDOF 4
ENDMDL
MODEL 6
REMARK VINA RESULT:      -7.6      0.223      1.469
REMARK  Name = 
REMARK  4 active torsions:
REMARK  status: ('A' for Active; 'I' for Inactive)
REMARK    1  A    between atoms: C_2  and  C_3
REMARK    2  A    between atoms: N_9  and  N_10
REMARK    3  A    between atoms: N_9  and  C_17
REMARK    4  A    between atoms: N_10  and  C_11
REMARK                            x       y       z     vdW  Elec       q    Type
REMARK                         _______ _______ _______ _____ _____    ______ ____
ROOT
ATOM      1  O   UNL     1       3.059   3.756  16.950  0.00  0.00    +0.000 OA
ATOM      2  C   UNL     1       3.840   4.633  17.325  0.00  0.00    +0.000 C 
ATOM      3  N   UNL     1       5.215   4.652  17.025  0.00  0.00    +0.000 N 
ENDROOT
BRANCH   2   4
ATOM      4  C   UNL     1       3.254   5.739  18.136  0.00  0.00    +0.000 A 
ATOM      5  C   UNL     1       2.835   5.458  19.444  0.00  0.00    +0.000 A 
ATOM      6  C   UNL     1       2.236   6.458  20.215  0.00  0.00    +0.000 A 
ATOM      7  C   UNL     1       2.056   7.737  19.690  0.00  0.00    +0.000 A 
ATOM      8  C   UNL     1       2.457   8.013  18.383  0.00  0.00    +0.000 A 
ATOM      9  C   UNL     1       3.033   7.015  17.605  0.00  0.00    +0.000 A 
ENDBRANCH   2   4
BRANCH   3  10
ATOM     10  C   UNL     1       6.179   5.554  17.525  0.00  0.00    +0.000 A 
ATOM     11  C   UNL     1       6.322   6.814  16.946  0.00  0.00    +0.000 A 
ATOM     12  C   UNL     1       7.262   7.712  17.455  0.00  0.00    +0.000 A 
ATOM     13  C   UNL     1       8.090   7.334  18.511  0.00  0.00    +0.000 A 
ATOM     14  C   UNL     1       7.963   6.067  19.081  0.00  0.00    +0.000 A 
ATOM     15  C   UNL     1       6.987   5.185  18.606  0.00  0.00    +0.000 A 
ENDBRANCH   3  10
BRANCH   3  16
ATOM     16  N   UNL     1       5.788   3.588  16.284  0.00  0.00    +0.000 N 
ATOM     17  H   UNL     1       6.482   3.077  16.822  0.00  0.00    +0.000 HD
BRANCH  16  18
ATOM     18  C   UNL     1       6.234   3.871  14.963  0.00  0.00    +0.000 A 
ATOM     19  C   UNL     1       5.511   3.330  13.888  0.00  0.00    +0.000 A 
ATOM     20  C   UNL     1       5.860   3.611  12.562  0.00  0.00    +0.000 A 
ATOM     21  C   UNL     1       6.925   4.465  12.286  0.00  0.00    +0.000 A 
ATOM     22  C   UNL     1       7.632   5.040  13.335  0.00  0.00    +0.000 A 
ATOM     23  C   UNL     1       7.278   4.755  14.659  0.00  0.00    +0.000 A 
ENDBRANCH  16  18
ENDBRANCH   3  16
TORSDOF 4
ENDMDL
MODEL 7
REMARK VINA RESULT:      -7.5      0.109      1.454
REMARK  Name = 
REMARK  4 active torsions:
REMARK  status: ('A' for Active; 'I' for Inactive)
REMARK    1  A    between atoms: C_2  and  C_3
REMARK    2  A    between atoms: N_9  and  N_10
REMARK    3  A    between atoms: N_9  and  C_17
REMARK    4  A    between atoms: N_10  and  C_11
REMARK                            x       y       z     vdW  Elec       q    Type
REMARK                         _______ _______ _______ _____ _____    ______ ____
ROOT
ATOM      1  O   UNL     1       3.254   3.640  16.725  0.00  0.00    +0.000 OA
ATOM      2  C   UNL     1       3.993   4.528  17.154  0.00  0.00    +0.000 C 
ATOM      3  N   UNL     1       5.377   4.595  16.906  0.00  0.00    +0.000 N 
ENDROOT
BRANCH   2   4
ATOM      4  C   UNL     1       3.345   5.590  17.975  0.00  0.00    +0.000 A 
ATOM      5  C   UNL     1       3.159   6.856  17.401  0.00  0.00    +0.000 A 
ATOM      6  C   UNL     1       2.601   7.891  18.157  0.00  0.00    +0.000 A 
ATOM      7  C   UNL     1       2.225   7.668  19.480  0.00  0.00    +0.000 A 
ATOM      8  C   UNL     1       2.426   6.416  20.058  0.00  0.00    +0.000 A 
ATOM      9  C   UNL     1       3.001   5.390  19.317  0.00  0.00    +0.000 A 
ENDBRANCH   2   4
BRANCH   3  10
ATOM     10  C   UNL     1       6.295   5.509  17.468  0.00  0.00    +0.000 A 
ATOM     11  C   UNL     1       7.049   5.144  18.582  0.00  0.00    +0.000 A 
ATOM     12  C   UNL     1       7.971   6.042  19.124  0.00  0.00    +0.000 A 
ATOM     13  C   UNL     1       8.105   7.319  18.581  0.00  0.00    +0.000 A 
ATOM     14  C   UNL     1       7.338   7.694  17.478  0.00  0.00    +0.000 A 
ATOM     15  C   UNL     1       6.452   6.780  16.903  0.00  0.00    +0.000 A 
ENDBRANCH   3  10
BRANCH   3  16
ATOM     16  N   UNL     1       6.008   3.572  16.156  0.00  0.00    +0.000 N 
ATOM     17  H   UNL     1       6.767   3.132  16.670  0.00  0.00    +0.000 HD
BRANCH  16  18
ATOM     18  C   UNL     1       6.372   3.869  14.813  0.00  0.00    +0.000 A 
ATOM     19  C   UNL     1       5.584   3.339  13.779  0.00  0.00    +0.000 A 
ATOM     20  C   UNL     1       5.850   3.634  12.437  0.00  0.00    +0.000 A 
ATOM     21  C   UNL     1       6.896   4.490  12.105  0.00  0.00    +0.000 A 
ATOM     22  C   UNL     1       7.667   5.054  13.113  0.00  0.00    +0.000 A 
ATOM     23  C   UNL     1       7.396   4.755  14.453  0.00  0.00    +0.000 A 
ENDBRANCH  16  18
ENDBRANCH   3  16
TORSDOF 4
ENDMDL
MODEL 8
REMARK VINA RESULT:      -7.5      0.126      1.783
REMARK  Name = 
REMARK  4 active torsions:
REMARK  status: ('A' for Active; 'I' for Inactive)
REMARK    1  A    between atoms: C_2  and  C_3
REMARK    2  A    between atoms: N_9  and  N_10
REMARK    3  A    between atoms: N_9  and  C_17
REMARK    4  A    between atoms: N_10  and  C_11
REMARK                            x       y       z     vdW  Elec       q    Type
REMARK                         _______ _______ _______ _____ _____    ______ ____
ROOT
ATOM      1  O   UNL     1       3.314   3.707  16.682  0.00  0.00    +0.000 OA
ATOM      2  C   UNL     1       4.048   4.593  17.123  0.00  0.00    +0.000 C 
ATOM      3  N   UNL     1       5.437   4.654  16.902  0.00  0.00    +0.000 N 
ENDROOT
BRANCH   2   4
ATOM      4  C   UNL     1       3.389   5.662  17.927  0.00  0.00    +0.000 A 
ATOM      5  C   UNL     1       3.222   6.927  17.347  0.00  0.00    +0.000 A 
ATOM      6  C   UNL     1       2.653   7.966  18.088  0.00  0.00    +0.000 A 
ATOM      7  C   UNL     1       2.248   7.749  19.404  0.00  0.00    +0.000 A 
ATOM      8  C   UNL     1       2.430   6.496  19.988  0.00  0.00    +0.000 A 
ATOM      9  C   UNL     1       3.015   5.466  19.262  0.00  0.00    +0.000 A 
ENDBRANCH   2   4
BRANCH   3  10
ATOM     10  C   UNL     1       6.347   5.567  17.479  0.00  0.00    +0.000 A 
ATOM     11  C   UNL     1       6.519   6.831  16.916  0.00  0.00    +0.000 A 
ATOM     12  C   UNL     1       7.404   7.739  17.500  0.00  0.00    +0.000 A 
ATOM     13  C   UNL     1       8.152   7.367  18.617  0.00  0.00    +0.000 A 
ATOM     14  C   UNL     1       7.996   6.096  19.171  0.00  0.00    +0.000 A 
ATOM     15  C   UNL     1       7.073   5.204  18.619  0.00  0.00    +0.000 A 
ENDBRANCH   3  10
BRANCH   3  16
ATOM     16  N   UNL     1       6.079   3.626  16.167  0.00  0.00    +0.000 N 
ATOM     17  H   UNL     1       6.857   3.218  16.679  0.00  0.00    +0.000 HD
BRANCH  16  18
ATOM     18  C   UNL     1       6.412   3.895  14.810  0.00  0.00    +0.000 A 
ATOM     19  C   UNL     1       5.605   3.338  13.806  0.00  0.00    +0.000 A 
ATOM     20  C   UNL     1       5.840   3.604  12.452  0.00  0.00    +0.000 A 
ATOM     21  C   UNL     1       6.873   4.459  12.078  0.00  0.00    +0.000 A 
ATOM     22  C   UNL     1       7.662   5.050  13.057  0.00  0.00    +0.000 A 
ATOM     23  C   UNL     1       7.422   4.780  14.409  0.00  0.00    +0.000 A 
ENDBRANCH  16  18
ENDBRANCH   3  16
TORSDOF 4
ENDMDL
MODEL 9
REMARK VINA RESULT:      -7.2      2.980      5.182
REMARK  Name = 
REMARK  4 active torsions:
REMARK  status: ('A' for Active; 'I' for Inactive)
REMARK    1  A    between atoms: C_2  and  C_3
REMARK    2  A    between atoms: N_9  and  N_10
REMARK    3  A    between atoms: N_9  and  C_17
REMARK    4  A    between atoms: N_10  and  C_11
REMARK                            x       y       z     vdW  Elec       q    Type
REMARK                         _______ _______ _______ _____ _____    ______ ____
ROOT
ATOM      1  O   UNL     1       3.370   8.492  17.532  0.00  0.00    +0.000 OA
ATOM      2  C   UNL     1       2.818   7.697  18.296  0.00  0.00    +0.000 C 
ATOM      3  N   UNL     1       3.148   6.332  18.392  0.00  0.00    +0.000 N 
ENDROOT
BRANCH   2   4
ATOM      4  C   UNL     1       1.746   8.253  19.170  0.00  0.00    +0.000 A 
ATOM      5  C   UNL     1       0.875   9.210  18.632  0.00  0.00    +0.000 A 
ATOM      6  C   UNL     1      -0.110   9.789  19.437  0.00  0.00    +0.000 A 
ATOM      7  C   UNL     1      -0.232   9.417  20.774  0.00  0.00    +0.000 A 
ATOM      8  C   UNL     1       0.646   8.478  21.316  0.00  0.00    +0.000 A 
ATOM      9  C   UNL     1       1.641   7.916  20.525  0.00  0.00    +0.000 A 
ENDBRANCH   2   4
BRANCH   3  10
ATOM     10  C   UNL     1       2.475   5.349  19.150  0.00  0.00    +0.000 A 
ATOM     11  C   UNL     1       1.478   4.573  18.559  0.00  0.00    +0.000 A 
ATOM     12  C   UNL     1       0.828   3.588  19.305  0.00  0.00    +0.000 A 
ATOM     13  C   UNL     1       1.141   3.411  20.652  0.00  0.00    +0.000 A 
ATOM     14  C   UNL     1       2.125   4.198  21.251  0.00  0.00    +0.000 A 
ATOM     15  C   UNL     1       2.812   5.149  20.493  0.00  0.00    +0.000 A 
ENDBRANCH   3  10
BRANCH   3  16
ATOM     16  N   UNL     1       4.141   5.786  17.541  0.00  0.00    +0.000 N 
ATOM     17  H   UNL     1       3.949   4.817  17.301  0.00  0.00    +0.000 HD
BRANCH  16  18
ATOM     18  C   UNL     1       5.502   5.990  17.902  0.00  0.00    +0.000 A 
ATOM     19  C   UNL     1       6.238   6.956  17.197  0.00  0.00    +0.000 A 
ATOM     20  C   UNL     1       7.565   7.248  17.534  0.00  0.00    +0.000 A 
ATOM     21  C   UNL     1       8.173   6.598  18.605  0.00  0.00    +0.000 A 
ATOM     22  C   UNL     1       7.452   5.664  19.338  0.00  0.00    +0.000 A 
ATOM     23  C   UNL     1       6.125   5.377  18.997  0.00  0.00    +0.000 A 
ENDBRANCH  16  18
ENDBRANCH   3  16
TORSDOF 4
ENDMDL
