MODEL 1
REMARK VINA RESULT:      -8.5      0.000      0.000
REMARK  Name = 
REMARK  5 active torsions:
REMARK  status: ('A' for Active; 'I' for Inactive)
REMARK    1  A    between atoms: C_1  and  C_2
REMARK    2  A    between atoms: C_2  and  C_3
REMARK    3  A    between atoms: C_7  and  S_8
REMARK    4  A    between atoms: S_8  and  C_9
REMARK    5  A    between atoms: C_23  and  O_24
REMARK                            x       y       z     vdW  Elec       q    Type
REMARK                         _______ _______ _______ _____ _____    ______ ____
ROOT
ATOM      1  C   UNL     1       2.747   4.263  20.658  0.00  0.00    +0.000 A 
ATOM      2  N   UNL     1       1.968   5.395  20.688  0.00  0.00    +0.000 N 
ATOM      3  C   UNL     1       2.381   6.269  19.720  0.00  0.00    +0.000 A 
ATOM      4  N   UNL     1       1.833   7.471  19.507  0.00  0.00    +0.000 NA
ATOM      5  C   UNL     1       2.400   8.113  18.472  0.00  0.00    +0.000 A 
ATOM      6  N   UNL     1       3.400   7.656  17.686  0.00  0.00    +0.000 NA
ATOM      7  C   UNL     1       3.945   6.437  17.947  0.00  0.00    +0.000 A 
ATOM      8  N   UNL     1       4.926   5.887  17.113  0.00  0.00    +0.000 N 
ATOM      9  C   UNL     1       5.228   6.278  15.762  0.00  0.00    +0.000 C 
ATOM     10  C   UNL     1       6.533   5.470  15.947  0.00  0.00    +0.000 C 
ATOM     11  C   UNL     1       6.333   5.818  17.435  0.00  0.00    +0.000 C 
ATOM     12  C   UNL     1       3.419   5.688  19.015  0.00  0.00    +0.000 A 
ATOM     13  C   UNL     1       3.622   4.402  19.596  0.00  0.00    +0.000 A 
ATOM     14 CL   UNL     1       4.744   3.222  19.097  0.00  0.00    +0.000 Cl
ATOM     15  H   UNL     1       1.205   5.579  21.325  0.00  0.00    +0.000 HD
ENDROOT
BRANCH   1  17
ATOM     16  C   UNL     1       1.185   2.588  21.606  0.00  0.00    +0.000 C 
ATOM     17  C   UNL     1       2.595   3.162  21.653  0.00  0.00    +0.000 C 
ENDBRANCH   1  17
BRANCH  10  18
ATOM     18  O   UNL     1       6.458   4.055  15.614  0.00  0.00    +0.000 OA
ATOM     19  H   UNL     1       6.002   4.049  14.752  0.00  0.00    +0.000 HD
ENDBRANCH  10  18
BRANCH   5  20
ATOM     20  S   UNL     1       1.653   9.676  18.047  0.00  0.00    +0.000 S 
BRANCH  20  21
ATOM     21  C   UNL     1       0.856  10.152  19.558  0.00  0.00    +0.000 A 
ATOM     22  C   UNL     1       1.407   9.889  20.800  0.00  0.00    +0.000 A 
ATOM     23  N   UNL     1       0.875  10.302  21.974  0.00  0.00    +0.000 NA
ATOM     24  C   UNL     1      -0.250  11.023  21.943  0.00  0.00    +0.000 A 
ATOM     25  N   UNL     1      -0.766  11.440  23.105  0.00  0.00    +0.000 NA
ATOM     26  C   UNL     1      -1.898  12.175  23.058  0.00  0.00    +0.000 A 
ATOM     27  C   UNL     1      -2.520  12.498  21.871  0.00  0.00    +0.000 A 
ATOM     28  N   UNL     1      -2.031  12.095  20.681  0.00  0.00    +0.000 NA
ATOM     29  C   UNL     1      -0.895  11.357  20.724  0.00  0.00    +0.000 A 
ATOM     30  C   UNL     1      -0.315  10.908  19.542  0.00  0.00    +0.000 A 
ENDBRANCH  20  21
ENDBRANCH   5  20
TORSDOF 4
ENDMDL
MODEL 2
REMARK VINA RESULT:      -8.2      4.083      8.455
REMARK  Name = 
REMARK  5 active torsions:
REMARK  status: ('A' for Active; 'I' for Inactive)
REMARK    1  A    between atoms: C_1  and  C_2
REMARK    2  A    between atoms: C_2  and  C_3
REMARK    3  A    between atoms: C_7  and  S_8
REMARK    4  A    between atoms: S_8  and  C_9
REMARK    5  A    between atoms: C_23  and  O_24
REMARK                            x       y       z     vdW  Elec       q    Type
REMARK                         _______ _______ _______ _____ _____    ______ ____
ROOT
ATOM      1  C   UNL     1      -1.062  12.184  21.807  0.00  0.00    +0.000 A 
ATOM      2  N   UNL     1       0.142  11.559  21.584  0.00  0.00    +0.000 N 
ATOM      3  C   UNL     1       0.126  10.943  20.363  0.00  0.00    +0.000 A 
ATOM      4  N   UNL     1       1.145  10.234  19.863  0.00  0.00    +0.000 NA
ATOM      5  C   UNL     1       0.885   9.767  18.630  0.00  0.00    +0.000 A 
ATOM      6  N   UNL     1      -0.245   9.961  17.913  0.00  0.00    +0.000 NA
ATOM      7  C   UNL     1      -1.266  10.671  18.463  0.00  0.00    +0.000 A 
ATOM      8  N   UNL     1      -2.422  10.967  17.730  0.00  0.00    +0.000 N 
ATOM      9  C   UNL     1      -2.570  10.927  16.299  0.00  0.00    +0.000 C 
ATOM     10  C   UNL     1      -4.090  10.982  16.575  0.00  0.00    +0.000 C 
ATOM     11  C   UNL     1      -3.697  10.312  17.907  0.00  0.00    +0.000 C 
ATOM     12  C   UNL     1      -1.090  11.200  19.754  0.00  0.00    +0.000 A 
ATOM     13  C   UNL     1      -1.823  12.016  20.665  0.00  0.00    +0.000 A 
ATOM     14 CL   UNL     1      -3.373  12.679  20.420  0.00  0.00    +0.000 Cl
ATOM     15  H   UNL     1       0.931  11.538  22.215  0.00  0.00    +0.000 HD
ENDROOT
BRANCH   1  17
ATOM     16  C   UNL     1      -1.012  14.347  23.018  0.00  0.00    +0.000 C 
ATOM     17  C   UNL     1      -1.379  12.871  23.092  0.00  0.00    +0.000 C 
ENDBRANCH   1  17
BRANCH  10  18
ATOM     18  O   UNL     1      -4.668  12.313  16.685  0.00  0.00    +0.000 OA
ATOM     19  H   UNL     1      -4.095  12.756  17.337  0.00  0.00    +0.000 HD
ENDBRANCH  10  18
BRANCH   5  20
ATOM     20  S   UNL     1       2.234   8.905  17.844  0.00  0.00    +0.000 S 
BRANCH  20  21
ATOM     21  C   UNL     1       2.370   7.426  18.814  0.00  0.00    +0.000 A 
ATOM     22  C   UNL     1       1.750   7.288  20.043  0.00  0.00    +0.000 A 
ATOM     23  N   UNL     1       1.761   6.152  20.780  0.00  0.00    +0.000 NA
ATOM     24  C   UNL     1       2.400   5.084  20.291  0.00  0.00    +0.000 A 
ATOM     25  N   UNL     1       2.397   3.960  21.017  0.00  0.00    +0.000 NA
ATOM     26  C   UNL     1       3.038   2.886  20.507  0.00  0.00    +0.000 A 
ATOM     27  C   UNL     1       3.680   2.919  19.287  0.00  0.00    +0.000 A 
ATOM     28  N   UNL     1       3.705   4.034  18.529  0.00  0.00    +0.000 NA
ATOM     29  C   UNL     1       3.063   5.113  19.038  0.00  0.00    +0.000 A 
ATOM     30  C   UNL     1       3.029   6.302  18.317  0.00  0.00    +0.000 A 
ENDBRANCH  20  21
ENDBRANCH   5  20
TORSDOF 4
ENDMDL
MODEL 3
REMARK VINA RESULT:      -8.2      1.332      1.928
REMARK  Name = 
REMARK  5 active torsions:
REMARK  status: ('A' for Active; 'I' for Inactive)
REMARK    1  A    between atoms: C_1  and  C_2
REMARK    2  A    between atoms: C_2  and  C_3
REMARK    3  A    between atoms: C_7  and  S_8
REMARK    4  A    between atoms: S_8  and  C_9
REMARK    5  A    between atoms: C_23  and  O_24
REMARK                            x       y       z     vdW  Elec       q    Type
REMARK                         _______ _______ _______ _____ _____    ______ ____
ROOT
ATOM      1  C   UNL     1       2.201   3.460  19.791  0.00  0.00    +0.000 A 
ATOM      2  N   UNL     1       1.420   4.550  19.491  0.00  0.00    +0.000 N 
ATOM      3  C   UNL     1       2.200   5.557  18.994  0.00  0.00    +0.000 A 
ATOM      4  N   UNL     1       1.737   6.757  18.625  0.00  0.00    +0.000 NA
ATOM      5  C   UNL     1       2.706   7.549  18.136  0.00  0.00    +0.000 A 
ATOM      6  N   UNL     1       4.013   7.234  17.992  0.00  0.00    +0.000 NA
ATOM      7  C   UNL     1       4.449   6.011  18.397  0.00  0.00    +0.000 A 
ATOM      8  N   UNL     1       5.775   5.610  18.194  0.00  0.00    +0.000 N 
ATOM      9  C   UNL     1       6.720   6.185  17.274  0.00  0.00    +0.000 C 
ATOM     10  C   UNL     1       7.790   5.405  18.071  0.00  0.00    +0.000 C 
ATOM     11  C   UNL     1       6.781   5.548  19.229  0.00  0.00    +0.000 C 
ATOM     12  C   UNL     1       3.508   5.111  18.926  0.00  0.00    +0.000 A 
ATOM     13  C   UNL     1       3.492   3.767  19.403  0.00  0.00    +0.000 A 
ATOM     14 CL   UNL     1       4.818   2.702  19.497  0.00  0.00    +0.000 Cl
ATOM     15  H   UNL     1       0.420   4.623  19.616  0.00  0.00    +0.000 HD
ENDROOT
BRANCH   1  17
ATOM     16  C   UNL     1       1.436   2.454  21.924  0.00  0.00    +0.000 C 
ATOM     17  C   UNL     1       1.646   2.232  20.432  0.00  0.00    +0.000 C 
ENDBRANCH   1  17
BRANCH  10  18
ATOM     18  O   UNL     1       8.050   4.046  17.624  0.00  0.00    +0.000 OA
ATOM     19  H   UNL     1       9.020   4.021  17.526  0.00  0.00    +0.000 HD
ENDBRANCH  10  18
BRANCH   5  20
ATOM     20  S   UNL     1       2.155   9.129  17.515  0.00  0.00    +0.000 S 
BRANCH  20  21
ATOM     21  C   UNL     1       1.232   9.784  18.880  0.00  0.00    +0.000 A 
ATOM     22  C   UNL     1       0.303  10.797  18.727  0.00  0.00    +0.000 A 
ATOM     23  N   UNL     1      -0.480  11.273  19.725  0.00  0.00    +0.000 NA
ATOM     24  C   UNL     1      -0.365  10.724  20.938  0.00  0.00    +0.000 A 
ATOM     25  N   UNL     1      -1.149  11.188  21.918  0.00  0.00    +0.000 NA
ATOM     26  C   UNL     1      -1.029  10.618  23.136  0.00  0.00    +0.000 A 
ATOM     27  C   UNL     1      -0.140   9.595  23.389  0.00  0.00    +0.000 A 
ATOM     28  N   UNL     1       0.667   9.104  22.428  0.00  0.00    +0.000 NA
ATOM     29  C   UNL     1       0.550   9.673  21.205  0.00  0.00    +0.000 A 
ATOM     30  C   UNL     1       1.336   9.219  20.151  0.00  0.00    +0.000 A 
ENDBRANCH  20  21
ENDBRANCH   5  20
TORSDOF 4
ENDMDL
MODEL 4
REMARK VINA RESULT:      -8.0      0.795      1.481
REMARK  Name = 
REMARK  5 active torsions:
REMARK  status: ('A' for Active; 'I' for Inactive)
REMARK    1  A    between atoms: C_1  and  C_2
REMARK    2  A    between atoms: C_2  and  C_3
REMARK    3  A    between atoms: C_7  and  S_8
REMARK    4  A    between atoms: S_8  and  C_9
REMARK    5  A    between atoms: C_23  and  O_24
REMARK                            x       y       z     vdW  Elec       q    Type
REMARK                         _______ _______ _______ _____ _____    ______ ____
ROOT
ATOM      1  C   UNL     1       2.543   4.527  20.778  0.00  0.00    +0.000 A 
ATOM      2  N   UNL     1       1.877   5.725  20.679  0.00  0.00    +0.000 N 
ATOM      3  C   UNL     1       2.395   6.460  19.648  0.00  0.00    +0.000 A 
ATOM      4  N   UNL     1       1.972   7.683  19.308  0.00  0.00    +0.000 NA
ATOM      5  C   UNL     1       2.622   8.167  18.236  0.00  0.00    +0.000 A 
ATOM      6  N   UNL     1       3.592   7.545  17.529  0.00  0.00    +0.000 NA
ATOM      7  C   UNL     1       4.009   6.310  17.918  0.00  0.00    +0.000 A 
ATOM      8  N   UNL     1       4.952   5.593  17.171  0.00  0.00    +0.000 N 
ATOM      9  C   UNL     1       5.322   5.824  15.800  0.00  0.00    +0.000 C 
ATOM     10  C   UNL     1       6.537   4.917  16.101  0.00  0.00    +0.000 C 
ATOM     11  C   UNL     1       6.337   5.423  17.543  0.00  0.00    +0.000 C 
ATOM     12  C   UNL     1       3.389   5.719  19.033  0.00  0.00    +0.000 A 
ATOM     13  C   UNL     1       3.451   4.481  19.737  0.00  0.00    +0.000 A 
ATOM     14 CL   UNL     1       4.465   3.158  19.385  0.00  0.00    +0.000 Cl
ATOM     15  H   UNL     1       1.121   6.040  21.271  0.00  0.00    +0.000 HD
ENDROOT
BRANCH   1  17
ATOM     16  C   UNL     1       1.294   2.471  21.381  0.00  0.00    +0.000 C 
ATOM     17  C   UNL     1       2.261   3.544  21.865  0.00  0.00    +0.000 C 
ENDBRANCH   1  17
BRANCH  10  18
ATOM     18  O   UNL     1       6.332   3.491  15.897  0.00  0.00    +0.000 OA
ATOM     19  H   UNL     1       5.546   3.455  15.322  0.00  0.00    +0.000 HD
ENDBRANCH  10  18
BRANCH   5  20
ATOM     20  S   UNL     1       2.041   9.747  17.645  0.00  0.00    +0.000 S 
BRANCH  20  21
ATOM     21  C   UNL     1       1.025  10.314  18.983  0.00  0.00    +0.000 A 
ATOM     22  C   UNL     1      -0.016  11.206  18.796  0.00  0.00    +0.000 A 
ATOM     23  N   UNL     1      -0.866  11.604  19.772  0.00  0.00    +0.000 NA
ATOM     24  C   UNL     1      -0.705  11.098  20.999  0.00  0.00    +0.000 A 
ATOM     25  N   UNL     1      -1.554  11.484  21.957  0.00  0.00    +0.000 NA
ATOM     26  C   UNL     1      -1.387  10.957  23.189  0.00  0.00    +0.000 A 
ATOM     27  C   UNL     1      -0.386  10.054  23.477  0.00  0.00    +0.000 A 
ATOM     28  N   UNL     1       0.489   9.643  22.538  0.00  0.00    +0.000 NA
ATOM     29  C   UNL     1       0.324  10.169  21.300  0.00  0.00    +0.000 A 
ATOM     30  C   UNL     1       1.176   9.792  20.268  0.00  0.00    +0.000 A 
ENDBRANCH  20  21
ENDBRANCH   5  20
TORSDOF 4
ENDMDL
MODEL 5
REMARK VINA RESULT:      -7.9      1.723      3.844
REMARK  Name = 
REMARK  5 active torsions:
REMARK  status: ('A' for Active; 'I' for Inactive)
REMARK    1  A    between atoms: C_1  and  C_2
REMARK    2  A    between atoms: C_2  and  C_3
REMARK    3  A    between atoms: C_7  and  S_8
REMARK    4  A    between atoms: S_8  and  C_9
REMARK    5  A    between atoms: C_23  and  O_24
REMARK                            x       y       z     vdW  Elec       q    Type
REMARK                         _______ _______ _______ _____ _____    ______ ____
ROOT
ATOM      1  C   UNL     1       5.989   5.464  17.371  0.00  0.00    +0.000 A 
ATOM      2  N   UNL     1       5.546   6.693  16.943  0.00  0.00    +0.000 N 
ATOM      3  C   UNL     1       4.309   6.948  17.467  0.00  0.00    +0.000 A 
ATOM      4  N   UNL     1       3.601   8.057  17.223  0.00  0.00    +0.000 NA
ATOM      5  C   UNL     1       2.435   8.075  17.892  0.00  0.00    +0.000 A 
ATOM      6  N   UNL     1       1.971   7.126  18.736  0.00  0.00    +0.000 NA
ATOM      7  C   UNL     1       2.711   6.003  18.943  0.00  0.00    +0.000 A 
ATOM      8  N   UNL     1       2.312   5.032  19.869  0.00  0.00    +0.000 N 
ATOM      9  C   UNL     1       1.366   5.198  20.940  0.00  0.00    +0.000 C 
ATOM     10  C   UNL     1       1.360   3.654  21.013  0.00  0.00    +0.000 C 
ATOM     11  C   UNL     1       1.734   3.755  19.521  0.00  0.00    +0.000 C 
ATOM     12  C   UNL     1       3.949   5.891  18.284  0.00  0.00    +0.000 A 
ATOM     13  C   UNL     1       5.037   4.971  18.243  0.00  0.00    +0.000 A 
ATOM     14 CL   UNL     1       5.167   3.505  19.101  0.00  0.00    +0.000 Cl
ATOM     15  H   UNL     1       6.038   7.327  16.329  0.00  0.00    +0.000 HD
ENDROOT
BRANCH   1  17
ATOM     16  C   UNL     1       7.235   4.639  15.392  0.00  0.00    +0.000 C 
ATOM     17  C   UNL     1       7.273   4.870  16.897  0.00  0.00    +0.000 C 
ENDBRANCH   1  17
BRANCH  10  18
ATOM     18  O   UNL     1       2.365   3.054  21.877  0.00  0.00    +0.000 OA
ATOM     19  H   UNL     1       1.896   2.303  22.284  0.00  0.00    +0.000 HD
ENDBRANCH  10  18
BRANCH   5  20
ATOM     20  S   UNL     1       1.479   9.570  17.712  0.00  0.00    +0.000 S 
BRANCH  20  21
ATOM     21  C   UNL     1       0.822   9.812  19.341  0.00  0.00    +0.000 A 
ATOM     22  C   UNL     1       1.363   9.196  20.456  0.00  0.00    +0.000 A 
ATOM     23  N   UNL     1       0.945   9.412  21.726  0.00  0.00    +0.000 NA
ATOM     24  C   UNL     1      -0.045  10.287  21.928  0.00  0.00    +0.000 A 
ATOM     25  N   UNL     1      -0.446  10.507  23.185  0.00  0.00    +0.000 NA
ATOM     26  C   UNL     1      -1.441  11.400  23.376  0.00  0.00    +0.000 A 
ATOM     27  C   UNL     1      -2.040  12.073  22.332  0.00  0.00    +0.000 A 
ATOM     28  N   UNL     1      -1.664  11.875  21.053  0.00  0.00    +0.000 NA
ATOM     29  C   UNL     1      -0.666  10.981  20.858  0.00  0.00    +0.000 A 
ATOM     30  C   UNL     1      -0.207  10.724  19.570  0.00  0.00    +0.000 A 
ENDBRANCH  20  21
ENDBRANCH   5  20
TORSDOF 4
ENDMDL
MODEL 6
REMARK VINA RESULT:      -7.9      4.289      8.507
REMARK  Name = 
REMARK  5 active torsions:
REMARK  status: ('A' for Active; 'I' for Inactive)
REMARK    1  A    between atoms: C_1  and  C_2
REMARK    2  A    between atoms: C_2  and  C_3
REMARK    3  A    between atoms: C_7  and  S_8
REMARK    4  A    between atoms: S_8  and  C_9
REMARK    5  A    between atoms: C_23  and  O_24
REMARK                            x       y       z     vdW  Elec       q    Type
REMARK                         _______ _______ _______ _____ _____    ______ ____
ROOT
ATOM      1  C   UNL     1      -2.849  10.638  17.055  0.00  0.00    +0.000 A 
ATOM      2  N   UNL     1      -1.741   9.964  16.600  0.00  0.00    +0.000 N 
ATOM      3  C   UNL     1      -0.774   9.953  17.568  0.00  0.00    +0.000 A 
ATOM      4  N   UNL     1       0.431   9.391  17.423  0.00  0.00    +0.000 NA
ATOM      5  C   UNL     1       1.176   9.487  18.538  0.00  0.00    +0.000 A 
ATOM      6  N   UNL     1       0.812  10.060  19.707  0.00  0.00    +0.000 NA
ATOM      7  C   UNL     1      -0.415  10.639  19.809  0.00  0.00    +0.000 A 
ATOM      8  N   UNL     1      -0.867  11.173  21.022  0.00  0.00    +0.000 N 
ATOM      9  C   UNL     1      -0.349  10.892  22.334  0.00  0.00    +0.000 C 
ATOM     10  C   UNL     1      -1.145  12.139  22.784  0.00  0.00    +0.000 C 
ATOM     11  C   UNL     1      -0.937  12.584  21.323  0.00  0.00    +0.000 C 
ATOM     12  C   UNL     1      -1.268  10.592  18.692  0.00  0.00    +0.000 A 
ATOM     13  C   UNL     1      -2.597  10.992  18.367  0.00  0.00    +0.000 A 
ATOM     14 CL   UNL     1      -3.704  11.780  19.394  0.00  0.00    +0.000 Cl
ATOM     15  H   UNL     1      -1.630   9.540  15.689  0.00  0.00    +0.000 HD
ENDROOT
BRANCH   1  17
ATOM     16  C   UNL     1      -3.775  10.432  14.764  0.00  0.00    +0.000 C 
ATOM     17  C   UNL     1      -4.039  10.891  16.192  0.00  0.00    +0.000 C 
ENDBRANCH   1  17
BRANCH  10  18
ATOM     18  O   UNL     1      -2.524  11.903  23.182  0.00  0.00    +0.000 OA
ATOM     19  H   UNL     1      -3.017  12.604  22.717  0.00  0.00    +0.000 HD
ENDBRANCH  10  18
BRANCH   5  20
ATOM     20  S   UNL     1       2.756   8.663  18.469  0.00  0.00    +0.000 S 
BRANCH  20  21
ATOM     21  C   UNL     1       2.372   7.033  19.054  0.00  0.00    +0.000 A 
ATOM     22  C   UNL     1       1.916   6.796  20.338  0.00  0.00    +0.000 A 
ATOM     23  N   UNL     1       1.536   5.582  20.802  0.00  0.00    +0.000 NA
ATOM     24  C   UNL     1       1.588   4.539  19.967  0.00  0.00    +0.000 A 
ATOM     25  N   UNL     1       1.200   3.344  20.426  0.00  0.00    +0.000 NA
ATOM     26  C   UNL     1       1.248   2.301  19.569  0.00  0.00    +0.000 A 
ATOM     27  C   UNL     1       1.679   2.434  18.267  0.00  0.00    +0.000 A 
ATOM     28  N   UNL     1       2.079   3.622  17.770  0.00  0.00    +0.000 NA
ATOM     29  C   UNL     1       2.032   4.670  18.627  0.00  0.00    +0.000 A 
ATOM     30  C   UNL     1       2.416   5.935  18.195  0.00  0.00    +0.000 A 
ENDBRANCH  20  21
ENDBRANCH   5  20
TORSDOF 4
ENDMDL
MODEL 7
REMARK VINA RESULT:      -7.9      4.038      8.175
REMARK  Name = 
REMARK  5 active torsions:
REMARK  status: ('A' for Active; 'I' for Inactive)
REMARK    1  A    between atoms: C_1  and  C_2
REMARK    2  A    between atoms: C_2  and  C_3
REMARK    3  A    between atoms: C_7  and  S_8
REMARK    4  A    between atoms: S_8  and  C_9
REMARK    5  A    between atoms: C_23  and  O_24
REMARK                            x       y       z     vdW  Elec       q    Type
REMARK                         _______ _______ _______ _____ _____    ______ ____
ROOT
ATOM      1  C   UNL     1      -0.908  11.878  21.687  0.00  0.00    +0.000 A 
ATOM      2  N   UNL     1       0.288  11.220  21.526  0.00  0.00    +0.000 N 
ATOM      3  C   UNL     1       0.309  10.585  20.315  0.00  0.00    +0.000 A 
ATOM      4  N   UNL     1       1.330   9.843  19.871  0.00  0.00    +0.000 NA
ATOM      5  C   UNL     1       1.111   9.362  18.635  0.00  0.00    +0.000 A 
ATOM      6  N   UNL     1       0.019   9.572  17.867  0.00  0.00    +0.000 NA
ATOM      7  C   UNL     1      -1.007  10.316  18.362  0.00  0.00    +0.000 A 
ATOM      8  N   UNL     1      -2.123  10.628  17.575  0.00  0.00    +0.000 N 
ATOM      9  C   UNL     1      -2.211  10.567  16.140  0.00  0.00    +0.000 C 
ATOM     10  C   UNL     1      -3.739  10.664  16.349  0.00  0.00    +0.000 C 
ATOM     11  C   UNL     1      -3.420  10.006  17.707  0.00  0.00    +0.000 C 
ATOM     12  C   UNL     1      -0.873  10.861  19.651  0.00  0.00    +0.000 A 
ATOM     13  C   UNL     1      -1.623  11.710  20.516  0.00  0.00    +0.000 A 
ATOM     14 CL   UNL     1      -3.144  12.406  20.195  0.00  0.00    +0.000 Cl
ATOM     15  H   UNL     1       1.049  11.190  22.191  0.00  0.00    +0.000 HD
ENDROOT
BRANCH   1  17
ATOM     16  C   UNL     1      -2.589  12.087  23.498  0.00  0.00    +0.000 C 
ATOM     17  C   UNL     1      -1.262  12.593  22.948  0.00  0.00    +0.000 C 
ENDBRANCH   1  17
BRANCH  10  18
ATOM     18  O   UNL     1      -4.288  12.010  16.413  0.00  0.00    +0.000 OA
ATOM     19  H   UNL     1      -4.780  12.015  17.254  0.00  0.00    +0.000 HD
ENDBRANCH  10  18
BRANCH   5  20
ATOM     20  S   UNL     1       2.471   8.454  17.922  0.00  0.00    +0.000 S 
BRANCH  20  21
ATOM     21  C   UNL     1       2.135   6.787  18.426  0.00  0.00    +0.000 A 
ATOM     22  C   UNL     1       1.803   5.793  17.523  0.00  0.00    +0.000 A 
ATOM     23  N   UNL     1       1.616   4.493  17.853  0.00  0.00    +0.000 NA
ATOM     24  C   UNL     1       1.773   4.134  19.131  0.00  0.00    +0.000 A 
ATOM     25  N   UNL     1       1.600   2.846  19.450  0.00  0.00    +0.000 NA
ATOM     26  C   UNL     1       1.771   2.495  20.743  0.00  0.00    +0.000 A 
ATOM     27  C   UNL     1       2.110   3.409  21.718  0.00  0.00    +0.000 A 
ATOM     28  N   UNL     1       2.291   4.714  21.434  0.00  0.00    +0.000 NA
ATOM     29  C   UNL     1       2.121   5.070  20.138  0.00  0.00    +0.000 A 
ATOM     30  C   UNL     1       2.299   6.395  19.754  0.00  0.00    +0.000 A 
ENDBRANCH  20  21
ENDBRANCH   5  20
TORSDOF 4
ENDMDL
MODEL 8
REMARK VINA RESULT:      -7.9      1.020      1.071
REMARK  Name = 
REMARK  5 active torsions:
REMARK  status: ('A' for Active; 'I' for Inactive)
REMARK    1  A    between atoms: C_1  and  C_2
REMARK    2  A    between atoms: C_2  and  C_3
REMARK    3  A    between atoms: C_7  and  S_8
REMARK    4  A    between atoms: S_8  and  C_9
REMARK    5  A    between atoms: C_23  and  O_24
REMARK                            x       y       z     vdW  Elec       q    Type
REMARK                         _______ _______ _______ _____ _____    ______ ____
ROOT
ATOM      1  C   UNL     1       2.488   4.637  20.810  0.00  0.00    +0.000 A 
ATOM      2  N   UNL     1       1.838   5.846  20.742  0.00  0.00    +0.000 N 
ATOM      3  C   UNL     1       2.349   6.592  19.716  0.00  0.00    +0.000 A 
ATOM      4  N   UNL     1       1.937   7.826  19.404  0.00  0.00    +0.000 NA
ATOM      5  C   UNL     1       2.576   8.321  18.330  0.00  0.00    +0.000 A 
ATOM      6  N   UNL     1       3.525   7.698  17.596  0.00  0.00    +0.000 NA
ATOM      7  C   UNL     1       3.931   6.451  17.957  0.00  0.00    +0.000 A 
ATOM      8  N   UNL     1       4.851   5.734  17.181  0.00  0.00    +0.000 N 
ATOM      9  C   UNL     1       5.201   5.984  15.808  0.00  0.00    +0.000 C 
ATOM     10  C   UNL     1       6.409   5.056  16.073  0.00  0.00    +0.000 C 
ATOM     11  C   UNL     1       6.240   5.538  17.527  0.00  0.00    +0.000 C 
ATOM     12  C   UNL     1       3.321   5.849  19.072  0.00  0.00    +0.000 A 
ATOM     13  C   UNL     1       3.378   4.597  19.752  0.00  0.00    +0.000 A 
ATOM     14 CL   UNL     1       4.367   3.267  19.360  0.00  0.00    +0.000 Cl
ATOM     15  H   UNL     1       1.096   6.161  21.353  0.00  0.00    +0.000 HD
ENDROOT
BRANCH   1  17
ATOM     16  C   UNL     1       1.365   2.493  21.346  0.00  0.00    +0.000 C 
ATOM     17  C   UNL     1       2.211   3.640  21.883  0.00  0.00    +0.000 C 
ENDBRANCH   1  17
BRANCH  10  18
ATOM     18  O   UNL     1       6.181   3.636  15.848  0.00  0.00    +0.000 OA
ATOM     19  H   UNL     1       5.350   3.461  16.327  0.00  0.00    +0.000 HD
ENDBRANCH  10  18
BRANCH   5  20
ATOM     20  S   UNL     1       2.008   9.918  17.777  0.00  0.00    +0.000 S 
BRANCH  20  21
ATOM     21  C   UNL     1       1.011  10.470  19.136  0.00  0.00    +0.000 A 
ATOM     22  C   UNL     1       0.175   9.618  19.835  0.00  0.00    +0.000 A 
ATOM     23  N   UNL     1      -0.543   9.977  20.926  0.00  0.00    +0.000 NA
ATOM     24  C   UNL     1      -0.431  11.231  21.375  0.00  0.00    +0.000 A 
ATOM     25  N   UNL     1      -1.131  11.578  22.460  0.00  0.00    +0.000 NA
ATOM     26  C   UNL     1      -1.002  12.845  22.908  0.00  0.00    +0.000 A 
ATOM     27  C   UNL     1      -0.188  13.768  22.289  0.00  0.00    +0.000 A 
ATOM     28  N   UNL     1       0.531  13.456  21.192  0.00  0.00    +0.000 NA
ATOM     29  C   UNL     1       0.405  12.185  20.740  0.00  0.00    +0.000 A 
ATOM     30  C   UNL     1       1.119  11.774  19.620  0.00  0.00    +0.000 A 
ENDBRANCH  20  21
ENDBRANCH   5  20
TORSDOF 4
ENDMDL
MODEL 9
REMARK VINA RESULT:      -7.7      4.224      8.489
REMARK  Name = 
REMARK  5 active torsions:
REMARK  status: ('A' for Active; 'I' for Inactive)
REMARK    1  A    between atoms: C_1  and  C_2
REMARK    2  A    between atoms: C_2  and  C_3
REMARK    3  A    between atoms: C_7  and  S_8
REMARK    4  A    between atoms: S_8  and  C_9
REMARK    5  A    between atoms: C_23  and  O_24
REMARK                            x       y       z     vdW  Elec       q    Type
REMARK                         _______ _______ _______ _____ _____    ______ ____
ROOT
ATOM      1  C   UNL     1      -2.700  10.674  17.063  0.00  0.00    +0.000 A 
ATOM      2  N   UNL     1      -1.597   9.985  16.620  0.00  0.00    +0.000 N 
ATOM      3  C   UNL     1      -0.659   9.921  17.614  0.00  0.00    +0.000 A 
ATOM      4  N   UNL     1       0.535   9.331  17.486  0.00  0.00    +0.000 NA
ATOM      5  C   UNL     1       1.250   9.377  18.624  0.00  0.00    +0.000 A 
ATOM      6  N   UNL     1       0.867   9.926  19.799  0.00  0.00    +0.000 NA
ATOM      7  C   UNL     1      -0.347  10.534  19.883  0.00  0.00    +0.000 A 
ATOM      8  N   UNL     1      -0.820  11.044  21.098  0.00  0.00    +0.000 N 
ATOM      9  C   UNL     1      -0.347  10.713  22.415  0.00  0.00    +0.000 C 
ATOM     10  C   UNL     1      -1.123  11.967  22.879  0.00  0.00    +0.000 C 
ATOM     11  C   UNL     1      -0.863  12.448  21.437  0.00  0.00    +0.000 C 
ATOM     12  C   UNL     1      -1.168  10.540  18.741  0.00  0.00    +0.000 A 
ATOM     13  C   UNL     1      -2.477  10.985  18.391  0.00  0.00    +0.000 A 
ATOM     14 CL   UNL     1      -3.593  11.772  19.409  0.00  0.00    +0.000 Cl
ATOM     15  H   UNL     1      -1.471   9.584  15.701  0.00  0.00    +0.000 HD
ENDROOT
BRANCH   1  17
ATOM     16  C   UNL     1      -3.656  10.370  14.795  0.00  0.00    +0.000 C 
ATOM     17  C   UNL     1      -3.858  10.983  16.175  0.00  0.00    +0.000 C 
ENDBRANCH   1  17
BRANCH  10  18
ATOM     18  O   UNL     1      -2.519  11.757  23.231  0.00  0.00    +0.000 OA
ATOM     19  H   UNL     1      -2.561  10.804  23.433  0.00  0.00    +0.000 HD
ENDBRANCH  10  18
BRANCH   5  20
ATOM     20  S   UNL     1       2.810   8.514  18.575  0.00  0.00    +0.000 S 
BRANCH  20  21
ATOM     21  C   UNL     1       2.327   6.822  18.797  0.00  0.00    +0.000 A 
ATOM     22  C   UNL     1       2.018   5.995  17.732  0.00  0.00    +0.000 A 
ATOM     23  N   UNL     1       1.722   4.678  17.849  0.00  0.00    +0.000 NA
ATOM     24  C   UNL     1       1.739   4.129  19.068  0.00  0.00    +0.000 A 
ATOM     25  N   UNL     1       1.458   2.826  19.177  0.00  0.00    +0.000 NA
ATOM     26  C   UNL     1       1.489   2.282  20.412  0.00  0.00    +0.000 A 
ATOM     27  C   UNL     1       1.794   3.019  21.537  0.00  0.00    +0.000 A 
ATOM     28  N   UNL     1       2.080   4.334  21.466  0.00  0.00    +0.000 NA
ATOM     29  C   UNL     1       2.051   4.883  20.228  0.00  0.00    +0.000 A 
ATOM     30  C   UNL     1       2.345   6.232  20.061  0.00  0.00    +0.000 A 
ENDBRANCH  20  21
ENDBRANCH   5  20
TORSDOF 4
ENDMDL
