MODEL 1
REMARK VINA RESULT:      -8.6      0.000      0.000
REMARK  Name = 
REMARK  3 active torsions:
REMARK  status: ('A' for Active; 'I' for Inactive)
REMARK    1  A    between atoms: C_2  and  C_3
REMARK    2  A    between atoms: N_14  and  C_15
REMARK    3  A    between atoms: C_15  and  C_16
REMARK                            x       y       z     vdW  Elec       q    Type
REMARK                         _______ _______ _______ _____ _____    ______ ____
ROOT
ATOM      1  C   UNL     1       1.407   8.464  21.423  0.00  0.00    +0.000 C 
ENDROOT
BRANCH   1   2
ATOM      2  C   UNL     1       1.846   7.251  20.604  0.00  0.00    +0.000 C 
ATOM      3  N   UNL     1       2.568   7.460  19.533  0.00  0.00    +0.000 NA
ATOM      4  C   UNL     1       3.006   6.319  18.823  0.00  0.00    +0.000 A 
ATOM      5  C   UNL     1       3.791   6.486  17.679  0.00  0.00    +0.000 A 
ATOM      6  C   UNL     1       4.279   5.369  16.980  0.00  0.00    +0.000 A 
ATOM      7  C   UNL     1       3.980   4.075  17.416  0.00  0.00    +0.000 A 
ATOM      8  C   UNL     1       3.188   3.904  18.553  0.00  0.00    +0.000 A 
ATOM      9  C   UNL     1       2.841   2.578  19.079  0.00  0.00    +0.000 A 
ATOM     10  O   UNL     1       3.247   1.556  18.537  0.00  0.00    +0.000 OA
ATOM     11  N   UNL     1       2.043   2.559  20.203  0.00  0.00    +0.000 N 
ATOM     12  N   UNL     1       1.560   3.651  20.878  0.00  0.00    +0.000 NA
ATOM     13  C   UNL     1       1.882   4.827  20.427  0.00  0.00    +0.000 A 
ATOM     14  C   UNL     1       2.712   5.012  19.232  0.00  0.00    +0.000 A 
ATOM     15  N   UNL     1       1.483   5.992  21.023  0.00  0.00    +0.000 N 
ATOM     16  H   UNL     1       1.802   1.649  20.585  0.00  0.00    +0.000 HD
ATOM     17  H   UNL     1       0.859   5.910  21.818  0.00  0.00    +0.000 HD
ENDBRANCH   1   2
BRANCH   1  24
ATOM     18  O   UNL     1      -1.291  13.459  19.734  0.00  0.00    +0.000 OA
ATOM     19  C   UNL     1      -1.428  12.268  19.459  0.00  0.00    +0.000 C 
ATOM     20  N   UNL     1      -0.604  11.262  19.977  0.00  0.00    +0.000 N 
ATOM     21  C   UNL     1       0.339  11.621  21.025  0.00  0.00    +0.000 C 
ATOM     22  C   UNL     1       0.001  11.029  22.392  0.00  0.00    +0.000 C 
ATOM     23  C   UNL     1      -0.498   9.578  22.480  0.00  0.00    +0.000 C 
ATOM     24  N   UNL     1      -0.055   8.571  21.505  0.00  0.00    +0.000 NA
ATOM     25  C   UNL     1      -0.750   8.743  20.218  0.00  0.00    +0.000 C 
ATOM     26  C   UNL     1      -0.375   9.953  19.339  0.00  0.00    +0.000 C 
BRANCH  19  27
ATOM     27  C   UNL     1      -2.559  11.906  18.566  0.00  0.00    +0.000 A 
ATOM     28  C   UNL     1      -3.872  12.003  19.033  0.00  0.00    +0.000 A 
ATOM     29  C   UNL     1      -4.939  11.644  18.202  0.00  0.00    +0.000 A 
ATOM     30  C   UNL     1      -4.691  11.201  16.902  0.00  0.00    +0.000 A 
ATOM     31  C   UNL     1      -3.379  11.076  16.453  0.00  0.00    +0.000 A 
ATOM     32 CL   UNL     1      -3.055  10.564  14.845  0.00  0.00    +0.000 Cl
ATOM     33  C   UNL     1      -2.317  11.377  17.297  0.00  0.00    +0.000 A 
ENDBRANCH  19  27
ENDBRANCH   1  24
TORSDOF 3
ENDMDL
MODEL 2
REMARK VINA RESULT:      -8.3      0.954      1.287
REMARK  Name = 
REMARK  3 active torsions:
REMARK  status: ('A' for Active; 'I' for Inactive)
REMARK    1  A    between atoms: C_2  and  C_3
REMARK    2  A    between atoms: N_14  and  C_15
REMARK    3  A    between atoms: C_15  and  C_16
REMARK                            x       y       z     vdW  Elec       q    Type
REMARK                         _______ _______ _______ _____ _____    ______ ____
ROOT
ATOM      1  C   UNL     1       1.359   8.523  21.512  0.00  0.00    +0.000 C 
ENDROOT
BRANCH   1   2
ATOM      2  C   UNL     1       1.814   7.315  20.694  0.00  0.00    +0.000 C 
ATOM      3  N   UNL     1       2.505   7.536  19.605  0.00  0.00    +0.000 NA
ATOM      4  C   UNL     1       2.961   6.402  18.893  0.00  0.00    +0.000 A 
ATOM      5  C   UNL     1       3.714   6.582  17.731  0.00  0.00    +0.000 A 
ATOM      6  C   UNL     1       4.219   5.474  17.030  0.00  0.00    +0.000 A 
ATOM      7  C   UNL     1       3.968   4.176  17.483  0.00  0.00    +0.000 A 
ATOM      8  C   UNL     1       3.208   3.992  18.639  0.00  0.00    +0.000 A 
ATOM      9  C   UNL     1       2.912   2.660  19.183  0.00  0.00    +0.000 A 
ATOM     10  O   UNL     1       3.336   1.646  18.641  0.00  0.00    +0.000 OA
ATOM     11  N   UNL     1       2.140   2.628  20.326  0.00  0.00    +0.000 N 
ATOM     12  N   UNL     1       1.642   3.711  21.003  0.00  0.00    +0.000 NA
ATOM     13  C   UNL     1       1.918   4.892  20.535  0.00  0.00    +0.000 A 
ATOM     14  C   UNL     1       2.715   5.091  19.320  0.00  0.00    +0.000 A 
ATOM     15  N   UNL     1       1.498   6.050  21.131  0.00  0.00    +0.000 N 
ATOM     16  H   UNL     1       1.935   1.715  20.721  0.00  0.00    +0.000 HD
ATOM     17  H   UNL     1       0.896   5.956  21.940  0.00  0.00    +0.000 HD
ENDBRANCH   1   2
BRANCH   1  24
ATOM     18  O   UNL     1      -1.322  13.448  19.605  0.00  0.00    +0.000 OA
ATOM     19  C   UNL     1      -1.452  12.248  19.370  0.00  0.00    +0.000 C 
ATOM     20  N   UNL     1      -0.634  11.262  19.936  0.00  0.00    +0.000 N 
ATOM     21  C   UNL     1       0.290  11.661  20.987  0.00  0.00    +0.000 C 
ATOM     22  C   UNL     1      -0.069  11.116  22.368  0.00  0.00    +0.000 C 
ATOM     23  C   UNL     1      -0.566   9.666  22.498  0.00  0.00    +0.000 C 
ATOM     24  N   UNL     1      -0.105   8.628  21.566  0.00  0.00    +0.000 NA
ATOM     25  C   UNL     1      -0.778   8.753  20.262  0.00  0.00    +0.000 C 
ATOM     26  C   UNL     1      -0.391   9.933  19.349  0.00  0.00    +0.000 C 
BRANCH  19  27
ATOM     27  C   UNL     1      -2.566  11.852  18.471  0.00  0.00    +0.000 A 
ATOM     28  C   UNL     1      -2.304  11.534  17.136  0.00  0.00    +0.000 A 
ATOM     29  C   UNL     1      -3.352  11.179  16.281  0.00  0.00    +0.000 A 
ATOM     30  C   UNL     1      -4.660  11.130  16.766  0.00  0.00    +0.000 A 
ATOM     31  C   UNL     1      -4.920  11.479  18.089  0.00  0.00    +0.000 A 
ATOM     32 CL   UNL     1      -6.520  11.394  18.713  0.00  0.00    +0.000 Cl
ATOM     33  C   UNL     1      -3.887  11.887  18.923  0.00  0.00    +0.000 A 
ENDBRANCH  19  27
ENDBRANCH   1  24
TORSDOF 3
ENDMDL
MODEL 3
REMARK VINA RESULT:      -8.3      1.054      2.114
REMARK  Name = 
REMARK  3 active torsions:
REMARK  status: ('A' for Active; 'I' for Inactive)
REMARK    1  A    between atoms: C_2  and  C_3
REMARK    2  A    between atoms: N_14  and  C_15
REMARK    3  A    between atoms: C_15  and  C_16
REMARK                            x       y       z     vdW  Elec       q    Type
REMARK                         _______ _______ _______ _____ _____    ______ ____
ROOT
ATOM      1  C   UNL     1       1.251   8.563  21.560  0.00  0.00    +0.000 C 
ENDROOT
BRANCH   1   2
ATOM      2  C   UNL     1       1.721   7.337  20.778  0.00  0.00    +0.000 C 
ATOM      3  N   UNL     1       1.251   6.167  21.129  0.00  0.00    +0.000 NA
ATOM      4  C   UNL     1       1.658   5.055  20.357  0.00  0.00    +0.000 A 
ATOM      5  C   UNL     1       1.174   3.785  20.681  0.00  0.00    +0.000 A 
ATOM      6  C   UNL     1       1.526   2.669  19.902  0.00  0.00    +0.000 A 
ATOM      7  C   UNL     1       2.370   2.814  18.798  0.00  0.00    +0.000 A 
ATOM      8  C   UNL     1       2.863   4.080  18.477  0.00  0.00    +0.000 A 
ATOM      9  C   UNL     1       3.745   4.314  17.326  0.00  0.00    +0.000 A 
ATOM     10  O   UNL     1       4.078   3.394  16.588  0.00  0.00    +0.000 OA
ATOM     11  N   UNL     1       4.164   5.614  17.135  0.00  0.00    +0.000 N 
ATOM     12  N   UNL     1       3.826   6.699  17.901  0.00  0.00    +0.000 NA
ATOM     13  C   UNL     1       3.030   6.499  18.909  0.00  0.00    +0.000 A 
ATOM     14  C   UNL     1       2.511   5.171  19.252  0.00  0.00    +0.000 A 
ATOM     15  N   UNL     1       2.602   7.503  19.735  0.00  0.00    +0.000 N 
ATOM     16  H   UNL     1       4.766   5.793  16.337  0.00  0.00    +0.000 HD
ATOM     17  H   UNL     1       2.984   8.427  19.569  0.00  0.00    +0.000 HD
ENDBRANCH   1   2
BRANCH   1  24
ATOM     18  O   UNL     1      -1.505  13.542  19.918  0.00  0.00    +0.000 OA
ATOM     19  C   UNL     1      -1.619  12.354  19.622  0.00  0.00    +0.000 C 
ATOM     20  N   UNL     1      -0.786  11.352  20.134  0.00  0.00    +0.000 N 
ATOM     21  C   UNL     1       0.137  11.709  21.200  0.00  0.00    +0.000 C 
ATOM     22  C   UNL     1      -0.208  11.089  22.553  0.00  0.00    +0.000 C 
ATOM     23  C   UNL     1      -0.685   9.628  22.610  0.00  0.00    +0.000 C 
ATOM     24  N   UNL     1      -0.214   8.645  21.624  0.00  0.00    +0.000 NA
ATOM     25  C   UNL     1      -0.894   8.827  20.331  0.00  0.00    +0.000 C 
ATOM     26  C   UNL     1      -0.527  10.058  19.478  0.00  0.00    +0.000 C 
BRANCH  19  27
ATOM     27  C   UNL     1      -2.731  11.989  18.707  0.00  0.00    +0.000 A 
ATOM     28  C   UNL     1      -4.052  12.060  19.156  0.00  0.00    +0.000 A 
ATOM     29  C   UNL     1      -5.102  11.699  18.306  0.00  0.00    +0.000 A 
ATOM     30  C   UNL     1      -4.830  11.278  17.003  0.00  0.00    +0.000 A 
ATOM     31  C   UNL     1      -3.510  11.178  16.571  0.00  0.00    +0.000 A 
ATOM     32 CL   UNL     1      -3.155  10.693  14.960  0.00  0.00    +0.000 Cl
ATOM     33  C   UNL     1      -2.464  11.482  17.434  0.00  0.00    +0.000 A 
ENDBRANCH  19  27
ENDBRANCH   1  24
TORSDOF 3
ENDMDL
MODEL 4
REMARK VINA RESULT:      -8.2      2.581      3.176
REMARK  Name = 
REMARK  3 active torsions:
REMARK  status: ('A' for Active; 'I' for Inactive)
REMARK    1  A    between atoms: C_2  and  C_3
REMARK    2  A    between atoms: N_14  and  C_15
REMARK    3  A    between atoms: C_15  and  C_16
REMARK                            x       y       z     vdW  Elec       q    Type
REMARK                         _______ _______ _______ _____ _____    ______ ____
ROOT
ATOM      1  C   UNL     1       1.255   9.631  18.681  0.00  0.00    +0.000 C 
ENDROOT
BRANCH   1   2
ATOM      2  C   UNL     1       2.062   8.338  18.573  0.00  0.00    +0.000 C 
ATOM      3  N   UNL     1       2.949   8.245  17.616  0.00  0.00    +0.000 NA
ATOM      4  C   UNL     1       3.720   7.061  17.569  0.00  0.00    +0.000 A 
ATOM      5  C   UNL     1       4.691   6.916  16.575  0.00  0.00    +0.000 A 
ATOM      6  C   UNL     1       5.503   5.770  16.533  0.00  0.00    +0.000 A 
ATOM      7  C   UNL     1       5.345   4.755  17.481  0.00  0.00    +0.000 A 
ATOM      8  C   UNL     1       4.369   4.892  18.471  0.00  0.00    +0.000 A 
ATOM      9  C   UNL     1       4.151   3.875  19.507  0.00  0.00    +0.000 A 
ATOM     10  O   UNL     1       4.834   2.858  19.550  0.00  0.00    +0.000 OA
ATOM     11  N   UNL     1       3.145   4.137  20.415  0.00  0.00    +0.000 N 
ATOM     12  N   UNL     1       2.349   5.252  20.448  0.00  0.00    +0.000 NA
ATOM     13  C   UNL     1       2.553   6.164  19.543  0.00  0.00    +0.000 A 
ATOM     14  C   UNL     1       3.574   6.024  18.501  0.00  0.00    +0.000 A 
ATOM     15  N   UNL     1       1.840   7.331  19.483  0.00  0.00    +0.000 N 
ATOM     16  H   UNL     1       2.989   3.449  21.144  0.00  0.00    +0.000 HD
ATOM     17  H   UNL     1       1.084   7.441  20.149  0.00  0.00    +0.000 HD
ENDBRANCH   1   2
BRANCH   1  24
ATOM     18  O   UNL     1      -1.443  14.723  20.053  0.00  0.00    +0.000 OA
ATOM     19  C   UNL     1      -1.735  13.533  20.166  0.00  0.00    +0.000 C 
ATOM     20  N   UNL     1      -0.915  12.495  19.705  0.00  0.00    +0.000 N 
ATOM     21  C   UNL     1       0.420  12.834  19.236  0.00  0.00    +0.000 C 
ATOM     22  C   UNL     1       1.542  12.330  20.141  0.00  0.00    +0.000 C 
ATOM     23  C   UNL     1       1.439  10.922  20.752  0.00  0.00    +0.000 C 
ATOM     24  N   UNL     1       0.739   9.844  20.039  0.00  0.00    +0.000 NA
ATOM     25  C   UNL     1      -0.721  10.006  20.142  0.00  0.00    +0.000 C 
ATOM     26  C   UNL     1      -1.389  11.146  19.348  0.00  0.00    +0.000 C 
BRANCH  19  27
ATOM     27  C   UNL     1      -3.004  13.211  20.869  0.00  0.00    +0.000 A 
ATOM     28  C   UNL     1      -4.206  13.192  20.158  0.00  0.00    +0.000 A 
ATOM     29  C   UNL     1      -5.406  12.908  20.819  0.00  0.00    +0.000 A 
ATOM     30  C   UNL     1      -5.399  12.631  22.188  0.00  0.00    +0.000 A 
ATOM     31  C   UNL     1      -4.202  12.683  22.896  0.00  0.00    +0.000 A 
ATOM     32 CL   UNL     1      -4.168  12.314  24.575  0.00  0.00    +0.000 Cl
ATOM     33  C   UNL     1      -3.019  13.022  22.252  0.00  0.00    +0.000 A 
ENDBRANCH  19  27
ENDBRANCH   1  24
TORSDOF 3
ENDMDL
MODEL 5
REMARK VINA RESULT:      -8.2      3.510      8.965
REMARK  Name = 
REMARK  3 active torsions:
REMARK  status: ('A' for Active; 'I' for Inactive)
REMARK    1  A    between atoms: C_2  and  C_3
REMARK    2  A    between atoms: N_14  and  C_15
REMARK    3  A    between atoms: C_15  and  C_16
REMARK                            x       y       z     vdW  Elec       q    Type
REMARK                         _______ _______ _______ _____ _____    ______ ____
ROOT
ATOM      1  C   UNL     1       0.666   6.879  20.518  0.00  0.00    +0.000 C 
ENDROOT
BRANCH   1   2
ATOM      2  C   UNL     1       0.542   8.388  20.722  0.00  0.00    +0.000 C 
ATOM      3  N   UNL     1       1.029   9.176  19.798  0.00  0.00    +0.000 NA
ATOM      4  C   UNL     1       0.855  10.566  19.983  0.00  0.00    +0.000 A 
ATOM      5  C   UNL     1       1.345  11.451  19.019  0.00  0.00    +0.000 A 
ATOM      6  C   UNL     1       1.145  12.835  19.155  0.00  0.00    +0.000 A 
ATOM      7  C   UNL     1       0.459  13.346  20.261  0.00  0.00    +0.000 A 
ATOM      8  C   UNL     1      -0.024  12.466  21.231  0.00  0.00    +0.000 A 
ATOM      9  C   UNL     1      -0.763  12.926  22.413  0.00  0.00    +0.000 A 
ATOM     10  O   UNL     1      -0.997  14.116  22.590  0.00  0.00    +0.000 OA
ATOM     11  N   UNL     1      -1.172  11.946  23.294  0.00  0.00    +0.000 N 
ATOM     12  N   UNL     1      -0.967  10.597  23.164  0.00  0.00    +0.000 NA
ATOM     13  C   UNL     1      -0.330  10.185  22.108  0.00  0.00    +0.000 A 
ATOM     14  C   UNL     1       0.181  11.105  21.087  0.00  0.00    +0.000 A 
ATOM     15  N   UNL     1      -0.083   8.863  21.852  0.00  0.00    +0.000 N 
ATOM     16  H   UNL     1      -1.693  12.247  24.112  0.00  0.00    +0.000 HD
ATOM     17  H   UNL     1      -0.367   8.198  22.561  0.00  0.00    +0.000 HD
ENDBRANCH   1   2
BRANCH   1  24
ATOM     18  O   UNL     1       2.905   2.487  17.233  0.00  0.00    +0.000 OA
ATOM     19  C   UNL     1       3.282   3.619  17.535  0.00  0.00    +0.000 C 
ATOM     20  N   UNL     1       2.520   4.500  18.312  0.00  0.00    +0.000 N 
ATOM     21  C   UNL     1       1.310   3.988  18.939  0.00  0.00    +0.000 C 
ATOM     22  C   UNL     1       1.396   3.886  20.460  0.00  0.00    +0.000 C 
ATOM     23  C   UNL     1       2.073   5.016  21.253  0.00  0.00    +0.000 C 
ATOM     24  N   UNL     1       2.033   6.403  20.765  0.00  0.00    +0.000 NA
ATOM     25  C   UNL     1       2.981   6.599  19.656  0.00  0.00    +0.000 C 
ATOM     26  C   UNL     1       2.649   5.968  18.289  0.00  0.00    +0.000 C 
BRANCH  19  27
ATOM     27  C   UNL     1       4.635   4.027  17.075  0.00  0.00    +0.000 A 
ATOM     28  C   UNL     1       4.956   3.962  15.718  0.00  0.00    +0.000 A 
ATOM     29  C   UNL     1       6.234   4.326  15.282  0.00  0.00    +0.000 A 
ATOM     30  C   UNL     1       7.185   4.767  16.205  0.00  0.00    +0.000 A 
ATOM     31  C   UNL     1       6.869   4.799  17.560  0.00  0.00    +0.000 A 
ATOM     32 CL   UNL     1       8.016   5.369  18.707  0.00  0.00    +0.000 Cl
ATOM     33  C   UNL     1       5.619   4.382  17.999  0.00  0.00    +0.000 A 
ENDBRANCH  19  27
ENDBRANCH   1  24
TORSDOF 3
ENDMDL
MODEL 6
REMARK VINA RESULT:      -8.1      3.352      8.921
REMARK  Name = 
REMARK  3 active torsions:
REMARK  status: ('A' for Active; 'I' for Inactive)
REMARK    1  A    between atoms: C_2  and  C_3
REMARK    2  A    between atoms: N_14  and  C_15
REMARK    3  A    between atoms: C_15  and  C_16
REMARK                            x       y       z     vdW  Elec       q    Type
REMARK                         _______ _______ _______ _____ _____    ______ ____
ROOT
ATOM      1  C   UNL     1       0.760   6.946  20.413  0.00  0.00    +0.000 C 
ENDROOT
BRANCH   1   2
ATOM      2  C   UNL     1       0.617   8.453  20.623  0.00  0.00    +0.000 C 
ATOM      3  N   UNL     1       1.075   9.249  19.691  0.00  0.00    +0.000 NA
ATOM      4  C   UNL     1       0.884  10.637  19.883  0.00  0.00    +0.000 A 
ATOM      5  C   UNL     1       1.341  11.530  18.911  0.00  0.00    +0.000 A 
ATOM      6  C   UNL     1       1.124  12.911  19.053  0.00  0.00    +0.000 A 
ATOM      7  C   UNL     1       0.453  13.410  20.173  0.00  0.00    +0.000 A 
ATOM      8  C   UNL     1       0.003  12.522  21.151  0.00  0.00    +0.000 A 
ATOM      9  C   UNL     1      -0.719  12.968  22.350  0.00  0.00    +0.000 A 
ATOM     10  O   UNL     1      -0.966  14.154  22.534  0.00  0.00    +0.000 OA
ATOM     11  N   UNL     1      -1.095  11.981  23.236  0.00  0.00    +0.000 N 
ATOM     12  N   UNL     1      -0.874  10.635  23.099  0.00  0.00    +0.000 NA
ATOM     13  C   UNL     1      -0.252  10.234  22.030  0.00  0.00    +0.000 A 
ATOM     14  C   UNL     1       0.224  11.164  21.001  0.00  0.00    +0.000 A 
ATOM     15  N   UNL     1       0.009   8.917  21.766  0.00  0.00    +0.000 N 
ATOM     16  H   UNL     1      -1.605  12.273  24.065  0.00  0.00    +0.000 HD
ATOM     17  H   UNL     1      -0.251   8.247  22.480  0.00  0.00    +0.000 HD
ENDBRANCH   1   2
BRANCH   1  24
ATOM     18  O   UNL     1       2.924   2.346  17.374  0.00  0.00    +0.000 OA
ATOM     19  C   UNL     1       3.307   3.494  17.592  0.00  0.00    +0.000 C 
ATOM     20  N   UNL     1       2.563   4.425  18.327  0.00  0.00    +0.000 N 
ATOM     21  C   UNL     1       1.368   3.958  19.012  0.00  0.00    +0.000 C 
ATOM     22  C   UNL     1       1.488   3.954  20.535  0.00  0.00    +0.000 C 
ATOM     23  C   UNL     1       2.182   5.133  21.237  0.00  0.00    +0.000 C 
ATOM     24  N   UNL     1       2.132   6.485  20.661  0.00  0.00    +0.000 NA
ATOM     25  C   UNL     1       3.055   6.607  19.520  0.00  0.00    +0.000 C 
ATOM     26  C   UNL     1       2.692   5.888  18.205  0.00  0.00    +0.000 C 
BRANCH  19  27
ATOM     27  C   UNL     1       4.650   3.869  17.077  0.00  0.00    +0.000 A 
ATOM     28  C   UNL     1       5.648   4.271  17.967  0.00  0.00    +0.000 A 
ATOM     29  C   UNL     1       6.908   4.644  17.485  0.00  0.00    +0.000 A 
ATOM     30  C   UNL     1       7.170   4.600  16.114  0.00  0.00    +0.000 A 
ATOM     31  C   UNL     1       6.161   4.230  15.229  0.00  0.00    +0.000 A 
ATOM     32 CL   UNL     1       6.473   4.139  13.541  0.00  0.00    +0.000 Cl
ATOM     33  C   UNL     1       4.893   3.916  15.703  0.00  0.00    +0.000 A 
ENDBRANCH  19  27
ENDBRANCH   1  24
TORSDOF 3
ENDMDL
MODEL 7
REMARK VINA RESULT:      -8.1      3.502      9.120
REMARK  Name = 
REMARK  3 active torsions:
REMARK  status: ('A' for Active; 'I' for Inactive)
REMARK    1  A    between atoms: C_2  and  C_3
REMARK    2  A    between atoms: N_14  and  C_15
REMARK    3  A    between atoms: C_15  and  C_16
REMARK                            x       y       z     vdW  Elec       q    Type
REMARK                         _______ _______ _______ _____ _____    ______ ____
ROOT
ATOM      1  C   UNL     1       0.598   6.866  20.478  0.00  0.00    +0.000 C 
ENDROOT
BRANCH   1   2
ATOM      2  C   UNL     1       0.420   8.376  20.625  0.00  0.00    +0.000 C 
ATOM      3  N   UNL     1      -0.251   8.818  21.658  0.00  0.00    +0.000 NA
ATOM      4  C   UNL     1      -0.357  10.220  21.802  0.00  0.00    +0.000 A 
ATOM      5  C   UNL     1      -1.051  10.745  22.895  0.00  0.00    +0.000 A 
ATOM      6  C   UNL     1      -1.132  12.135  23.088  0.00  0.00    +0.000 A 
ATOM      7  C   UNL     1      -0.527  13.011  22.183  0.00  0.00    +0.000 A 
ATOM      8  C   UNL     1       0.159  12.491  21.084  0.00  0.00    +0.000 A 
ATOM      9  C   UNL     1       0.831  13.347  20.098  0.00  0.00    +0.000 A 
ATOM     10  O   UNL     1       0.823  14.567  20.210  0.00  0.00    +0.000 OA
ATOM     11  N   UNL     1       1.462  12.697  19.058  0.00  0.00    +0.000 N 
ATOM     12  N   UNL     1       1.532  11.341  18.868  0.00  0.00    +0.000 NA
ATOM     13  C   UNL     1       0.955  10.580  19.750  0.00  0.00    +0.000 A 
ATOM     14  C   UNL     1       0.232  11.121  20.905  0.00  0.00    +0.000 A 
ATOM     15  N   UNL     1       0.974   9.213  19.684  0.00  0.00    +0.000 N 
ATOM     16  H   UNL     1       1.940  13.274  18.373  0.00  0.00    +0.000 HD
ATOM     17  H   UNL     1       1.413   8.799  18.870  0.00  0.00    +0.000 HD
ENDBRANCH   1   2
BRANCH   1  24
ATOM     18  O   UNL     1       2.963   2.406  17.379  0.00  0.00    +0.000 OA
ATOM     19  C   UNL     1       3.302   3.563  17.624  0.00  0.00    +0.000 C 
ATOM     20  N   UNL     1       2.516   4.452  18.366  0.00  0.00    +0.000 N 
ATOM     21  C   UNL     1       1.331   3.929  19.028  0.00  0.00    +0.000 C 
ATOM     22  C   UNL     1       1.433   3.900  20.552  0.00  0.00    +0.000 C 
ATOM     23  C   UNL     1       2.076   5.090  21.284  0.00  0.00    +0.000 C 
ATOM     24  N   UNL     1       1.983   6.450  20.733  0.00  0.00    +0.000 NA
ATOM     25  C   UNL     1       2.914   6.627  19.606  0.00  0.00    +0.000 C 
ATOM     26  C   UNL     1       2.593   5.921  18.273  0.00  0.00    +0.000 C 
BRANCH  19  27
ATOM     27  C   UNL     1       4.636   3.996  17.132  0.00  0.00    +0.000 A 
ATOM     28  C   UNL     1       4.925   3.939  15.766  0.00  0.00    +0.000 A 
ATOM     29  C   UNL     1       6.186   4.327  15.301  0.00  0.00    +0.000 A 
ATOM     30  C   UNL     1       7.151   4.783  16.201  0.00  0.00    +0.000 A 
ATOM     31  C   UNL     1       6.868   4.807  17.564  0.00  0.00    +0.000 A 
ATOM     32 CL   UNL     1       8.031   5.395  18.684  0.00  0.00    +0.000 Cl
ATOM     33  C   UNL     1       5.636   4.367  18.032  0.00  0.00    +0.000 A 
ENDBRANCH  19  27
ENDBRANCH   1  24
TORSDOF 3
ENDMDL
MODEL 8
REMARK VINA RESULT:      -8.1      3.344      9.087
REMARK  Name = 
REMARK  3 active torsions:
REMARK  status: ('A' for Active; 'I' for Inactive)
REMARK    1  A    between atoms: C_2  and  C_3
REMARK    2  A    between atoms: N_14  and  C_15
REMARK    3  A    between atoms: C_15  and  C_16
REMARK                            x       y       z     vdW  Elec       q    Type
REMARK                         _______ _______ _______ _____ _____    ______ ____
ROOT
ATOM      1  C   UNL     1       0.668   6.891  20.357  0.00  0.00    +0.000 C 
ENDROOT
BRANCH   1   2
ATOM      2  C   UNL     1       0.467   8.395  20.531  0.00  0.00    +0.000 C 
ATOM      3  N   UNL     1      -0.208   8.809  21.573  0.00  0.00    +0.000 NA
ATOM      4  C   UNL     1      -0.335  10.207  21.741  0.00  0.00    +0.000 A 
ATOM      5  C   UNL     1      -1.034  10.702  22.845  0.00  0.00    +0.000 A 
ATOM      6  C   UNL     1      -1.137  12.087  23.061  0.00  0.00    +0.000 A 
ATOM      7  C   UNL     1      -0.547  12.988  22.170  0.00  0.00    +0.000 A 
ATOM      8  C   UNL     1       0.144  12.497  21.061  0.00  0.00    +0.000 A 
ATOM      9  C   UNL     1       0.800  13.380  20.088  0.00  0.00    +0.000 A 
ATOM     10  O   UNL     1       0.773  14.598  20.220  0.00  0.00    +0.000 OA
ATOM     11  N   UNL     1       1.437  12.758  19.035  0.00  0.00    +0.000 N 
ATOM     12  N   UNL     1       1.528  11.407  18.822  0.00  0.00    +0.000 NA
ATOM     13  C   UNL     1       0.966  10.622  19.692  0.00  0.00    +0.000 A 
ATOM     14  C   UNL     1       0.237  11.132  20.858  0.00  0.00    +0.000 A 
ATOM     15  N   UNL     1       1.005   9.256  19.603  0.00  0.00    +0.000 N 
ATOM     16  H   UNL     1       1.905  13.355  18.359  0.00  0.00    +0.000 HD
ATOM     17  H   UNL     1       1.448   8.863  18.781  0.00  0.00    +0.000 HD
ENDBRANCH   1   2
BRANCH   1  24
ATOM     18  O   UNL     1       3.016   2.272  17.487  0.00  0.00    +0.000 OA
ATOM     19  C   UNL     1       3.357   3.440  17.669  0.00  0.00    +0.000 C 
ATOM     20  N   UNL     1       2.574   4.368  18.367  0.00  0.00    +0.000 N 
ATOM     21  C   UNL     1       1.393   3.880  19.062  0.00  0.00    +0.000 C 
ATOM     22  C   UNL     1       1.503   3.933  20.585  0.00  0.00    +0.000 C 
ATOM     23  C   UNL     1       2.150   5.160  21.249  0.00  0.00    +0.000 C 
ATOM     24  N   UNL     1       2.055   6.489  20.627  0.00  0.00    +0.000 NA
ATOM     25  C   UNL     1       2.980   6.605  19.487  0.00  0.00    +0.000 C 
ATOM     26  C   UNL     1       2.651   5.829  18.196  0.00  0.00    +0.000 C 
BRANCH  19  27
ATOM     27  C   UNL     1       4.688   3.845  17.147  0.00  0.00    +0.000 A 
ATOM     28  C   UNL     1       5.684   4.260  18.034  0.00  0.00    +0.000 A 
ATOM     29  C   UNL     1       6.933   4.661  17.547  0.00  0.00    +0.000 A 
ATOM     30  C   UNL     1       7.186   4.634  16.174  0.00  0.00    +0.000 A 
ATOM     31  C   UNL     1       6.179   4.251  15.293  0.00  0.00    +0.000 A 
ATOM     32 CL   UNL     1       6.481   4.181  13.602  0.00  0.00    +0.000 Cl
ATOM     33  C   UNL     1       4.920   3.908  15.773  0.00  0.00    +0.000 A 
ENDBRANCH  19  27
ENDBRANCH   1  24
TORSDOF 3
ENDMDL
MODEL 9
REMARK VINA RESULT:      -8.1      1.752      2.219
REMARK  Name = 
REMARK  3 active torsions:
REMARK  status: ('A' for Active; 'I' for Inactive)
REMARK    1  A    between atoms: C_2  and  C_3
REMARK    2  A    between atoms: N_14  and  C_15
REMARK    3  A    between atoms: C_15  and  C_16
REMARK                            x       y       z     vdW  Elec       q    Type
REMARK                         _______ _______ _______ _____ _____    ______ ____
ROOT
ATOM      1  C   UNL     1       1.437   9.589  18.919  0.00  0.00    +0.000 C 
ENDROOT
BRANCH   1   2
ATOM      2  C   UNL     1       2.137   8.240  18.759  0.00  0.00    +0.000 C 
ATOM      3  N   UNL     1       2.978   8.098  17.766  0.00  0.00    +0.000 NA
ATOM      4  C   UNL     1       3.652   6.859  17.670  0.00  0.00    +0.000 A 
ATOM      5  C   UNL     1       4.571   6.660  16.635  0.00  0.00    +0.000 A 
ATOM      6  C   UNL     1       5.289   5.456  16.543  0.00  0.00    +0.000 A 
ATOM      7  C   UNL     1       5.090   4.439  17.481  0.00  0.00    +0.000 A 
ATOM      8  C   UNL     1       4.167   4.631  18.510  0.00  0.00    +0.000 A 
ATOM      9  C   UNL     1       3.911   3.614  19.538  0.00  0.00    +0.000 A 
ATOM     10  O   UNL     1       4.515   2.548  19.538  0.00  0.00    +0.000 OA
ATOM     11  N   UNL     1       2.965   3.935  20.489  0.00  0.00    +0.000 N 
ATOM     12  N   UNL     1       2.258   5.107  20.572  0.00  0.00    +0.000 NA
ATOM     13  C   UNL     1       2.496   6.017  19.674  0.00  0.00    +0.000 A 
ATOM     14  C   UNL     1       3.464   5.820  18.590  0.00  0.00    +0.000 A 
ATOM     15  N   UNL     1       1.874   7.236  19.661  0.00  0.00    +0.000 N 
ATOM     16  H   UNL     1       2.784   3.247  21.213  0.00  0.00    +0.000 HD
ATOM     17  H   UNL     1       1.155   7.391  20.358  0.00  0.00    +0.000 HD
ENDBRANCH   1   2
BRANCH   1  24
ATOM     18  O   UNL     1      -1.708  14.455  20.150  0.00  0.00    +0.000 OA
ATOM     19  C   UNL     1      -1.982  13.266  19.994  0.00  0.00    +0.000 C 
ATOM     20  N   UNL     1      -1.030  12.297  19.653  0.00  0.00    +0.000 N 
ATOM     21  C   UNL     1       0.373  12.684  19.662  0.00  0.00    +0.000 C 
ATOM     22  C   UNL     1       1.188  12.034  20.778  0.00  0.00    +0.000 C 
ATOM     23  C   UNL     1       0.953  10.552  21.116  0.00  0.00    +0.000 C 
ATOM     24  N   UNL     1       0.532   9.603  20.075  0.00  0.00    +0.000 NA
ATOM     25  C   UNL     1      -0.897   9.768  19.757  0.00  0.00    +0.000 C 
ATOM     26  C   UNL     1      -1.332  11.024  18.976  0.00  0.00    +0.000 C 
BRANCH  19  27
ATOM     27  C   UNL     1      -3.392  12.860  20.227  0.00  0.00    +0.000 A 
ATOM     28  C   UNL     1      -3.947  12.979  21.504  0.00  0.00    +0.000 A 
ATOM     29  C   UNL     1      -5.268  12.580  21.733  0.00  0.00    +0.000 A 
ATOM     30  C   UNL     1      -6.036  12.075  20.682  0.00  0.00    +0.000 A 
ATOM     31  C   UNL     1      -5.467  11.929  19.419  0.00  0.00    +0.000 A 
ATOM     32 CL   UNL     1      -6.406  11.340  18.105  0.00  0.00    +0.000 Cl
ATOM     33  C   UNL     1      -4.138  12.271  19.205  0.00  0.00    +0.000 A 
ENDBRANCH  19  27
ENDBRANCH   1  24
TORSDOF 3
ENDMDL
