MODEL 1
REMARK VINA RESULT:      -7.6      0.000      0.000
REMARK  Name = 
REMARK  11 active torsions:
REMARK  status: ('A' for Active; 'I' for Inactive)
REMARK    1  A    between atoms: C_1  and  C_2
REMARK    2  A    between atoms: C_2  and  C_3
REMARK    3  A    between atoms: C_3  and  C_4
REMARK    4  A    between atoms: C_4  and  C_5
REMARK    5  A    between atoms: C_9  and  C_10
REMARK    6  A    between atoms: C_10  and  C_11
REMARK    7  A    between atoms: C_11  and  O_13
REMARK    8  A    between atoms: N_14  and  C_15
REMARK    9  A    between atoms: C_15  and  C_16
REMARK   10  A    between atoms: C_20  and  C_21
REMARK   11  A    between atoms: C_21  and  O_23
REMARK                            x       y       z     vdW  Elec       q    Type
REMARK                         _______ _______ _______ _____ _____    ______ ____
ROOT
ATOM      1  C   UNL     1       2.169   5.859  19.952  0.00  0.00    +0.000 A 
ATOM      2  N   UNL     1       1.811   5.255  21.066  0.00  0.00    +0.000 NA
ATOM      3  C   UNL     1       1.898   3.916  20.838  0.00  0.00    +0.000 A 
ATOM      4 CL   UNL     1       1.471   2.774  22.024  0.00  0.00    +0.000 Cl
ATOM      5  C   UNL     1       2.362   3.666  19.561  0.00  0.00    +0.000 A 
ATOM      6  N   UNL     1       2.538   4.924  18.998  0.00  0.00    +0.000 N 
ENDROOT
BRANCH   1   7
ATOM      7  C   UNL     1       2.168   7.352  19.791  0.00  0.00    +0.000 C 
BRANCH   7   8
ATOM      8  C   UNL     1       1.369   8.097  20.868  0.00  0.00    +0.000 C 
BRANCH   8  10
ATOM      9  C   UNL     1       0.827  10.541  21.219  0.00  0.00    +0.000 C 
ATOM     10  C   UNL     1       0.595   9.314  20.348  0.00  0.00    +0.000 C 
ENDBRANCH   8  10
ENDBRANCH   7   8
ENDBRANCH   1   7
BRANCH   5  11
ATOM     11  C   UNL     1       2.559   2.348  18.872  0.00  0.00    +0.000 C 
BRANCH  11  12
ATOM     12  C   UNL     1       3.942   1.754  19.011  0.00  0.00    +0.000 C 
ATOM     13  O   UNL     1       4.805   2.259  19.720  0.00  0.00    +0.000 OA
BRANCH  12  14
ATOM     14  O   UNL     1       4.187   0.648  18.281  0.00  0.00    +0.000 OA
ATOM     15  H   UNL     1       4.448  -0.138  18.802  0.00  0.00    +0.000 HD
ENDBRANCH  12  14
ENDBRANCH  11  12
ENDBRANCH   5  11
BRANCH   6  16
ATOM     16  C   UNL     1       3.092   5.220  17.679  0.00  0.00    +0.000 C 
BRANCH  16  17
ATOM     17  C   UNL     1       4.596   5.124  17.568  0.00  0.00    +0.000 A 
ATOM     18  C   UNL     1       5.118   4.473  16.435  0.00  0.00    +0.000 A 
ATOM     19  C   UNL     1       6.491   4.276  16.281  0.00  0.00    +0.000 A 
ATOM     20  C   UNL     1       7.371   4.731  17.259  0.00  0.00    +0.000 A 
ATOM     21  C   UNL     1       6.878   5.397  18.386  0.00  0.00    +0.000 A 
ATOM     22  C   UNL     1       5.495   5.585  18.543  0.00  0.00    +0.000 A 
BRANCH  21  23
ATOM     23  C   UNL     1       7.854   5.825  19.421  0.00  0.00    +0.000 C 
ATOM     24  O   UNL     1       8.066   5.182  20.432  0.00  0.00    +0.000 OA
BRANCH  23  25
ATOM     25  O   UNL     1       8.504   6.968  19.122  0.00  0.00    +0.000 OA
ATOM     26  H   UNL     1       8.598   7.603  19.855  0.00  0.00    +0.000 HD
ENDBRANCH  23  25
ENDBRANCH  21  23
ENDBRANCH  16  17
ENDBRANCH   6  16
TORSDOF 10
ENDMDL
MODEL 2
REMARK VINA RESULT:      -7.5      3.406      5.991
REMARK  Name = 
REMARK  11 active torsions:
REMARK  status: ('A' for Active; 'I' for Inactive)
REMARK    1  A    between atoms: C_1  and  C_2
REMARK    2  A    between atoms: C_2  and  C_3
REMARK    3  A    between atoms: C_3  and  C_4
REMARK    4  A    between atoms: C_4  and  C_5
REMARK    5  A    between atoms: C_9  and  C_10
REMARK    6  A    between atoms: C_10  and  C_11
REMARK    7  A    between atoms: C_11  and  O_13
REMARK    8  A    between atoms: N_14  and  C_15
REMARK    9  A    between atoms: C_15  and  C_16
REMARK   10  A    between atoms: C_20  and  C_21
REMARK   11  A    between atoms: C_21  and  O_23
REMARK                            x       y       z     vdW  Elec       q    Type
REMARK                         _______ _______ _______ _____ _____    ______ ____
ROOT
ATOM      1  C   UNL     1       2.781   4.215  17.735  0.00  0.00    +0.000 A 
ATOM      2  N   UNL     1       3.446   3.630  16.761  0.00  0.00    +0.000 NA
ATOM      3  C   UNL     1       4.695   4.171  16.751  0.00  0.00    +0.000 A 
ATOM      4 CL   UNL     1       5.861   3.717  15.600  0.00  0.00    +0.000 Cl
ATOM      5  C   UNL     1       4.837   5.093  17.771  0.00  0.00    +0.000 A 
ATOM      6  N   UNL     1       3.600   5.112  18.403  0.00  0.00    +0.000 N 
ENDROOT
BRANCH   1   7
ATOM      7  C   UNL     1       1.343   3.913  18.043  0.00  0.00    +0.000 C 
BRANCH   7   8
ATOM      8  C   UNL     1       1.130   2.615  18.832  0.00  0.00    +0.000 C 
BRANCH   8  10
ATOM      9  C   UNL     1       1.624   2.652  21.311  0.00  0.00    +0.000 C 
ATOM     10  C   UNL     1       2.177   2.362  19.922  0.00  0.00    +0.000 C 
ENDBRANCH   8  10
ENDBRANCH   7   8
ENDBRANCH   1   7
BRANCH   5  11
ATOM     11  C   UNL     1       6.016   5.960  18.098  0.00  0.00    +0.000 C 
BRANCH  11  12
ATOM     12  C   UNL     1       7.176   5.244  18.750  0.00  0.00    +0.000 C 
ATOM     13  O   UNL     1       7.880   4.446  18.143  0.00  0.00    +0.000 OA
BRANCH  12  14
ATOM     14  O   UNL     1       7.377   5.510  20.057  0.00  0.00    +0.000 OA
ATOM     15  H   UNL     1       7.492   4.720  20.623  0.00  0.00    +0.000 HD
ENDBRANCH  12  14
ENDBRANCH  11  12
ENDBRANCH   5  11
BRANCH   6  16
ATOM     16  C   UNL     1       3.245   5.866  19.602  0.00  0.00    +0.000 C 
BRANCH  16  17
ATOM     17  C   UNL     1       2.485   7.151  19.362  0.00  0.00    +0.000 A 
ATOM     18  C   UNL     1       2.524   7.689  18.062  0.00  0.00    +0.000 A 
ATOM     19  C   UNL     1       1.912   8.906  17.763  0.00  0.00    +0.000 A 
ATOM     20  C   UNL     1       1.245   9.611  18.760  0.00  0.00    +0.000 A 
ATOM     21  C   UNL     1       1.177   9.089  20.057  0.00  0.00    +0.000 A 
ATOM     22  C   UNL     1       1.802   7.868  20.358  0.00  0.00    +0.000 A 
BRANCH  21  23
ATOM     23  C   UNL     1       0.489   9.899  21.096  0.00  0.00    +0.000 C 
ATOM     24  O   UNL     1       0.942  10.056  22.213  0.00  0.00    +0.000 OA
BRANCH  23  25
ATOM     25  O   UNL     1      -0.659  10.468  20.676  0.00  0.00    +0.000 OA
ATOM     26  H   UNL     1      -0.705  10.672  19.725  0.00  0.00    +0.000 HD
ENDBRANCH  23  25
ENDBRANCH  21  23
ENDBRANCH  16  17
ENDBRANCH   6  16
TORSDOF 10
ENDMDL
MODEL 3
REMARK VINA RESULT:      -7.4      3.418      6.030
REMARK  Name = 
REMARK  11 active torsions:
REMARK  status: ('A' for Active; 'I' for Inactive)
REMARK    1  A    between atoms: C_1  and  C_2
REMARK    2  A    between atoms: C_2  and  C_3
REMARK    3  A    between atoms: C_3  and  C_4
REMARK    4  A    between atoms: C_4  and  C_5
REMARK    5  A    between atoms: C_9  and  C_10
REMARK    6  A    between atoms: C_10  and  C_11
REMARK    7  A    between atoms: C_11  and  O_13
REMARK    8  A    between atoms: N_14  and  C_15
REMARK    9  A    between atoms: C_15  and  C_16
REMARK   10  A    between atoms: C_20  and  C_21
REMARK   11  A    between atoms: C_21  and  O_23
REMARK                            x       y       z     vdW  Elec       q    Type
REMARK                         _______ _______ _______ _____ _____    ______ ____
ROOT
ATOM      1  C   UNL     1       2.804   4.067  17.840  0.00  0.00    +0.000 A 
ATOM      2  N   UNL     1       3.441   3.465  16.858  0.00  0.00    +0.000 NA
ATOM      3  C   UNL     1       4.696   3.992  16.816  0.00  0.00    +0.000 A 
ATOM      4 CL   UNL     1       5.832   3.513  15.645  0.00  0.00    +0.000 Cl
ATOM      5  C   UNL     1       4.869   4.922  17.823  0.00  0.00    +0.000 A 
ATOM      6  N   UNL     1       3.647   4.961  18.481  0.00  0.00    +0.000 N 
ENDROOT
BRANCH   1   7
ATOM      7  C   UNL     1       1.370   3.784  18.182  0.00  0.00    +0.000 C 
BRANCH   7   8
ATOM      8  C   UNL     1       1.180   2.662  19.210  0.00  0.00    +0.000 C 
BRANCH   8  10
ATOM      9  C   UNL     1       2.150   2.814  21.539  0.00  0.00    +0.000 C 
ATOM     10  C   UNL     1       0.965   3.153  20.646  0.00  0.00    +0.000 C 
ENDBRANCH   8  10
ENDBRANCH   7   8
ENDBRANCH   1   7
BRANCH   5  11
ATOM     11  C   UNL     1       6.065   5.780  18.116  0.00  0.00    +0.000 C 
BRANCH  11  12
ATOM     12  C   UNL     1       6.536   6.636  16.963  0.00  0.00    +0.000 C 
ATOM     13  O   UNL     1       7.716   6.923  16.798  0.00  0.00    +0.000 OA
BRANCH  12  14
ATOM     14  O   UNL     1       5.576   7.096  16.135  0.00  0.00    +0.000 OA
ATOM     15  H   UNL     1       5.405   8.057  16.201  0.00  0.00    +0.000 HD
ENDBRANCH  12  14
ENDBRANCH  11  12
ENDBRANCH   5  11
BRANCH   6  16
ATOM     16  C   UNL     1       3.325   5.731  19.680  0.00  0.00    +0.000 C 
BRANCH  16  17
ATOM     17  C   UNL     1       2.534   6.998  19.447  0.00  0.00    +0.000 A 
ATOM     18  C   UNL     1       2.547   7.535  18.146  0.00  0.00    +0.000 A 
ATOM     19  C   UNL     1       1.903   8.738  17.853  0.00  0.00    +0.000 A 
ATOM     20  C   UNL     1       1.230   9.428  18.857  0.00  0.00    +0.000 A 
ATOM     21  C   UNL     1       1.188   8.906  20.154  0.00  0.00    +0.000 A 
ATOM     22  C   UNL     1       1.845   7.700  20.449  0.00  0.00    +0.000 A 
BRANCH  21  23
ATOM     23  C   UNL     1       0.494   9.700  21.200  0.00  0.00    +0.000 C 
ATOM     24  O   UNL     1      -0.500   9.302  21.778  0.00  0.00    +0.000 OA
BRANCH  23  25
ATOM     25  O   UNL     1       1.084  10.882  21.473  0.00  0.00    +0.000 OA
ATOM     26  H   UNL     1       1.124  11.125  22.415  0.00  0.00    +0.000 HD
ENDBRANCH  23  25
ENDBRANCH  21  23
ENDBRANCH  16  17
ENDBRANCH   6  16
TORSDOF 10
ENDMDL
MODEL 4
REMARK VINA RESULT:      -7.4      1.764      2.407
REMARK  Name = 
REMARK  11 active torsions:
REMARK  status: ('A' for Active; 'I' for Inactive)
REMARK    1  A    between atoms: C_1  and  C_2
REMARK    2  A    between atoms: C_2  and  C_3
REMARK    3  A    between atoms: C_3  and  C_4
REMARK    4  A    between atoms: C_4  and  C_5
REMARK    5  A    between atoms: C_9  and  C_10
REMARK    6  A    between atoms: C_10  and  C_11
REMARK    7  A    between atoms: C_11  and  O_13
REMARK    8  A    between atoms: N_14  and  C_15
REMARK    9  A    between atoms: C_15  and  C_16
REMARK   10  A    between atoms: C_20  and  C_21
REMARK   11  A    between atoms: C_21  and  O_23
REMARK                            x       y       z     vdW  Elec       q    Type
REMARK                         _______ _______ _______ _____ _____    ______ ____
ROOT
ATOM      1  C   UNL     1       1.968   6.339  20.103  0.00  0.00    +0.000 A 
ATOM      2  N   UNL     1       1.546   5.487  21.014  0.00  0.00    +0.000 NA
ATOM      3  C   UNL     1       1.769   4.238  20.522  0.00  0.00    +0.000 A 
ATOM      4 CL   UNL     1       1.315   2.842  21.382  0.00  0.00    +0.000 Cl
ATOM      5  C   UNL     1       2.384   4.300  19.287  0.00  0.00    +0.000 A 
ATOM      6  N   UNL     1       2.513   5.658  19.026  0.00  0.00    +0.000 N 
ENDROOT
BRANCH   1   7
ATOM      7  C   UNL     1       1.859   7.829  20.260  0.00  0.00    +0.000 C 
BRANCH   7   8
ATOM      8  C   UNL     1       1.331   8.278  21.628  0.00  0.00    +0.000 C 
BRANCH   8  10
ATOM      9  C   UNL     1      -0.412   9.543  22.951  0.00  0.00    +0.000 C 
ATOM     10  C   UNL     1       0.049   9.116  21.564  0.00  0.00    +0.000 C 
ENDBRANCH   8  10
ENDBRANCH   7   8
ENDBRANCH   1   7
BRANCH   5  11
ATOM     11  C   UNL     1       2.763   3.178  18.367  0.00  0.00    +0.000 C 
BRANCH  11  12
ATOM     12  C   UNL     1       3.812   2.233  18.908  0.00  0.00    +0.000 C 
ATOM     13  O   UNL     1       4.649   2.583  19.730  0.00  0.00    +0.000 OA
BRANCH  12  14
ATOM     14  O   UNL     1       3.795   0.981  18.408  0.00  0.00    +0.000 OA
ATOM     15  H   UNL     1       3.232   0.862  17.618  0.00  0.00    +0.000 HD
ENDBRANCH  12  14
ENDBRANCH  11  12
ENDBRANCH   5  11
BRANCH   6  16
ATOM     16  C   UNL     1       3.177   6.266  17.876  0.00  0.00    +0.000 C 
BRANCH  16  17
ATOM     17  C   UNL     1       4.573   5.763  17.589  0.00  0.00    +0.000 A 
ATOM     18  C   UNL     1       5.470   5.700  18.672  0.00  0.00    +0.000 A 
ATOM     19  C   UNL     1       6.799   5.315  18.491  0.00  0.00    +0.000 A 
ATOM     20  C   UNL     1       7.258   4.982  17.219  0.00  0.00    +0.000 A 
ATOM     21  C   UNL     1       6.381   5.019  16.130  0.00  0.00    +0.000 A 
ATOM     22  C   UNL     1       5.046   5.417  16.313  0.00  0.00    +0.000 A 
BRANCH  21  23
ATOM     23  C   UNL     1       6.929   4.696  14.787  0.00  0.00    +0.000 C 
ATOM     24  O   UNL     1       7.748   5.397  14.224  0.00  0.00    +0.000 OA
BRANCH  23  25
ATOM     25  O   UNL     1       6.462   3.541  14.268  0.00  0.00    +0.000 OA
ATOM     26  H   UNL     1       6.214   3.573  13.327  0.00  0.00    +0.000 HD
ENDBRANCH  23  25
ENDBRANCH  21  23
ENDBRANCH  16  17
ENDBRANCH   6  16
TORSDOF 10
ENDMDL
MODEL 5
REMARK VINA RESULT:      -7.3      0.806      1.110
REMARK  Name = 
REMARK  11 active torsions:
REMARK  status: ('A' for Active; 'I' for Inactive)
REMARK    1  A    between atoms: C_1  and  C_2
REMARK    2  A    between atoms: C_2  and  C_3
REMARK    3  A    between atoms: C_3  and  C_4
REMARK    4  A    between atoms: C_4  and  C_5
REMARK    5  A    between atoms: C_9  and  C_10
REMARK    6  A    between atoms: C_10  and  C_11
REMARK    7  A    between atoms: C_11  and  O_13
REMARK    8  A    between atoms: N_14  and  C_15
REMARK    9  A    between atoms: C_15  and  C_16
REMARK   10  A    between atoms: C_20  and  C_21
REMARK   11  A    between atoms: C_21  and  O_23
REMARK                            x       y       z     vdW  Elec       q    Type
REMARK                         _______ _______ _______ _____ _____    ______ ____
ROOT
ATOM      1  C   UNL     1       2.210   5.957  19.946  0.00  0.00    +0.000 A 
ATOM      2  N   UNL     1       2.043   5.331  21.092  0.00  0.00    +0.000 NA
ATOM      3  C   UNL     1       2.158   3.998  20.837  0.00  0.00    +0.000 A 
ATOM      4 CL   UNL     1       1.957   2.831  22.057  0.00  0.00    +0.000 Cl
ATOM      5  C   UNL     1       2.445   3.778  19.504  0.00  0.00    +0.000 A 
ATOM      6  N   UNL     1       2.481   5.046  18.938  0.00  0.00    +0.000 N 
ENDROOT
BRANCH   1   7
ATOM      7  C   UNL     1       2.118   7.449  19.806  0.00  0.00    +0.000 C 
BRANCH   7   8
ATOM      8  C   UNL     1       1.493   8.155  21.017  0.00  0.00    +0.000 C 
BRANCH   8  10
ATOM      9  C   UNL     1      -0.002   9.998  21.885  0.00  0.00    +0.000 C 
ATOM     10  C   UNL     1       0.458   9.226  20.656  0.00  0.00    +0.000 C 
ENDBRANCH   8  10
ENDBRANCH   7   8
ENDBRANCH   1   7
BRANCH   5  11
ATOM     11  C   UNL     1       2.602   2.475  18.778  0.00  0.00    +0.000 C 
BRANCH  11  12
ATOM     12  C   UNL     1       3.916   1.767  19.011  0.00  0.00    +0.000 C 
ATOM     13  O   UNL     1       4.764   2.194  19.785  0.00  0.00    +0.000 OA
BRANCH  12  14
ATOM     14  O   UNL     1       4.121   0.646  18.290  0.00  0.00    +0.000 OA
ATOM     15  H   UNL     1       4.246   0.793  17.331  0.00  0.00    +0.000 HD
ENDBRANCH  12  14
ENDBRANCH  11  12
ENDBRANCH   5  11
BRANCH   6  16
ATOM     16  C   UNL     1       2.827   5.375  17.557  0.00  0.00    +0.000 C 
BRANCH  16  17
ATOM     17  C   UNL     1       4.302   5.347  17.231  0.00  0.00    +0.000 A 
ATOM     18  C   UNL     1       4.777   4.250  16.488  0.00  0.00    +0.000 A 
ATOM     19  C   UNL     1       6.134   4.103  16.199  0.00  0.00    +0.000 A 
ATOM     20  C   UNL     1       7.045   5.055  16.646  0.00  0.00    +0.000 A 
ATOM     21  C   UNL     1       6.597   6.164  17.371  0.00  0.00    +0.000 A 
ATOM     22  C   UNL     1       5.231   6.304  17.670  0.00  0.00    +0.000 A 
BRANCH  21  23
ATOM     23  C   UNL     1       7.613   7.129  17.863  0.00  0.00    +0.000 C 
ATOM     24  O   UNL     1       7.816   8.202  17.327  0.00  0.00    +0.000 OA
BRANCH  23  25
ATOM     25  O   UNL     1       8.263   6.723  18.973  0.00  0.00    +0.000 OA
ATOM     26  H   UNL     1       7.836   6.003  19.471  0.00  0.00    +0.000 HD
ENDBRANCH  23  25
ENDBRANCH  21  23
ENDBRANCH  16  17
ENDBRANCH   6  16
TORSDOF 10
ENDMDL
MODEL 6
REMARK VINA RESULT:      -7.3      3.529      6.825
REMARK  Name = 
REMARK  11 active torsions:
REMARK  status: ('A' for Active; 'I' for Inactive)
REMARK    1  A    between atoms: C_1  and  C_2
REMARK    2  A    between atoms: C_2  and  C_3
REMARK    3  A    between atoms: C_3  and  C_4
REMARK    4  A    between atoms: C_4  and  C_5
REMARK    5  A    between atoms: C_9  and  C_10
REMARK    6  A    between atoms: C_10  and  C_11
REMARK    7  A    between atoms: C_11  and  O_13
REMARK    8  A    between atoms: N_14  and  C_15
REMARK    9  A    between atoms: C_15  and  C_16
REMARK   10  A    between atoms: C_20  and  C_21
REMARK   11  A    between atoms: C_21  and  O_23
REMARK                            x       y       z     vdW  Elec       q    Type
REMARK                         _______ _______ _______ _____ _____    ______ ____
ROOT
ATOM      1  C   UNL     1       5.678   5.161  15.674  0.00  0.00    +0.000 A 
ATOM      2  N   UNL     1       6.352   6.292  15.640  0.00  0.00    +0.000 NA
ATOM      3  C   UNL     1       6.731   6.567  16.918  0.00  0.00    +0.000 A 
ATOM      4 CL   UNL     1       7.590   7.981  17.315  0.00  0.00    +0.000 Cl
ATOM      5  C   UNL     1       6.321   5.565  17.777  0.00  0.00    +0.000 A 
ATOM      6  N   UNL     1       5.647   4.661  16.966  0.00  0.00    +0.000 N 
ENDROOT
BRANCH   1   7
ATOM      7  C   UNL     1       5.057   4.540  14.457  0.00  0.00    +0.000 C 
BRANCH   7   8
ATOM      8  C   UNL     1       6.059   3.838  13.531  0.00  0.00    +0.000 C 
BRANCH   8  10
ATOM      9  C   UNL     1       6.016   2.128  11.670  0.00  0.00    +0.000 C 
ATOM     10  C   UNL     1       5.496   3.475  12.153  0.00  0.00    +0.000 C 
ENDBRANCH   8  10
ENDBRANCH   7   8
ENDBRANCH   1   7
BRANCH   5  11
ATOM     11  C   UNL     1       6.474   5.482  19.267  0.00  0.00    +0.000 C 
BRANCH  11  12
ATOM     12  C   UNL     1       7.866   5.144  19.749  0.00  0.00    +0.000 C 
ATOM     13  O   UNL     1       8.703   4.620  19.024  0.00  0.00    +0.000 OA
BRANCH  12  14
ATOM     14  O   UNL     1       8.130   5.425  21.041  0.00  0.00    +0.000 OA
ATOM     15  H   UNL     1       7.858   6.319  21.330  0.00  0.00    +0.000 HD
ENDBRANCH  12  14
ENDBRANCH  11  12
ENDBRANCH   5  11
BRANCH   6  16
ATOM     16  C   UNL     1       5.084   3.376  17.374  0.00  0.00    +0.000 C 
BRANCH  16  17
ATOM     17  C   UNL     1       3.780   3.449  18.135  0.00  0.00    +0.000 A 
ATOM     18  C   UNL     1       2.710   4.124  17.517  0.00  0.00    +0.000 A 
ATOM     19  C   UNL     1       1.491   4.302  18.172  0.00  0.00    +0.000 A 
ATOM     20  C   UNL     1       1.316   3.805  19.460  0.00  0.00    +0.000 A 
ATOM     21  C   UNL     1       2.359   3.116  20.089  0.00  0.00    +0.000 A 
ATOM     22  C   UNL     1       3.588   2.946  19.432  0.00  0.00    +0.000 A 
BRANCH  21  23
ATOM     23  C   UNL     1       2.138   2.642  21.480  0.00  0.00    +0.000 C 
ATOM     24  O   UNL     1       1.057   2.709  22.034  0.00  0.00    +0.000 OA
BRANCH  23  25
ATOM     25  O   UNL     1       3.232   2.102  22.056  0.00  0.00    +0.000 OA
ATOM     26  H   UNL     1       3.753   1.505  21.490  0.00  0.00    +0.000 HD
ENDBRANCH  23  25
ENDBRANCH  21  23
ENDBRANCH  16  17
ENDBRANCH   6  16
TORSDOF 10
ENDMDL
MODEL 7
REMARK VINA RESULT:      -7.3      3.619      5.768
REMARK  Name = 
REMARK  11 active torsions:
REMARK  status: ('A' for Active; 'I' for Inactive)
REMARK    1  A    between atoms: C_1  and  C_2
REMARK    2  A    between atoms: C_2  and  C_3
REMARK    3  A    between atoms: C_3  and  C_4
REMARK    4  A    between atoms: C_4  and  C_5
REMARK    5  A    between atoms: C_9  and  C_10
REMARK    6  A    between atoms: C_10  and  C_11
REMARK    7  A    between atoms: C_11  and  O_13
REMARK    8  A    between atoms: N_14  and  C_15
REMARK    9  A    between atoms: C_15  and  C_16
REMARK   10  A    between atoms: C_20  and  C_21
REMARK   11  A    between atoms: C_21  and  O_23
REMARK                            x       y       z     vdW  Elec       q    Type
REMARK                         _______ _______ _______ _____ _____    ______ ____
ROOT
ATOM      1  C   UNL     1       6.055   6.739  17.086  0.00  0.00    +0.000 A 
ATOM      2  N   UNL     1       4.980   7.243  17.655  0.00  0.00    +0.000 NA
ATOM      3  C   UNL     1       4.053   6.248  17.706  0.00  0.00    +0.000 A 
ATOM      4 CL   UNL     1       2.493   6.506  18.332  0.00  0.00    +0.000 Cl
ATOM      5  C   UNL     1       4.568   5.073  17.192  0.00  0.00    +0.000 A 
ATOM      6  N   UNL     1       5.860   5.397  16.799  0.00  0.00    +0.000 N 
ENDROOT
BRANCH   1   7
ATOM      7  C   UNL     1       7.294   7.543  16.815  0.00  0.00    +0.000 C 
BRANCH   7   8
ATOM      8  C   UNL     1       7.996   8.057  18.078  0.00  0.00    +0.000 C 
BRANCH   8  10
ATOM      9  C   UNL     1       9.226   9.951  19.213  0.00  0.00    +0.000 C 
ATOM     10  C   UNL     1       8.329   9.552  18.049  0.00  0.00    +0.000 C 
ENDBRANCH   8  10
ENDBRANCH   7   8
ENDBRANCH   1   7
BRANCH   5  11
ATOM     11  C   UNL     1       3.886   3.750  17.004  0.00  0.00    +0.000 C 
BRANCH  11  12
ATOM     12  C   UNL     1       3.911   2.840  18.211  0.00  0.00    +0.000 C 
ATOM     13  O   UNL     1       2.982   2.092  18.487  0.00  0.00    +0.000 OA
BRANCH  12  14
ATOM     14  O   UNL     1       5.008   2.920  18.991  0.00  0.00    +0.000 OA
ATOM     15  H   UNL     1       5.850   3.029  18.504  0.00  0.00    +0.000 HD
ENDBRANCH  12  14
ENDBRANCH  11  12
ENDBRANCH   5  11
BRANCH   6  16
ATOM     16  C   UNL     1       6.864   4.481  16.263  0.00  0.00    +0.000 C 
BRANCH  16  17
ATOM     17  C   UNL     1       6.909   4.374  14.756  0.00  0.00    +0.000 A 
ATOM     18  C   UNL     1       7.785   5.239  14.075  0.00  0.00    +0.000 A 
ATOM     19  C   UNL     1       7.844   5.261  12.681  0.00  0.00    +0.000 A 
ATOM     20  C   UNL     1       7.027   4.412  11.939  0.00  0.00    +0.000 A 
ATOM     21  C   UNL     1       6.161   3.529  12.594  0.00  0.00    +0.000 A 
ATOM     22  C   UNL     1       6.097   3.517  13.997  0.00  0.00    +0.000 A 
BRANCH  21  23
ATOM     23  C   UNL     1       5.280   2.673  11.757  0.00  0.00    +0.000 C 
ATOM     24  O   UNL     1       4.206   3.053  11.332  0.00  0.00    +0.000 OA
BRANCH  23  25
ATOM     25  O   UNL     1       5.795   1.456  11.486  0.00  0.00    +0.000 OA
ATOM     26  H   UNL     1       5.196   0.838  11.031  0.00  0.00    +0.000 HD
ENDBRANCH  23  25
ENDBRANCH  21  23
ENDBRANCH  16  17
ENDBRANCH   6  16
TORSDOF 10
ENDMDL
MODEL 8
REMARK VINA RESULT:      -7.3      2.761      4.781
REMARK  Name = 
REMARK  11 active torsions:
REMARK  status: ('A' for Active; 'I' for Inactive)
REMARK    1  A    between atoms: C_1  and  C_2
REMARK    2  A    between atoms: C_2  and  C_3
REMARK    3  A    between atoms: C_3  and  C_4
REMARK    4  A    between atoms: C_4  and  C_5
REMARK    5  A    between atoms: C_9  and  C_10
REMARK    6  A    between atoms: C_10  and  C_11
REMARK    7  A    between atoms: C_11  and  O_13
REMARK    8  A    between atoms: N_14  and  C_15
REMARK    9  A    between atoms: C_15  and  C_16
REMARK   10  A    between atoms: C_20  and  C_21
REMARK   11  A    between atoms: C_21  and  O_23
REMARK                            x       y       z     vdW  Elec       q    Type
REMARK                         _______ _______ _______ _____ _____    ______ ____
ROOT
ATOM      1  C   UNL     1       2.071   5.233  19.897  0.00  0.00    +0.000 A 
ATOM      2  N   UNL     1       1.609   6.091  20.782  0.00  0.00    +0.000 NA
ATOM      3  C   UNL     1       1.774   7.334  20.253  0.00  0.00    +0.000 A 
ATOM      4 CL   UNL     1       1.345   8.739  21.111  0.00  0.00    +0.000 Cl
ATOM      5  C   UNL     1       2.317   7.259  18.985  0.00  0.00    +0.000 A 
ATOM      6  N   UNL     1       2.500   5.900  18.761  0.00  0.00    +0.000 N 
ENDROOT
BRANCH   1   7
ATOM      7  C   UNL     1       2.098   3.749  20.129  0.00  0.00    +0.000 C 
BRANCH   7   8
ATOM      8  C   UNL     1       3.490   3.189  20.444  0.00  0.00    +0.000 C 
BRANCH   8  10
ATOM      9  C   UNL     1       2.929   1.815  18.398  0.00  0.00    +0.000 C 
ATOM     10  C   UNL     1       3.983   2.132  19.450  0.00  0.00    +0.000 C 
ENDBRANCH   8  10
ENDBRANCH   7   8
ENDBRANCH   1   7
BRANCH   5  11
ATOM     11  C   UNL     1       2.713   8.373  18.063  0.00  0.00    +0.000 C 
BRANCH  11  12
ATOM     12  C   UNL     1       1.675   9.458  17.887  0.00  0.00    +0.000 C 
ATOM     13  O   UNL     1       0.481   9.211  17.771  0.00  0.00    +0.000 OA
BRANCH  12  14
ATOM     14  O   UNL     1       2.142  10.722  17.831  0.00  0.00    +0.000 OA
ATOM     15  H   UNL     1       2.958  10.880  18.347  0.00  0.00    +0.000 HD
ENDBRANCH  12  14
ENDBRANCH  11  12
ENDBRANCH   5  11
BRANCH   6  16
ATOM     16  C   UNL     1       2.975   5.275  17.529  0.00  0.00    +0.000 C 
BRANCH  16  17
ATOM     17  C   UNL     1       4.476   5.151  17.397  0.00  0.00    +0.000 A 
ATOM     18  C   UNL     1       4.966   4.334  16.362  0.00  0.00    +0.000 A 
ATOM     19  C   UNL     1       6.334   4.104  16.206  0.00  0.00    +0.000 A 
ATOM     20  C   UNL     1       7.240   4.691  17.084  0.00  0.00    +0.000 A 
ATOM     21  C   UNL     1       6.779   5.522  18.111  0.00  0.00    +0.000 A 
ATOM     22  C   UNL     1       5.401   5.744  18.272  0.00  0.00    +0.000 A 
BRANCH  21  23
ATOM     23  C   UNL     1       7.782   6.090  19.048  0.00  0.00    +0.000 C 
ATOM     24  O   UNL     1       8.439   7.080  18.787  0.00  0.00    +0.000 OA
BRANCH  23  25
ATOM     25  O   UNL     1       7.871   5.431  20.222  0.00  0.00    +0.000 OA
ATOM     26  H   UNL     1       8.159   4.503  20.162  0.00  0.00    +0.000 HD
ENDBRANCH  23  25
ENDBRANCH  21  23
ENDBRANCH  16  17
ENDBRANCH   6  16
TORSDOF 10
ENDMDL
MODEL 9
REMARK VINA RESULT:      -7.1      3.252      5.174
REMARK  Name = 
REMARK  11 active torsions:
REMARK  status: ('A' for Active; 'I' for Inactive)
REMARK    1  A    between atoms: C_1  and  C_2
REMARK    2  A    between atoms: C_2  and  C_3
REMARK    3  A    between atoms: C_3  and  C_4
REMARK    4  A    between atoms: C_4  and  C_5
REMARK    5  A    between atoms: C_9  and  C_10
REMARK    6  A    between atoms: C_10  and  C_11
REMARK    7  A    between atoms: C_11  and  O_13
REMARK    8  A    between atoms: N_14  and  C_15
REMARK    9  A    between atoms: C_15  and  C_16
REMARK   10  A    between atoms: C_20  and  C_21
REMARK   11  A    between atoms: C_21  and  O_23
REMARK                            x       y       z     vdW  Elec       q    Type
REMARK                         _______ _______ _______ _____ _____    ______ ____
ROOT
ATOM      1  C   UNL     1       2.051   5.617  20.223  0.00  0.00    +0.000 A 
ATOM      2  N   UNL     1       1.639   6.599  20.997  0.00  0.00    +0.000 NA
ATOM      3  C   UNL     1       1.761   7.749  20.279  0.00  0.00    +0.000 A 
ATOM      4 CL   UNL     1       1.375   9.266  20.943  0.00  0.00    +0.000 Cl
ATOM      5  C   UNL     1       2.224   7.484  19.005  0.00  0.00    +0.000 A 
ATOM      6  N   UNL     1       2.404   6.107  18.976  0.00  0.00    +0.000 N 
ENDROOT
BRANCH   1   7
ATOM      7  C   UNL     1       2.105   4.186  20.673  0.00  0.00    +0.000 C 
BRANCH   7   8
ATOM      8  C   UNL     1       0.821   3.393  20.396  0.00  0.00    +0.000 C 
BRANCH   8  10
ATOM      9  C   UNL     1       2.171   1.886  18.881  0.00  0.00    +0.000 C 
ATOM     10  C   UNL     1       0.841   2.599  19.086  0.00  0.00    +0.000 C 
ENDBRANCH   8  10
ENDBRANCH   7   8
ENDBRANCH   1   7
BRANCH   5  11
ATOM     11  C   UNL     1       2.554   8.447  17.904  0.00  0.00    +0.000 C 
BRANCH  11  12
ATOM     12  C   UNL     1       1.715   9.705  17.881  0.00  0.00    +0.000 C 
ATOM     13  O   UNL     1       2.193  10.815  18.080  0.00  0.00    +0.000 OA
BRANCH  12  14
ATOM     14  O   UNL     1       0.396   9.534  17.660  0.00  0.00    +0.000 OA
ATOM     15  H   UNL     1      -0.015  10.212  17.088  0.00  0.00    +0.000 HD
ENDBRANCH  12  14
ENDBRANCH  11  12
ENDBRANCH   5  11
BRANCH   6  16
ATOM     16  C   UNL     1       2.806   5.304  17.823  0.00  0.00    +0.000 C 
BRANCH  16  17
ATOM     17  C   UNL     1       4.297   5.174  17.608  0.00  0.00    +0.000 A 
ATOM     18  C   UNL     1       5.128   5.368  18.727  0.00  0.00    +0.000 A 
ATOM     19  C   UNL     1       6.518   5.337  18.612  0.00  0.00    +0.000 A 
ATOM     20  C   UNL     1       7.106   5.107  17.371  0.00  0.00    +0.000 A 
ATOM     21  C   UNL     1       6.301   4.894  16.247  0.00  0.00    +0.000 A 
ATOM     22  C   UNL     1       4.902   4.936  16.364  0.00  0.00    +0.000 A 
BRANCH  21  23
ATOM     23  C   UNL     1       6.976   4.695  14.938  0.00  0.00    +0.000 C 
ATOM     24  O   UNL     1       7.880   5.410  14.549  0.00  0.00    +0.000 OA
BRANCH  23  25
ATOM     25  O   UNL     1       6.519   3.635  14.241  0.00  0.00    +0.000 OA
ATOM     26  H   UNL     1       6.565   2.778  14.701  0.00  0.00    +0.000 HD
ENDBRANCH  23  25
ENDBRANCH  21  23
ENDBRANCH  16  17
ENDBRANCH   6  16
TORSDOF 10
ENDMDL
