MODEL 1
REMARK VINA RESULT:      -7.9      0.000      0.000
REMARK  Name = 
REMARK  4 active torsions:
REMARK  status: ('A' for Active; 'I' for Inactive)
REMARK    1  A    between atoms: C_5  and  C_6
REMARK    2  A    between atoms: C_11  and  C_12
REMARK    3  A    between atoms: C_19  and  C_20
REMARK    4  A    between atoms: C_20  and  N_21
REMARK                            x       y       z     vdW  Elec       q    Type
REMARK                         _______ _______ _______ _____ _____    ______ ____
ROOT
ATOM      1  C   UNL     1       1.085   8.815  20.654  0.00  0.00    +0.000 A 
ATOM      2  C   UNL     1       1.065   8.892  22.113  0.00  0.00    +0.000 A 
ATOM      3  C   UNL     1       0.304   9.805  22.755  0.00  0.00    +0.000 A 
ATOM      4  C   UNL     1      -0.510  10.708  22.017  0.00  0.00    +0.000 A 
ATOM      5  N   UNL     1      -1.331  11.656  22.410  0.00  0.00    +0.000 NA
ATOM      6  C   UNL     1      -1.933  12.138  21.266  0.00  0.00    +0.000 A 
ATOM      7  C   UNL     1      -1.414  11.528  20.121  0.00  0.00    +0.000 A 
ATOM      8  N   UNL     1      -0.489  10.605  20.626  0.00  0.00    +0.000 N 
ATOM      9  C   UNL     1       0.312   9.677  19.961  0.00  0.00    +0.000 A 
ENDROOT
BRANCH   1  14
ATOM     10  F   UNL     1       3.442   4.897  17.452  0.00  0.00    +0.000 F 
ATOM     11  C   UNL     1       2.959   5.857  18.252  0.00  0.00    +0.000 A 
ATOM     12  C   UNL     1       2.875   7.163  17.780  0.00  0.00    +0.000 A 
ATOM     13  C   UNL     1       2.323   8.156  18.591  0.00  0.00    +0.000 A 
ATOM     14  C   UNL     1       1.847   7.833  19.869  0.00  0.00    +0.000 A 
ATOM     15  C   UNL     1       1.981   6.520  20.347  0.00  0.00    +0.000 A 
ATOM     16  C   UNL     1       2.532   5.529  19.533  0.00  0.00    +0.000 A 
ENDBRANCH   1  14
BRANCH   6  17
ATOM     17  C   UNL     1      -2.960  13.176  21.353  0.00  0.00    +0.000 A 
ATOM     18  C   UNL     1      -4.269  12.824  21.721  0.00  0.00    +0.000 A 
ATOM     19  C   UNL     1      -5.248  13.807  21.922  0.00  0.00    +0.000 A 
ATOM     20  C   UNL     1      -4.922  15.150  21.759  0.00  0.00    +0.000 A 
ATOM     21 CL   UNL     1      -6.091  16.370  22.076  0.00  0.00    +0.000 Cl
ATOM     22  C   UNL     1      -3.649  15.513  21.337  0.00  0.00    +0.000 A 
ATOM     23  C   UNL     1      -2.690  14.524  21.098  0.00  0.00    +0.000 A 
ENDBRANCH   6  17
BRANCH   7  24
ATOM     24  C   UNL     1      -1.785  11.577  18.667  0.00  0.00    +0.000 C 
BRANCH  24  25
ATOM     25  N   UNL     1      -2.684  10.584  18.084  0.00  0.00    +0.000 NA
ATOM     26  C   UNL     1      -2.261   9.945  16.843  0.00  0.00    +0.000 C 
ATOM     27  C   UNL     1      -2.708  10.703  15.588  0.00  0.00    +0.000 C 
ATOM     28  O   UNL     1      -4.129  10.895  15.575  0.00  0.00    +0.000 OA
ATOM     29  C   UNL     1      -4.567  11.592  16.752  0.00  0.00    +0.000 C 
ATOM     30  C   UNL     1      -4.120  10.872  18.033  0.00  0.00    +0.000 C 
ENDBRANCH  24  25
ENDBRANCH   7  24
TORSDOF 4
ENDMDL
MODEL 2
REMARK VINA RESULT:      -7.8      0.471      1.304
REMARK  Name = 
REMARK  4 active torsions:
REMARK  status: ('A' for Active; 'I' for Inactive)
REMARK    1  A    between atoms: C_5  and  C_6
REMARK    2  A    between atoms: C_11  and  C_12
REMARK    3  A    between atoms: C_19  and  C_20
REMARK    4  A    between atoms: C_20  and  N_21
REMARK                            x       y       z     vdW  Elec       q    Type
REMARK                         _______ _______ _______ _____ _____    ______ ____
ROOT
ATOM      1  C   UNL     1       1.285   8.720  20.353  0.00  0.00    +0.000 A 
ATOM      2  C   UNL     1       1.340   8.731  21.812  0.00  0.00    +0.000 A 
ATOM      3  C   UNL     1       0.611   9.610  22.534  0.00  0.00    +0.000 A 
ATOM      4  C   UNL     1      -0.242  10.542  21.881  0.00  0.00    +0.000 A 
ATOM      5  N   UNL     1      -1.044  11.468  22.358  0.00  0.00    +0.000 NA
ATOM      6  C   UNL     1      -1.705  11.998  21.270  0.00  0.00    +0.000 A 
ATOM      7  C   UNL     1      -1.245  11.443  20.073  0.00  0.00    +0.000 A 
ATOM      8  N   UNL     1      -0.293  10.503  20.487  0.00  0.00    +0.000 N 
ATOM      9  C   UNL     1       0.476   9.609  19.741  0.00  0.00    +0.000 A 
ENDROOT
BRANCH   1  14
ATOM     10  F   UNL     1       4.541   5.360  17.309  0.00  0.00    +0.000 F 
ATOM     11  C   UNL     1       3.689   6.132  17.996  0.00  0.00    +0.000 A 
ATOM     12  C   UNL     1       3.130   5.654  19.177  0.00  0.00    +0.000 A 
ATOM     13  C   UNL     1       2.282   6.475  19.922  0.00  0.00    +0.000 A 
ATOM     14  C   UNL     1       2.008   7.778  19.486  0.00  0.00    +0.000 A 
ATOM     15  C   UNL     1       2.543   8.229  18.269  0.00  0.00    +0.000 A 
ATOM     16  C   UNL     1       3.391   7.406  17.527  0.00  0.00    +0.000 A 
ENDBRANCH   1  14
BRANCH   6  17
ATOM     17  C   UNL     1      -2.729  13.026  21.456  0.00  0.00    +0.000 A 
ATOM     18  C   UNL     1      -2.341  14.344  21.744  0.00  0.00    +0.000 A 
ATOM     19  C   UNL     1      -3.291  15.373  21.818  0.00  0.00    +0.000 A 
ATOM     20  C   UNL     1      -4.635  15.089  21.600  0.00  0.00    +0.000 A 
ATOM     21 CL   UNL     1      -5.801  16.352  21.613  0.00  0.00    +0.000 Cl
ATOM     22  C   UNL     1      -5.044  13.780  21.373  0.00  0.00    +0.000 A 
ATOM     23  C   UNL     1      -4.097  12.753  21.343  0.00  0.00    +0.000 A 
ENDBRANCH   6  17
BRANCH   7  24
ATOM     24  C   UNL     1      -1.691  11.556  18.644  0.00  0.00    +0.000 C 
BRANCH  24  25
ATOM     25  N   UNL     1      -2.600  10.575  18.057  0.00  0.00    +0.000 NA
ATOM     26  C   UNL     1      -2.219   9.993  16.774  0.00  0.00    +0.000 C 
ATOM     27  C   UNL     1      -2.728  10.795  15.571  0.00  0.00    +0.000 C 
ATOM     28  O   UNL     1      -4.151  10.965  15.625  0.00  0.00    +0.000 OA
ATOM     29  C   UNL     1      -4.550  11.607  16.846  0.00  0.00    +0.000 C 
ATOM     30  C   UNL     1      -4.040  10.842  18.077  0.00  0.00    +0.000 C 
ENDBRANCH  24  25
ENDBRANCH   7  24
TORSDOF 4
ENDMDL
MODEL 3
REMARK VINA RESULT:      -7.4      2.466      3.105
REMARK  Name = 
REMARK  4 active torsions:
REMARK  status: ('A' for Active; 'I' for Inactive)
REMARK    1  A    between atoms: C_5  and  C_6
REMARK    2  A    between atoms: C_11  and  C_12
REMARK    3  A    between atoms: C_19  and  C_20
REMARK    4  A    between atoms: C_20  and  N_21
REMARK                            x       y       z     vdW  Elec       q    Type
REMARK                         _______ _______ _______ _____ _____    ______ ____
ROOT
ATOM      1  C   UNL     1       0.977   8.990  20.786  0.00  0.00    +0.000 A 
ATOM      2  C   UNL     1       0.929   8.636  22.203  0.00  0.00    +0.000 A 
ATOM      3  C   UNL     1       0.237   9.385  23.088  0.00  0.00    +0.000 A 
ATOM      4  C   UNL     1      -0.477  10.536  22.652  0.00  0.00    +0.000 A 
ATOM      5  N   UNL     1      -1.219  11.398  23.310  0.00  0.00    +0.000 NA
ATOM      6  C   UNL     1      -1.749  12.249  22.361  0.00  0.00    +0.000 A 
ATOM      7  C   UNL     1      -1.259  11.957  21.085  0.00  0.00    +0.000 A 
ATOM      8  N   UNL     1      -0.431  10.846  21.292  0.00  0.00    +0.000 N 
ATOM      9  C   UNL     1       0.301  10.085  20.381  0.00  0.00    +0.000 A 
ENDROOT
BRANCH   1  14
ATOM     10  F   UNL     1       4.108   6.339  17.001  0.00  0.00    +0.000 F 
ATOM     11  C   UNL     1       3.285   6.932  17.876  0.00  0.00    +0.000 A 
ATOM     12  C   UNL     1       3.027   6.319  19.098  0.00  0.00    +0.000 A 
ATOM     13  C   UNL     1       2.212   6.958  20.033  0.00  0.00    +0.000 A 
ATOM     14  C   UNL     1       1.668   8.217  19.744  0.00  0.00    +0.000 A 
ATOM     15  C   UNL     1       1.900   8.801  18.489  0.00  0.00    +0.000 A 
ATOM     16  C   UNL     1       2.717   8.159  17.557  0.00  0.00    +0.000 A 
ENDBRANCH   1  14
BRANCH   6  17
ATOM     17  C   UNL     1      -2.682  13.304  22.753  0.00  0.00    +0.000 A 
ATOM     18  C   UNL     1      -4.045  13.173  22.441  0.00  0.00    +0.000 A 
ATOM     19  C   UNL     1      -4.980  14.111  22.899  0.00  0.00    +0.000 A 
ATOM     20  C   UNL     1      -4.558  15.184  23.678  0.00  0.00    +0.000 A 
ATOM     21 CL   UNL     1      -5.703  16.299  24.311  0.00  0.00    +0.000 Cl
ATOM     22  C   UNL     1      -3.207  15.362  23.947  0.00  0.00    +0.000 A 
ATOM     23  C   UNL     1      -2.274  14.446  23.451  0.00  0.00    +0.000 A 
ENDBRANCH   6  17
BRANCH   7  24
ATOM     24  C   UNL     1      -1.590  12.465  19.712  0.00  0.00    +0.000 C 
BRANCH  24  25
ATOM     25  N   UNL     1      -0.871  13.597  19.133  0.00  0.00    +0.000 NA
ATOM     26  C   UNL     1       0.412  13.321  18.495  0.00  0.00    +0.000 C 
ATOM     27  C   UNL     1       1.598  13.400  19.463  0.00  0.00    +0.000 C 
ATOM     28  O   UNL     1       1.647  14.673  20.122  0.00  0.00    +0.000 OA
ATOM     29  C   UNL     1       0.423  14.939  20.824  0.00  0.00    +0.000 C 
ATOM     30  C   UNL     1      -0.793  14.849  19.890  0.00  0.00    +0.000 C 
ENDBRANCH  24  25
ENDBRANCH   7  24
TORSDOF 4
ENDMDL
MODEL 4
REMARK VINA RESULT:      -7.4      2.444      3.126
REMARK  Name = 
REMARK  4 active torsions:
REMARK  status: ('A' for Active; 'I' for Inactive)
REMARK    1  A    between atoms: C_5  and  C_6
REMARK    2  A    between atoms: C_11  and  C_12
REMARK    3  A    between atoms: C_19  and  C_20
REMARK    4  A    between atoms: C_20  and  N_21
REMARK                            x       y       z     vdW  Elec       q    Type
REMARK                         _______ _______ _______ _____ _____    ______ ____
ROOT
ATOM      1  C   UNL     1       0.759   9.185  20.905  0.00  0.00    +0.000 A 
ATOM      2  C   UNL     1       0.742   8.779  22.308  0.00  0.00    +0.000 A 
ATOM      3  C   UNL     1       0.030   9.467  23.227  0.00  0.00    +0.000 A 
ATOM      4  C   UNL     1      -0.735  10.602  22.841  0.00  0.00    +0.000 A 
ATOM      5  N   UNL     1      -1.504  11.409  23.537  0.00  0.00    +0.000 NA
ATOM      6  C   UNL     1      -2.080  12.269  22.625  0.00  0.00    +0.000 A 
ATOM      7  C   UNL     1      -1.594  12.044  21.335  0.00  0.00    +0.000 A 
ATOM      8  N   UNL     1      -0.719  10.962  21.493  0.00  0.00    +0.000 N 
ATOM      9  C   UNL     1       0.033  10.264  20.547  0.00  0.00    +0.000 A 
ENDROOT
BRANCH   1  14
ATOM     10  F   UNL     1       3.954   6.790  17.005  0.00  0.00    +0.000 F 
ATOM     11  C   UNL     1       3.116   7.321  17.905  0.00  0.00    +0.000 A 
ATOM     12  C   UNL     1       2.869   6.644  19.094  0.00  0.00    +0.000 A 
ATOM     13  C   UNL     1       2.039   7.219  20.057  0.00  0.00    +0.000 A 
ATOM     14  C   UNL     1       1.468   8.478  19.828  0.00  0.00    +0.000 A 
ATOM     15  C   UNL     1       1.690   9.128  18.604  0.00  0.00    +0.000 A 
ATOM     16  C   UNL     1       2.522   8.550  17.644  0.00  0.00    +0.000 A 
ENDBRANCH   1  14
BRANCH   6  17
ATOM     17  C   UNL     1      -3.051  13.270  23.065  0.00  0.00    +0.000 A 
ATOM     18  C   UNL     1      -2.685  14.201  24.051  0.00  0.00    +0.000 A 
ATOM     19  C   UNL     1      -3.552  15.241  24.414  0.00  0.00    +0.000 A 
ATOM     20  C   UNL     1      -4.790  15.359  23.789  0.00  0.00    +0.000 A 
ATOM     21 CL   UNL     1      -5.832  16.672  24.169  0.00  0.00    +0.000 Cl
ATOM     22  C   UNL     1      -5.192  14.412  22.855  0.00  0.00    +0.000 A 
ATOM     23  C   UNL     1      -4.340  13.354  22.528  0.00  0.00    +0.000 A 
ENDBRANCH   6  17
BRANCH   7  24
ATOM     24  C   UNL     1      -1.962  12.586  19.985  0.00  0.00    +0.000 C 
BRANCH  24  25
ATOM     25  N   UNL     1      -1.229  13.704  19.395  0.00  0.00    +0.000 NA
ATOM     26  C   UNL     1      -0.374  13.414  18.248  0.00  0.00    +0.000 C 
ATOM     27  C   UNL     1       1.056  13.026  18.642  0.00  0.00    +0.000 C 
ATOM     28  O   UNL     1       1.663  14.038  19.458  0.00  0.00    +0.000 OA
ATOM     29  C   UNL     1       0.881  14.291  20.636  0.00  0.00    +0.000 C 
ATOM     30  C   UNL     1      -0.567  14.663  20.282  0.00  0.00    +0.000 C 
ENDBRANCH  24  25
ENDBRANCH   7  24
TORSDOF 4
ENDMDL
MODEL 5
REMARK VINA RESULT:      -7.2      3.081      4.012
REMARK  Name = 
REMARK  4 active torsions:
REMARK  status: ('A' for Active; 'I' for Inactive)
REMARK    1  A    between atoms: C_5  and  C_6
REMARK    2  A    between atoms: C_11  and  C_12
REMARK    3  A    between atoms: C_19  and  C_20
REMARK    4  A    between atoms: C_20  and  N_21
REMARK                            x       y       z     vdW  Elec       q    Type
REMARK                         _______ _______ _______ _____ _____    ______ ____
ROOT
ATOM      1  C   UNL     1       0.813   9.143  20.823  0.00  0.00    +0.000 A 
ATOM      2  C   UNL     1       0.242   8.565  22.037  0.00  0.00    +0.000 A 
ATOM      3  C   UNL     1      -0.432   9.328  22.925  0.00  0.00    +0.000 A 
ATOM      4  C   UNL     1      -0.614  10.718  22.686  0.00  0.00    +0.000 A 
ATOM      5  N   UNL     1      -1.233  11.645  23.381  0.00  0.00    +0.000 NA
ATOM      6  C   UNL     1      -1.182  12.794  22.618  0.00  0.00    +0.000 A 
ATOM      7  C   UNL     1      -0.440  12.597  21.450  0.00  0.00    +0.000 A 
ATOM      8  N   UNL     1      -0.075  11.246  21.512  0.00  0.00    +0.000 N 
ATOM      9  C   UNL     1       0.640  10.463  20.605  0.00  0.00    +0.000 A 
ENDROOT
BRANCH   1  14
ATOM     10  F   UNL     1       4.024   6.571  17.050  0.00  0.00    +0.000 F 
ATOM     11  C   UNL     1       3.182   7.144  17.921  0.00  0.00    +0.000 A 
ATOM     12  C   UNL     1       2.915   6.514  19.132  0.00  0.00    +0.000 A 
ATOM     13  C   UNL     1       2.081   7.133  20.063  0.00  0.00    +0.000 A 
ATOM     14  C   UNL     1       1.526   8.389  19.781  0.00  0.00    +0.000 A 
ATOM     15  C   UNL     1       1.769   8.990  18.536  0.00  0.00    +0.000 A 
ATOM     16  C   UNL     1       2.605   8.368  17.608  0.00  0.00    +0.000 A 
ENDBRANCH   1  14
BRANCH   6  17
ATOM     17  C   UNL     1      -1.838  14.017  23.079  0.00  0.00    +0.000 A 
ATOM     18  C   UNL     1      -1.266  14.756  24.126  0.00  0.00    +0.000 A 
ATOM     19  C   UNL     1      -1.808  15.989  24.516  0.00  0.00    +0.000 A 
ATOM     20  C   UNL     1      -2.925  16.492  23.855  0.00  0.00    +0.000 A 
ATOM     21 CL   UNL     1      -3.554  18.036  24.271  0.00  0.00    +0.000 Cl
ATOM     22  C   UNL     1      -3.539  15.746  22.857  0.00  0.00    +0.000 A 
ATOM     23  C   UNL     1      -3.018  14.499  22.503  0.00  0.00    +0.000 A 
ENDBRANCH   6  17
BRANCH   7  24
ATOM     24  C   UNL     1      -0.181  13.443  20.238  0.00  0.00    +0.000 C 
BRANCH  24  25
ATOM     25  N   UNL     1       0.781  14.541  20.275  0.00  0.00    +0.000 NA
ATOM     26  C   UNL     1       1.345  14.981  19.003  0.00  0.00    +0.000 C 
ATOM     27  C   UNL     1       2.620  14.224  18.612  0.00  0.00    +0.000 C 
ATOM     28  O   UNL     1       3.614  14.315  19.642  0.00  0.00    +0.000 OA
ATOM     29  C   UNL     1       3.111  13.817  20.892  0.00  0.00    +0.000 C 
ATOM     30  C   UNL     1       1.820  14.538  21.307  0.00  0.00    +0.000 C 
ENDBRANCH  24  25
ENDBRANCH   7  24
TORSDOF 4
ENDMDL
MODEL 6
REMARK VINA RESULT:      -7.2      2.092      2.765
REMARK  Name = 
REMARK  4 active torsions:
REMARK  status: ('A' for Active; 'I' for Inactive)
REMARK    1  A    between atoms: C_5  and  C_6
REMARK    2  A    between atoms: C_11  and  C_12
REMARK    3  A    between atoms: C_19  and  C_20
REMARK    4  A    between atoms: C_20  and  N_21
REMARK                            x       y       z     vdW  Elec       q    Type
REMARK                         _______ _______ _______ _____ _____    ______ ____
ROOT
ATOM      1  C   UNL     1       0.857   8.958  20.792  0.00  0.00    +0.000 A 
ATOM      2  C   UNL     1       0.176   8.295  21.901  0.00  0.00    +0.000 A 
ATOM      3  C   UNL     1      -0.520   9.001  22.818  0.00  0.00    +0.000 A 
ATOM      4  C   UNL     1      -0.617  10.416  22.712  0.00  0.00    +0.000 A 
ATOM      5  N   UNL     1      -1.237  11.302  23.458  0.00  0.00    +0.000 NA
ATOM      6  C   UNL     1      -1.077  12.516  22.822  0.00  0.00    +0.000 A 
ATOM      7  C   UNL     1      -0.267  12.396  21.690  0.00  0.00    +0.000 A 
ATOM      8  N   UNL     1       0.026  11.027  21.635  0.00  0.00    +0.000 N 
ATOM      9  C   UNL     1       0.763  10.300  20.700  0.00  0.00    +0.000 A 
ENDROOT
BRANCH   1  14
ATOM     10  F   UNL     1       4.178   6.664  16.936  0.00  0.00    +0.000 F 
ATOM     11  C   UNL     1       3.313   7.169  17.825  0.00  0.00    +0.000 A 
ATOM     12  C   UNL     1       3.076   6.487  19.015  0.00  0.00    +0.000 A 
ATOM     13  C   UNL     1       2.216   7.035  19.966  0.00  0.00    +0.000 A 
ATOM     14  C   UNL     1       1.603   8.273  19.726  0.00  0.00    +0.000 A 
ATOM     15  C   UNL     1       1.816   8.926  18.502  0.00  0.00    +0.000 A 
ATOM     16  C   UNL     1       2.679   8.375  17.553  0.00  0.00    +0.000 A 
ENDBRANCH   1  14
BRANCH   6  17
ATOM     17  C   UNL     1      -1.704  13.722  23.364  0.00  0.00    +0.000 A 
ATOM     18  C   UNL     1      -3.093  13.747  23.567  0.00  0.00    +0.000 A 
ATOM     19  C   UNL     1      -3.709  14.843  24.187  0.00  0.00    +0.000 A 
ATOM     20  C   UNL     1      -2.937  15.920  24.612  0.00  0.00    +0.000 A 
ATOM     21 CL   UNL     1      -3.667  17.237  25.441  0.00  0.00    +0.000 Cl
ATOM     22  C   UNL     1      -1.569  15.939  24.365  0.00  0.00    +0.000 A 
ATOM     23  C   UNL     1      -0.969  14.861  23.709  0.00  0.00    +0.000 A 
ENDBRANCH   6  17
BRANCH   7  24
ATOM     24  C   UNL     1       0.115  13.342  20.590  0.00  0.00    +0.000 C 
BRANCH  24  25
ATOM     25  N   UNL     1      -0.810  13.650  19.503  0.00  0.00    +0.000 NA
ATOM     26  C   UNL     1      -2.231  13.719  19.832  0.00  0.00    +0.000 C 
ATOM     27  C   UNL     1      -2.947  12.370  19.710  0.00  0.00    +0.000 C 
ATOM     28  O   UNL     1      -2.778  11.808  18.401  0.00  0.00    +0.000 OA
ATOM     29  C   UNL     1      -1.387  11.655  18.080  0.00  0.00    +0.000 C 
ATOM     30  C   UNL     1      -0.629  12.985  18.210  0.00  0.00    +0.000 C 
ENDBRANCH  24  25
ENDBRANCH   7  24
TORSDOF 4
ENDMDL
MODEL 7
REMARK VINA RESULT:      -7.1      2.985      3.798
REMARK  Name = 
REMARK  4 active torsions:
REMARK  status: ('A' for Active; 'I' for Inactive)
REMARK    1  A    between atoms: C_5  and  C_6
REMARK    2  A    between atoms: C_11  and  C_12
REMARK    3  A    between atoms: C_19  and  C_20
REMARK    4  A    between atoms: C_20  and  N_21
REMARK                            x       y       z     vdW  Elec       q    Type
REMARK                         _______ _______ _______ _____ _____    ______ ____
ROOT
ATOM      1  C   UNL     1       0.817   9.144  20.774  0.00  0.00    +0.000 A 
ATOM      2  C   UNL     1       0.265   8.507  21.967  0.00  0.00    +0.000 A 
ATOM      3  C   UNL     1      -0.415   9.221  22.890  0.00  0.00    +0.000 A 
ATOM      4  C   UNL     1      -0.620  10.618  22.710  0.00  0.00    +0.000 A 
ATOM      5  N   UNL     1      -1.248  11.505  23.448  0.00  0.00    +0.000 NA
ATOM      6  C   UNL     1      -1.221  12.685  22.733  0.00  0.00    +0.000 A 
ATOM      7  C   UNL     1      -0.485  12.548  21.553  0.00  0.00    +0.000 A 
ATOM      8  N   UNL     1      -0.099  11.202  21.555  0.00  0.00    +0.000 N 
ATOM      9  C   UNL     1       0.622  10.469  20.612  0.00  0.00    +0.000 A 
ENDROOT
BRANCH   1  14
ATOM     10  F   UNL     1       4.037   6.790  16.868  0.00  0.00    +0.000 F 
ATOM     11  C   UNL     1       3.194   7.310  17.771  0.00  0.00    +0.000 A 
ATOM     12  C   UNL     1       2.969   6.635  18.967  0.00  0.00    +0.000 A 
ATOM     13  C   UNL     1       2.133   7.199  19.931  0.00  0.00    +0.000 A 
ATOM     14  C   UNL     1       1.534   8.445  19.698  0.00  0.00    +0.000 A 
ATOM     15  C   UNL     1       1.735   9.091  18.468  0.00  0.00    +0.000 A 
ATOM     16  C   UNL     1       2.573   8.524  17.506  0.00  0.00    +0.000 A 
ENDBRANCH   1  14
BRANCH   6  17
ATOM     17  C   UNL     1      -1.893  13.877  23.248  0.00  0.00    +0.000 A 
ATOM     18  C   UNL     1      -3.215  14.148  22.859  0.00  0.00    +0.000 A 
ATOM     19  C   UNL     1      -3.924  15.219  23.421  0.00  0.00    +0.000 A 
ATOM     20  C   UNL     1      -3.315  16.023  24.379  0.00  0.00    +0.000 A 
ATOM     21 CL   UNL     1      -4.197  17.293  25.132  0.00  0.00    +0.000 Cl
ATOM     22  C   UNL     1      -1.989  15.807  24.732  0.00  0.00    +0.000 A 
ATOM     23  C   UNL     1      -1.275  14.763  24.137  0.00  0.00    +0.000 A 
ENDBRANCH   6  17
BRANCH   7  24
ATOM     24  C   UNL     1      -0.248  13.447  20.374  0.00  0.00    +0.000 C 
BRANCH  24  25
ATOM     25  N   UNL     1       0.227  14.817  20.553  0.00  0.00    +0.000 NA
ATOM     26  C   UNL     1      -0.633  15.893  20.072  0.00  0.00    +0.000 C 
ATOM     27  C   UNL     1      -0.369  16.271  18.610  0.00  0.00    +0.000 C 
ATOM     28  O   UNL     1       1.007  16.619  18.403  0.00  0.00    +0.000 OA
ATOM     29  C   UNL     1       1.877  15.546  18.797  0.00  0.00    +0.000 C 
ATOM     30  C   UNL     1       1.628  15.124  20.253  0.00  0.00    +0.000 C 
ENDBRANCH  24  25
ENDBRANCH   7  24
TORSDOF 4
ENDMDL
MODEL 8
REMARK VINA RESULT:      -7.1      2.958      4.247
REMARK  Name = 
REMARK  4 active torsions:
REMARK  status: ('A' for Active; 'I' for Inactive)
REMARK    1  A    between atoms: C_5  and  C_6
REMARK    2  A    between atoms: C_11  and  C_12
REMARK    3  A    between atoms: C_19  and  C_20
REMARK    4  A    between atoms: C_20  and  N_21
REMARK                            x       y       z     vdW  Elec       q    Type
REMARK                         _______ _______ _______ _____ _____    ______ ____
ROOT
ATOM      1  C   UNL     1       2.759   6.702  19.000  0.00  0.00    +0.000 A 
ATOM      2  C   UNL     1       2.135   5.885  20.038  0.00  0.00    +0.000 A 
ATOM      3  C   UNL     1       1.255   6.417  20.913  0.00  0.00    +0.000 A 
ATOM      4  C   UNL     1       0.905   7.794  20.833  0.00  0.00    +0.000 A 
ATOM      5  N   UNL     1       0.079   8.523  21.549  0.00  0.00    +0.000 NA
ATOM      6  C   UNL     1       0.056   9.768  20.955  0.00  0.00    +0.000 A 
ATOM      7  C   UNL     1       0.954   9.840  19.887  0.00  0.00    +0.000 A 
ATOM      8  N   UNL     1       1.500   8.552  19.824  0.00  0.00    +0.000 N 
ATOM      9  C   UNL     1       2.424   8.007  18.932  0.00  0.00    +0.000 A 
ENDROOT
BRANCH   1  14
ATOM     10  F   UNL     1       5.831   4.793  14.749  0.00  0.00    +0.000 F 
ATOM     11  C   UNL     1       5.168   5.248  15.820  0.00  0.00    +0.000 A 
ATOM     12  C   UNL     1       5.111   6.618  16.059  0.00  0.00    +0.000 A 
ATOM     13  C   UNL     1       4.378   7.099  17.144  0.00  0.00    +0.000 A 
ATOM     14  C   UNL     1       3.694   6.206  17.980  0.00  0.00    +0.000 A 
ATOM     15  C   UNL     1       3.799   4.825  17.752  0.00  0.00    +0.000 A 
ATOM     16  C   UNL     1       4.533   4.347  16.665  0.00  0.00    +0.000 A 
ENDBRANCH   1  14
BRANCH   6  17
ATOM     17  C   UNL     1      -0.821  10.817  21.473  0.00  0.00    +0.000 A 
ATOM     18  C   UNL     1      -1.544  11.620  20.576  0.00  0.00    +0.000 A 
ATOM     19  C   UNL     1      -2.475  12.558  21.041  0.00  0.00    +0.000 A 
ATOM     20  C   UNL     1      -2.694  12.695  22.409  0.00  0.00    +0.000 A 
ATOM     21 CL   UNL     1      -3.888  13.787  22.990  0.00  0.00    +0.000 Cl
ATOM     22  C   UNL     1      -1.946  11.951  23.313  0.00  0.00    +0.000 A 
ATOM     23  C   UNL     1      -0.988  11.048  22.843  0.00  0.00    +0.000 A 
ENDBRANCH   6  17
BRANCH   7  24
ATOM     24  C   UNL     1       1.232  10.881  18.842  0.00  0.00    +0.000 C 
BRANCH  24  25
ATOM     25  N   UNL     1       2.158  11.981  19.100  0.00  0.00    +0.000 NA
ATOM     26  C   UNL     1       2.069  12.641  20.399  0.00  0.00    +0.000 C 
ATOM     27  C   UNL     1       1.082  13.814  20.416  0.00  0.00    +0.000 C 
ATOM     28  O   UNL     1       1.402  14.777  19.402  0.00  0.00    +0.000 OA
ATOM     29  C   UNL     1       1.422  14.171  18.100  0.00  0.00    +0.000 C 
ATOM     30  C   UNL     1       2.386  12.976  18.050  0.00  0.00    +0.000 C 
ENDBRANCH  24  25
ENDBRANCH   7  24
TORSDOF 4
ENDMDL
MODEL 9
REMARK VINA RESULT:      -7.1      3.165      4.095
REMARK  Name = 
REMARK  4 active torsions:
REMARK  status: ('A' for Active; 'I' for Inactive)
REMARK    1  A    between atoms: C_5  and  C_6
REMARK    2  A    between atoms: C_11  and  C_12
REMARK    3  A    between atoms: C_19  and  C_20
REMARK    4  A    between atoms: C_20  and  N_21
REMARK                            x       y       z     vdW  Elec       q    Type
REMARK                         _______ _______ _______ _____ _____    ______ ____
ROOT
ATOM      1  C   UNL     1       0.805   9.101  20.771  0.00  0.00    +0.000 A 
ATOM      2  C   UNL     1       0.211   8.455  21.939  0.00  0.00    +0.000 A 
ATOM      3  C   UNL     1      -0.483   9.165  22.854  0.00  0.00    +0.000 A 
ATOM      4  C   UNL     1      -0.664  10.566  22.689  0.00  0.00    +0.000 A 
ATOM      5  N   UNL     1      -1.300  11.452  23.423  0.00  0.00    +0.000 NA
ATOM      6  C   UNL     1      -1.237  12.641  22.726  0.00  0.00    +0.000 A 
ATOM      7  C   UNL     1      -0.471  12.511  21.564  0.00  0.00    +0.000 A 
ATOM      8  N   UNL     1      -0.104  11.160  21.558  0.00  0.00    +0.000 N 
ATOM      9  C   UNL     1       0.632  10.430  20.623  0.00  0.00    +0.000 A 
ENDROOT
BRANCH   1  14
ATOM     10  F   UNL     1       4.097   6.761  16.918  0.00  0.00    +0.000 F 
ATOM     11  C   UNL     1       3.237   7.279  17.805  0.00  0.00    +0.000 A 
ATOM     12  C   UNL     1       2.975   6.592  18.986  0.00  0.00    +0.000 A 
ATOM     13  C   UNL     1       2.121   7.153  19.936  0.00  0.00    +0.000 A 
ATOM     14  C   UNL     1       1.541   8.408  19.704  0.00  0.00    +0.000 A 
ATOM     15  C   UNL     1       1.780   9.066  18.488  0.00  0.00    +0.000 A 
ATOM     16  C   UNL     1       2.636   8.503  17.540  0.00  0.00    +0.000 A 
ENDBRANCH   1  14
BRANCH   6  17
ATOM     17  C   UNL     1      -1.907  13.835  23.241  0.00  0.00    +0.000 A 
ATOM     18  C   UNL     1      -3.254  14.065  22.919  0.00  0.00    +0.000 A 
ATOM     19  C   UNL     1      -3.955  15.139  23.485  0.00  0.00    +0.000 A 
ATOM     20  C   UNL     1      -3.313  15.987  24.382  0.00  0.00    +0.000 A 
ATOM     21 CL   UNL     1      -4.181  17.261  25.143  0.00  0.00    +0.000 Cl
ATOM     22  C   UNL     1      -1.965  15.810  24.666  0.00  0.00    +0.000 A 
ATOM     23  C   UNL     1      -1.261  14.762  24.065  0.00  0.00    +0.000 A 
ENDBRANCH   6  17
BRANCH   7  24
ATOM     24  C   UNL     1      -0.191  13.424  20.406  0.00  0.00    +0.000 C 
BRANCH  24  25
ATOM     25  N   UNL     1       1.125  14.031  20.225  0.00  0.00    +0.000 NA
ATOM     26  C   UNL     1       1.854  14.421  21.428  0.00  0.00    +0.000 C 
ATOM     27  C   UNL     1       1.547  15.851  21.886  0.00  0.00    +0.000 C 
ATOM     28  O   UNL     1       1.798  16.797  20.838  0.00  0.00    +0.000 OA
ATOM     29  C   UNL     1       1.033  16.484  19.664  0.00  0.00    +0.000 C 
ATOM     30  C   UNL     1       1.299  15.048  19.185  0.00  0.00    +0.000 C 
ENDBRANCH  24  25
ENDBRANCH   7  24
TORSDOF 4
ENDMDL
