MODEL 1
REMARK VINA RESULT:      -6.9      0.000      0.000
REMARK  Name = 
REMARK  13 active torsions:
REMARK  status: ('A' for Active; 'I' for Inactive)
REMARK    1  A    between atoms: C_1  and  C_2
REMARK    2  A    between atoms: C_2  and  C_3
REMARK    3  A    between atoms: C_3  and  C_4
REMARK    4  A    between atoms: C_4  and  C_5
REMARK    5  A    between atoms: C_5  and  C_6
REMARK    6  A    between atoms: C_6  and  N_7
REMARK    7  A    between atoms: N_7  and  C_8
REMARK    8  A    between atoms: C_8  and  C_9
REMARK    9  A    between atoms: C_9  and  C_10
REMARK   10  A    between atoms: N_17  and  C_18
REMARK   11  A    between atoms: C_18  and  C_19
REMARK   12  A    between atoms: C_19  and  C_20
REMARK   13  A    between atoms: C_20  and  C_21
REMARK                            x       y       z     vdW  Elec       q    Type
REMARK                         _______ _______ _______ _____ _____    ______ ____
ROOT
ATOM      1  C   UNL     1       2.425   4.519  20.044  0.00  0.00    +0.000 C 
ATOM      2  C   UNL     1       3.310   4.191  19.058  0.00  0.00    +0.000 C 
ATOM      3  C   UNL     1       3.199   3.031  18.136  0.00  0.00    +0.000 C 
ATOM      4  O   UNL     1       2.175   2.377  17.940  0.00  0.00    +0.000 OA
ATOM      5  N   UNL     1       4.317   2.794  17.394  0.00  0.00    +0.000 N 
ATOM      6  C   UNL     1       4.961   3.837  16.801  0.00  0.00    +0.000 C 
ATOM      7  O   UNL     1       5.374   3.718  15.656  0.00  0.00    +0.000 OA
ATOM      8  N   UNL     1       5.055   4.993  17.563  0.00  0.00    +0.000 N 
ATOM      9  C   UNL     1       4.532   5.036  18.844  0.00  0.00    +0.000 C 
ATOM     10  O   UNL     1       5.067   5.692  19.742  0.00  0.00    +0.000 OA
ATOM     11  H   UNL     1       4.212   2.016  16.753  0.00  0.00    +0.000 HD
ENDROOT
BRANCH   1  12
ATOM     12  N   UNL     1       2.460   5.744  20.748  0.00  0.00    +0.000 N 
ATOM     13  H   UNL     1       2.822   5.631  21.693  0.00  0.00    +0.000 HD
BRANCH  12  14
ATOM     14  C   UNL     1       1.361   6.723  20.703  0.00  0.00    +0.000 C 
BRANCH  14  15
ATOM     15  C   UNL     1       1.858   8.051  20.112  0.00  0.00    +0.000 C 
BRANCH  15  16
ATOM     16  C   UNL     1       2.230   7.896  18.639  0.00  0.00    +0.000 C 
BRANCH  16  17
ATOM     17  C   UNL     1       2.014   9.192  17.848  0.00  0.00    +0.000 C 
BRANCH  17  19
ATOM     18  C   UNL     1      -0.381   9.975  18.012  0.00  0.00    +0.000 C 
ATOM     19  C   UNL     1       1.028  10.115  18.565  0.00  0.00    +0.000 C 
ENDBRANCH  17  19
ENDBRANCH  16  17
ENDBRANCH  15  16
ENDBRANCH  14  15
ENDBRANCH  12  14
ENDBRANCH   1  12
BRANCH   1  20
ATOM     20  C   UNL     1       1.217   3.661  20.475  0.00  0.00    +0.000 C 
ATOM     21  C   UNL     1       1.442   2.665  21.617  0.00  0.00    +0.000 C 
ENDBRANCH   1  20
BRANCH   8  22
ATOM     22  C   UNL     1       6.003   6.038  17.193  0.00  0.00    +0.000 C 
BRANCH  22  23
ATOM     23  C   UNL     1       7.428   5.797  17.678  0.00  0.00    +0.000 C 
BRANCH  23  24
ATOM     24  C   UNL     1       8.033   6.973  18.443  0.00  0.00    +0.000 C 
ATOM     25  C   UNL     1       7.773   8.258  17.671  0.00  0.00    +0.000 C 
ENDBRANCH  23  24
ENDBRANCH  22  23
ENDBRANCH   8  22
TORSDOF 10
ENDMDL
MODEL 2
REMARK VINA RESULT:      -6.7      0.915      1.129
REMARK  Name = 
REMARK  13 active torsions:
REMARK  status: ('A' for Active; 'I' for Inactive)
REMARK    1  A    between atoms: C_1  and  C_2
REMARK    2  A    between atoms: C_2  and  C_3
REMARK    3  A    between atoms: C_3  and  C_4
REMARK    4  A    between atoms: C_4  and  C_5
REMARK    5  A    between atoms: C_5  and  C_6
REMARK    6  A    between atoms: C_6  and  N_7
REMARK    7  A    between atoms: N_7  and  C_8
REMARK    8  A    between atoms: C_8  and  C_9
REMARK    9  A    between atoms: C_9  and  C_10
REMARK   10  A    between atoms: N_17  and  C_18
REMARK   11  A    between atoms: C_18  and  C_19
REMARK   12  A    between atoms: C_19  and  C_20
REMARK   13  A    between atoms: C_20  and  C_21
REMARK                            x       y       z     vdW  Elec       q    Type
REMARK                         _______ _______ _______ _____ _____    ______ ____
ROOT
ATOM      1  C   UNL     1       2.790   4.950  19.232  0.00  0.00    +0.000 C 
ATOM      2  C   UNL     1       3.757   4.442  18.414  0.00  0.00    +0.000 C 
ATOM      3  C   UNL     1       3.557   3.419  17.354  0.00  0.00    +0.000 C 
ATOM      4  O   UNL     1       2.468   3.099  16.876  0.00  0.00    +0.000 OA
ATOM      5  N   UNL     1       4.711   2.916  16.832  0.00  0.00    +0.000 N 
ATOM      6  C   UNL     1       5.727   3.765  16.513  0.00  0.00    +0.000 C 
ATOM      7  O   UNL     1       6.344   3.601  15.470  0.00  0.00    +0.000 OA
ATOM      8  N   UNL     1       5.948   4.798  17.413  0.00  0.00    +0.000 N 
ATOM      9  C   UNL     1       5.175   4.913  18.557  0.00  0.00    +0.000 C 
ATOM     10  O   UNL     1       5.645   5.334  19.617  0.00  0.00    +0.000 OA
ATOM     11  H   UNL     1       4.552   2.241  16.093  0.00  0.00    +0.000 HD
ENDROOT
BRANCH   1  12
ATOM     12  N   UNL     1       2.987   6.069  20.071  0.00  0.00    +0.000 N 
ATOM     13  H   UNL     1       2.988   5.812  21.057  0.00  0.00    +0.000 HD
BRANCH  12  14
ATOM     14  C   UNL     1       2.318   7.362  19.850  0.00  0.00    +0.000 C 
BRANCH  14  15
ATOM     15  C   UNL     1       2.745   7.956  18.500  0.00  0.00    +0.000 C 
BRANCH  15  16
ATOM     16  C   UNL     1       1.563   8.606  17.783  0.00  0.00    +0.000 C 
BRANCH  16  17
ATOM     17  C   UNL     1       1.332  10.052  18.243  0.00  0.00    +0.000 C 
BRANCH  17  19
ATOM     18  C   UNL     1      -1.176  10.219  18.000  0.00  0.00    +0.000 C 
ATOM     19  C   UNL     1      -0.006  10.190  18.970  0.00  0.00    +0.000 C 
ENDBRANCH  17  19
ENDBRANCH  16  17
ENDBRANCH  15  16
ENDBRANCH  14  15
ENDBRANCH  12  14
ENDBRANCH   1  12
BRANCH   1  20
ATOM     20  C   UNL     1       1.333   4.449  19.300  0.00  0.00    +0.000 C 
ATOM     21  C   UNL     1       0.990   3.451  20.412  0.00  0.00    +0.000 C 
ENDBRANCH   1  20
BRANCH   8  22
ATOM     22  C   UNL     1       7.198   5.548  17.373  0.00  0.00    +0.000 C 
BRANCH  22  23
ATOM     23  C   UNL     1       7.024   7.063  17.367  0.00  0.00    +0.000 C 
BRANCH  23  24
ATOM     24  C   UNL     1       8.078   7.814  18.179  0.00  0.00    +0.000 C 
ATOM     25  C   UNL     1       8.043   9.287  17.800  0.00  0.00    +0.000 C 
ENDBRANCH  23  24
ENDBRANCH  22  23
ENDBRANCH   8  22
TORSDOF 10
ENDMDL
MODEL 3
REMARK VINA RESULT:      -6.6      2.717      6.827
REMARK  Name = 
REMARK  13 active torsions:
REMARK  status: ('A' for Active; 'I' for Inactive)
REMARK    1  A    between atoms: C_1  and  C_2
REMARK    2  A    between atoms: C_2  and  C_3
REMARK    3  A    between atoms: C_3  and  C_4
REMARK    4  A    between atoms: C_4  and  C_5
REMARK    5  A    between atoms: C_5  and  C_6
REMARK    6  A    between atoms: C_6  and  N_7
REMARK    7  A    between atoms: N_7  and  C_8
REMARK    8  A    between atoms: C_8  and  C_9
REMARK    9  A    between atoms: C_9  and  C_10
REMARK   10  A    between atoms: N_17  and  C_18
REMARK   11  A    between atoms: C_18  and  C_19
REMARK   12  A    between atoms: C_19  and  C_20
REMARK   13  A    between atoms: C_20  and  C_21
REMARK                            x       y       z     vdW  Elec       q    Type
REMARK                         _______ _______ _______ _____ _____    ______ ____
ROOT
ATOM      1  C   UNL     1       5.460   5.483  17.626  0.00  0.00    +0.000 C 
ATOM      2  C   UNL     1       4.503   5.454  18.598  0.00  0.00    +0.000 C 
ATOM      3  C   UNL     1       3.560   6.553  18.928  0.00  0.00    +0.000 C 
ATOM      4  O   UNL     1       3.316   7.518  18.204  0.00  0.00    +0.000 OA
ATOM      5  N   UNL     1       2.857   6.365  20.081  0.00  0.00    +0.000 N 
ATOM      6  C   UNL     1       2.305   5.147  20.336  0.00  0.00    +0.000 C 
ATOM      7  O   UNL     1       1.174   5.083  20.798  0.00  0.00    +0.000 OA
ATOM      8  N   UNL     1       3.087   4.052  19.997  0.00  0.00    +0.000 N 
ATOM      9  C   UNL     1       4.349   4.229  19.452  0.00  0.00    +0.000 C 
ATOM     10  O   UNL     1       5.276   3.453  19.697  0.00  0.00    +0.000 OA
ATOM     11  H   UNL     1       2.201   7.112  20.274  0.00  0.00    +0.000 HD
ENDROOT
BRANCH   1  12
ATOM     12  N   UNL     1       6.183   4.343  17.208  0.00  0.00    +0.000 N 
ATOM     13  H   UNL     1       7.190   4.489  17.260  0.00  0.00    +0.000 HD
BRANCH  12  14
ATOM     14  C   UNL     1       5.813   3.550  16.024  0.00  0.00    +0.000 C 
BRANCH  14  15
ATOM     15  C   UNL     1       6.527   4.093  14.777  0.00  0.00    +0.000 C 
BRANCH  15  16
ATOM     16  C   UNL     1       5.636   3.990  13.541  0.00  0.00    +0.000 C 
BRANCH  16  17
ATOM     17  C   UNL     1       6.391   3.429  12.329  0.00  0.00    +0.000 C 
BRANCH  17  19
ATOM     18  C   UNL     1       6.435   1.244  11.065  0.00  0.00    +0.000 C 
ATOM     19  C   UNL     1       5.563   2.361  11.613  0.00  0.00    +0.000 C 
ENDBRANCH  17  19
ENDBRANCH  16  17
ENDBRANCH  15  16
ENDBRANCH  14  15
ENDBRANCH  12  14
ENDBRANCH   1  12
BRANCH   1  20
ATOM     20  C   UNL     1       5.832   6.720  16.783  0.00  0.00    +0.000 C 
ATOM     21  C   UNL     1       7.058   7.524  17.227  0.00  0.00    +0.000 C 
ENDBRANCH   1  20
BRANCH   8  22
ATOM     22  C   UNL     1       2.769   2.732  20.529  0.00  0.00    +0.000 C 
BRANCH  22  23
ATOM     23  C   UNL     1       2.066   1.807  19.543  0.00  0.00    +0.000 C 
BRANCH  23  24
ATOM     24  C   UNL     1       1.559   2.508  18.283  0.00  0.00    +0.000 C 
ATOM     25  C   UNL     1       2.569   2.313  17.163  0.00  0.00    +0.000 C 
ENDBRANCH  23  24
ENDBRANCH  22  23
ENDBRANCH   8  22
TORSDOF 10
ENDMDL
MODEL 4
REMARK VINA RESULT:      -6.6      1.465      1.834
REMARK  Name = 
REMARK  13 active torsions:
REMARK  status: ('A' for Active; 'I' for Inactive)
REMARK    1  A    between atoms: C_1  and  C_2
REMARK    2  A    between atoms: C_2  and  C_3
REMARK    3  A    between atoms: C_3  and  C_4
REMARK    4  A    between atoms: C_4  and  C_5
REMARK    5  A    between atoms: C_5  and  C_6
REMARK    6  A    between atoms: C_6  and  N_7
REMARK    7  A    between atoms: N_7  and  C_8
REMARK    8  A    between atoms: C_8  and  C_9
REMARK    9  A    between atoms: C_9  and  C_10
REMARK   10  A    between atoms: N_17  and  C_18
REMARK   11  A    between atoms: C_18  and  C_19
REMARK   12  A    between atoms: C_19  and  C_20
REMARK   13  A    between atoms: C_20  and  C_21
REMARK                            x       y       z     vdW  Elec       q    Type
REMARK                         _______ _______ _______ _____ _____    ______ ____
ROOT
ATOM      1  C   UNL     1       2.383   4.524  20.033  0.00  0.00    +0.000 C 
ATOM      2  C   UNL     1       3.230   4.300  18.987  0.00  0.00    +0.000 C 
ATOM      3  C   UNL     1       3.133   3.188  18.007  0.00  0.00    +0.000 C 
ATOM      4  O   UNL     1       2.135   2.490  17.824  0.00  0.00    +0.000 OA
ATOM      5  N   UNL     1       4.221   3.054  17.198  0.00  0.00    +0.000 N 
ATOM      6  C   UNL     1       4.777   4.162  16.634  0.00  0.00    +0.000 C 
ATOM      7  O   UNL     1       5.135   4.128  15.466  0.00  0.00    +0.000 OA
ATOM      8  N   UNL     1       4.850   5.278  17.456  0.00  0.00    +0.000 N 
ATOM      9  C   UNL     1       4.393   5.223  18.762  0.00  0.00    +0.000 C 
ATOM     10  O   UNL     1       4.939   5.857  19.668  0.00  0.00    +0.000 OA
ATOM     11  H   UNL     1       4.124   2.307  16.520  0.00  0.00    +0.000 HD
ENDROOT
BRANCH   1  12
ATOM     12  N   UNL     1       2.389   5.709  20.803  0.00  0.00    +0.000 N 
ATOM     13  H   UNL     1       2.842   5.575  21.706  0.00  0.00    +0.000 HD
BRANCH  12  14
ATOM     14  C   UNL     1       1.223   6.600  20.910  0.00  0.00    +0.000 C 
BRANCH  14  15
ATOM     15  C   UNL     1       1.627   8.045  20.583  0.00  0.00    +0.000 C 
BRANCH  15  16
ATOM     16  C   UNL     1       0.545   9.033  21.016  0.00  0.00    +0.000 C 
BRANCH  16  17
ATOM     17  C   UNL     1       0.168   8.867  22.494  0.00  0.00    +0.000 C 
BRANCH  17  19
ATOM     18  C   UNL     1      -0.549  11.251  22.069  0.00  0.00    +0.000 C 
ATOM     19  C   UNL     1      -0.686  10.040  22.978  0.00  0.00    +0.000 C 
ENDBRANCH  17  19
ENDBRANCH  16  17
ENDBRANCH  15  16
ENDBRANCH  14  15
ENDBRANCH  12  14
ENDBRANCH   1  12
BRANCH   1  20
ATOM     20  C   UNL     1       1.246   3.578  20.473  0.00  0.00    +0.000 C 
ATOM     21  C   UNL     1       1.535   2.642  21.651  0.00  0.00    +0.000 C 
ENDBRANCH   1  20
BRANCH   8  22
ATOM     22  C   UNL     1       5.721   6.393  17.100  0.00  0.00    +0.000 C 
BRANCH  22  23
ATOM     23  C   UNL     1       7.210   6.098  17.236  0.00  0.00    +0.000 C 
BRANCH  23  24
ATOM     24  C   UNL     1       7.915   6.931  18.306  0.00  0.00    +0.000 C 
ATOM     25  C   UNL     1       8.034   8.368  17.822  0.00  0.00    +0.000 C 
ENDBRANCH  23  24
ENDBRANCH  22  23
ENDBRANCH   8  22
TORSDOF 10
ENDMDL
MODEL 5
REMARK VINA RESULT:      -6.5      2.481      6.570
REMARK  Name = 
REMARK  13 active torsions:
REMARK  status: ('A' for Active; 'I' for Inactive)
REMARK    1  A    between atoms: C_1  and  C_2
REMARK    2  A    between atoms: C_2  and  C_3
REMARK    3  A    between atoms: C_3  and  C_4
REMARK    4  A    between atoms: C_4  and  C_5
REMARK    5  A    between atoms: C_5  and  C_6
REMARK    6  A    between atoms: C_6  and  N_7
REMARK    7  A    between atoms: N_7  and  C_8
REMARK    8  A    between atoms: C_8  and  C_9
REMARK    9  A    between atoms: C_9  and  C_10
REMARK   10  A    between atoms: N_17  and  C_18
REMARK   11  A    between atoms: C_18  and  C_19
REMARK   12  A    between atoms: C_19  and  C_20
REMARK   13  A    between atoms: C_20  and  C_21
REMARK                            x       y       z     vdW  Elec       q    Type
REMARK                         _______ _______ _______ _____ _____    ______ ____
ROOT
ATOM      1  C   UNL     1       6.078   5.994  17.624  0.00  0.00    +0.000 C 
ATOM      2  C   UNL     1       4.799   5.667  17.972  0.00  0.00    +0.000 C 
ATOM      3  C   UNL     1       3.618   6.565  17.902  0.00  0.00    +0.000 C 
ATOM      4  O   UNL     1       3.565   7.618  17.266  0.00  0.00    +0.000 OA
ATOM      5  N   UNL     1       2.503   6.077  18.514  0.00  0.00    +0.000 N 
ATOM      6  C   UNL     1       2.147   4.777  18.319  0.00  0.00    +0.000 C 
ATOM      7  O   UNL     1       0.971   4.495  18.139  0.00  0.00    +0.000 OA
ATOM      8  N   UNL     1       3.194   3.867  18.300  0.00  0.00    +0.000 N 
ATOM      9  C   UNL     1       4.499   4.290  18.489  0.00  0.00    +0.000 C 
ATOM     10  O   UNL     1       5.329   3.593  19.079  0.00  0.00    +0.000 OA
ATOM     11  H   UNL     1       1.702   6.692  18.432  0.00  0.00    +0.000 HD
ENDROOT
BRANCH   1  12
ATOM     12  N   UNL     1       7.120   5.048  17.503  0.00  0.00    +0.000 N 
ATOM     13  H   UNL     1       7.930   5.298  18.069  0.00  0.00    +0.000 HD
BRANCH  12  14
ATOM     14  C   UNL     1       7.522   4.461  16.214  0.00  0.00    +0.000 C 
BRANCH  14  15
ATOM     15  C   UNL     1       6.307   3.836  15.514  0.00  0.00    +0.000 C 
BRANCH  15  16
ATOM     16  C   UNL     1       5.983   4.565  14.211  0.00  0.00    +0.000 C 
BRANCH  16  17
ATOM     17  C   UNL     1       6.503   3.809  12.981  0.00  0.00    +0.000 C 
BRANCH  17  19
ATOM     18  C   UNL     1       5.735   1.966  11.437  0.00  0.00    +0.000 C 
ATOM     19  C   UNL     1       5.347   3.249  12.152  0.00  0.00    +0.000 C 
ENDBRANCH  17  19
ENDBRANCH  16  17
ENDBRANCH  15  16
ENDBRANCH  14  15
ENDBRANCH  12  14
ENDBRANCH   1  12
BRANCH   1  20
ATOM     20  C   UNL     1       6.556   7.407  17.226  0.00  0.00    +0.000 C 
ATOM     21  C   UNL     1       7.881   7.888  17.826  0.00  0.00    +0.000 C 
ENDBRANCH   1  20
BRANCH   8  22
ATOM     22  C   UNL     1       2.927   2.441  18.449  0.00  0.00    +0.000 C 
BRANCH  22  23
ATOM     23  C   UNL     1       2.084   2.081  19.667  0.00  0.00    +0.000 C 
BRANCH  23  24
ATOM     24  C   UNL     1       2.780   2.332  21.004  0.00  0.00    +0.000 C 
ATOM     25  C   UNL     1       2.015   3.398  21.773  0.00  0.00    +0.000 C 
ENDBRANCH  23  24
ENDBRANCH  22  23
ENDBRANCH   8  22
TORSDOF 10
ENDMDL
MODEL 6
REMARK VINA RESULT:      -6.5      2.474      4.616
REMARK  Name = 
REMARK  13 active torsions:
REMARK  status: ('A' for Active; 'I' for Inactive)
REMARK    1  A    between atoms: C_1  and  C_2
REMARK    2  A    between atoms: C_2  and  C_3
REMARK    3  A    between atoms: C_3  and  C_4
REMARK    4  A    between atoms: C_4  and  C_5
REMARK    5  A    between atoms: C_5  and  C_6
REMARK    6  A    between atoms: C_6  and  N_7
REMARK    7  A    between atoms: N_7  and  C_8
REMARK    8  A    between atoms: C_8  and  C_9
REMARK    9  A    between atoms: C_9  and  C_10
REMARK   10  A    between atoms: N_17  and  C_18
REMARK   11  A    between atoms: C_18  and  C_19
REMARK   12  A    between atoms: C_19  and  C_20
REMARK   13  A    between atoms: C_20  and  C_21
REMARK                            x       y       z     vdW  Elec       q    Type
REMARK                         _______ _______ _______ _____ _____    ______ ____
ROOT
ATOM      1  C   UNL     1       4.593   3.139  18.837  0.00  0.00    +0.000 C 
ATOM      2  C   UNL     1       5.211   4.197  18.236  0.00  0.00    +0.000 C 
ATOM      3  C   UNL     1       6.138   5.155  18.892  0.00  0.00    +0.000 C 
ATOM      4  O   UNL     1       6.696   4.973  19.974  0.00  0.00    +0.000 OA
ATOM      5  N   UNL     1       6.443   6.248  18.138  0.00  0.00    +0.000 N 
ATOM      6  C   UNL     1       6.748   6.089  16.820  0.00  0.00    +0.000 C 
ATOM      7  O   UNL     1       7.676   6.721  16.336  0.00  0.00    +0.000 OA
ATOM      8  N   UNL     1       5.978   5.160  16.136  0.00  0.00    +0.000 N 
ATOM      9  C   UNL     1       4.962   4.474  16.782  0.00  0.00    +0.000 C 
ATOM     10  O   UNL     1       3.920   4.160  16.202  0.00  0.00    +0.000 OA
ATOM     11  H   UNL     1       7.096   6.876  18.592  0.00  0.00    +0.000 HD
ENDROOT
BRANCH   1  12
ATOM     12  N   UNL     1       3.897   2.135  18.127  0.00  0.00    +0.000 N 
ATOM     13  H   UNL     1       4.418   1.812  17.314  0.00  0.00    +0.000 HD
BRANCH  12  14
ATOM     14  C   UNL     1       2.453   2.206  17.851  0.00  0.00    +0.000 C 
BRANCH  14  15
ATOM     15  C   UNL     1       1.654   2.011  19.148  0.00  0.00    +0.000 C 
BRANCH  15  16
ATOM     16  C   UNL     1       0.871   3.271  19.511  0.00  0.00    +0.000 C 
BRANCH  16  17
ATOM     17  C   UNL     1       1.331   3.876  20.843  0.00  0.00    +0.000 C 
BRANCH  17  19
ATOM     18  C   UNL     1       2.103   5.652  19.223  0.00  0.00    +0.000 C 
ATOM     19  C   UNL     1       1.753   5.335  20.668  0.00  0.00    +0.000 C 
ENDBRANCH  17  19
ENDBRANCH  16  17
ENDBRANCH  15  16
ENDBRANCH  14  15
ENDBRANCH  12  14
ENDBRANCH   1  12
BRANCH   1  20
ATOM     20  C   UNL     1       4.635   2.828  20.348  0.00  0.00    +0.000 C 
ATOM     21  C   UNL     1       5.008   1.399  20.756  0.00  0.00    +0.000 C 
ENDBRANCH   1  20
BRANCH   8  22
ATOM     22  C   UNL     1       5.967   5.150  14.677  0.00  0.00    +0.000 C 
BRANCH  22  23
ATOM     23  C   UNL     1       6.413   3.833  14.053  0.00  0.00    +0.000 C 
BRANCH  23  24
ATOM     24  C   UNL     1       5.800   3.555  12.681  0.00  0.00    +0.000 C 
ATOM     25  C   UNL     1       6.915   3.285  11.682  0.00  0.00    +0.000 C 
ENDBRANCH  23  24
ENDBRANCH  22  23
ENDBRANCH   8  22
TORSDOF 10
ENDMDL
MODEL 7
REMARK VINA RESULT:      -6.5      2.550      4.659
REMARK  Name = 
REMARK  13 active torsions:
REMARK  status: ('A' for Active; 'I' for Inactive)
REMARK    1  A    between atoms: C_1  and  C_2
REMARK    2  A    between atoms: C_2  and  C_3
REMARK    3  A    between atoms: C_3  and  C_4
REMARK    4  A    between atoms: C_4  and  C_5
REMARK    5  A    between atoms: C_5  and  C_6
REMARK    6  A    between atoms: C_6  and  N_7
REMARK    7  A    between atoms: N_7  and  C_8
REMARK    8  A    between atoms: C_8  and  C_9
REMARK    9  A    between atoms: C_9  and  C_10
REMARK   10  A    between atoms: N_17  and  C_18
REMARK   11  A    between atoms: C_18  and  C_19
REMARK   12  A    between atoms: C_19  and  C_20
REMARK   13  A    between atoms: C_20  and  C_21
REMARK                            x       y       z     vdW  Elec       q    Type
REMARK                         _______ _______ _______ _____ _____    ______ ____
ROOT
ATOM      1  C   UNL     1       3.626   5.663  18.655  0.00  0.00    +0.000 C 
ATOM      2  C   UNL     1       4.921   5.482  18.265  0.00  0.00    +0.000 C 
ATOM      3  C   UNL     1       6.056   5.113  19.150  0.00  0.00    +0.000 C 
ATOM      4  O   UNL     1       5.947   4.647  20.285  0.00  0.00    +0.000 OA
ATOM      5  N   UNL     1       7.283   5.214  18.565  0.00  0.00    +0.000 N 
ATOM      6  C   UNL     1       7.463   4.732  17.304  0.00  0.00    +0.000 C 
ATOM      7  O   UNL     1       8.479   4.106  17.038  0.00  0.00    +0.000 OA
ATOM      8  N   UNL     1       6.422   4.970  16.418  0.00  0.00    +0.000 N 
ATOM      9  C   UNL     1       5.297   5.669  16.824  0.00  0.00    +0.000 C 
ATOM     10  O   UNL     1       4.688   6.419  16.057  0.00  0.00    +0.000 OA
ATOM     11  H   UNL     1       8.040   4.933  19.176  0.00  0.00    +0.000 HD
ENDROOT
BRANCH   1  12
ATOM     12  N   UNL     1       2.550   5.799  17.748  0.00  0.00    +0.000 N 
ATOM     13  H   UNL     1       2.089   6.703  17.837  0.00  0.00    +0.000 HD
BRANCH  12  14
ATOM     14  C   UNL     1       1.583   4.721  17.488  0.00  0.00    +0.000 C 
BRANCH  14  15
ATOM     15  C   UNL     1       2.319   3.399  17.225  0.00  0.00    +0.000 C 
BRANCH  15  16
ATOM     16  C   UNL     1       2.249   2.476  18.439  0.00  0.00    +0.000 C 
BRANCH  16  17
ATOM     17  C   UNL     1       0.830   2.387  19.017  0.00  0.00    +0.000 C 
BRANCH  17  19
ATOM     18  C   UNL     1       1.539   2.569  21.433  0.00  0.00    +0.000 C 
ATOM     19  C   UNL     1       0.714   3.186  20.316  0.00  0.00    +0.000 C 
ENDBRANCH  17  19
ENDBRANCH  16  17
ENDBRANCH  15  16
ENDBRANCH  14  15
ENDBRANCH  12  14
ENDBRANCH   1  12
BRANCH   1  20
ATOM     20  C   UNL     1       3.129   5.656  20.115  0.00  0.00    +0.000 C 
ATOM     21  C   UNL     1       2.014   6.643  20.477  0.00  0.00    +0.000 C 
ENDBRANCH   1  20
BRANCH   8  22
ATOM     22  C   UNL     1       6.634   4.821  14.983  0.00  0.00    +0.000 C 
BRANCH  22  23
ATOM     23  C   UNL     1       5.842   3.686  14.343  0.00  0.00    +0.000 C 
BRANCH  23  24
ATOM     24  C   UNL     1       6.002   3.593  12.826  0.00  0.00    +0.000 C 
ATOM     25  C   UNL     1       7.239   4.373  12.405  0.00  0.00    +0.000 C 
ENDBRANCH  23  24
ENDBRANCH  22  23
ENDBRANCH   8  22
TORSDOF 10
ENDMDL
MODEL 8
REMARK VINA RESULT:      -6.4      2.241      3.855
REMARK  Name = 
REMARK  13 active torsions:
REMARK  status: ('A' for Active; 'I' for Inactive)
REMARK    1  A    between atoms: C_1  and  C_2
REMARK    2  A    between atoms: C_2  and  C_3
REMARK    3  A    between atoms: C_3  and  C_4
REMARK    4  A    between atoms: C_4  and  C_5
REMARK    5  A    between atoms: C_5  and  C_6
REMARK    6  A    between atoms: C_6  and  N_7
REMARK    7  A    between atoms: N_7  and  C_8
REMARK    8  A    between atoms: C_8  and  C_9
REMARK    9  A    between atoms: C_9  and  C_10
REMARK   10  A    between atoms: N_17  and  C_18
REMARK   11  A    between atoms: C_18  and  C_19
REMARK   12  A    between atoms: C_19  and  C_20
REMARK   13  A    between atoms: C_20  and  C_21
REMARK                            x       y       z     vdW  Elec       q    Type
REMARK                         _______ _______ _______ _____ _____    ______ ____
ROOT
ATOM      1  C   UNL     1       3.006   5.132  18.214  0.00  0.00    +0.000 C 
ATOM      2  C   UNL     1       4.262   4.815  17.782  0.00  0.00    +0.000 C 
ATOM      3  C   UNL     1       4.593   3.968  16.607  0.00  0.00    +0.000 C 
ATOM      4  O   UNL     1       3.810   3.671  15.704  0.00  0.00    +0.000 OA
ATOM      5  N   UNL     1       5.907   3.619  16.518  0.00  0.00    +0.000 N 
ATOM      6  C   UNL     1       6.867   4.561  16.734  0.00  0.00    +0.000 C 
ATOM      7  O   UNL     1       7.847   4.601  16.004  0.00  0.00    +0.000 OA
ATOM      8  N   UNL     1       6.613   5.445  17.773  0.00  0.00    +0.000 N 
ATOM      9  C   UNL     1       5.457   5.333  18.528  0.00  0.00    +0.000 C 
ATOM     10  O   UNL     1       5.440   5.601  19.732  0.00  0.00    +0.000 OA
ATOM     11  H   UNL     1       6.117   3.064  15.697  0.00  0.00    +0.000 HD
ENDROOT
BRANCH   1  12
ATOM     12  N   UNL     1       2.744   6.110  19.199  0.00  0.00    +0.000 N 
ATOM     13  H   UNL     1       3.585   6.619  19.465  0.00  0.00    +0.000 HD
BRANCH  12  14
ATOM     14  C   UNL     1       1.871   5.864  20.358  0.00  0.00    +0.000 C 
BRANCH  14  15
ATOM     15  C   UNL     1       2.497   4.806  21.279  0.00  0.00    +0.000 C 
BRANCH  15  16
ATOM     16  C   UNL     1       1.589   3.586  21.418  0.00  0.00    +0.000 C 
BRANCH  16  17
ATOM     17  C   UNL     1       2.348   2.271  21.198  0.00  0.00    +0.000 C 
BRANCH  17  19
ATOM     18  C   UNL     1       4.309   1.784  19.685  0.00  0.00    +0.000 C 
ATOM     19  C   UNL     1       3.828   2.532  20.917  0.00  0.00    +0.000 C 
ENDBRANCH  17  19
ENDBRANCH  16  17
ENDBRANCH  15  16
ENDBRANCH  14  15
ENDBRANCH  12  14
ENDBRANCH   1  12
BRANCH   1  20
ATOM     20  C   UNL     1       1.697   4.549  17.641  0.00  0.00    +0.000 C 
ATOM     21  C   UNL     1       1.321   3.128  18.072  0.00  0.00    +0.000 C 
ENDBRANCH   1  20
BRANCH   8  22
ATOM     22  C   UNL     1       7.692   6.258  18.322  0.00  0.00    +0.000 C 
BRANCH  22  23
ATOM     23  C   UNL     1       7.759   7.676  17.766  0.00  0.00    +0.000 C 
BRANCH  23  24
ATOM     24  C   UNL     1       8.591   8.639  18.613  0.00  0.00    +0.000 C 
ATOM     25  C   UNL     1       8.525  10.029  17.998  0.00  0.00    +0.000 C 
ENDBRANCH  23  24
ENDBRANCH  22  23
ENDBRANCH   8  22
TORSDOF 10
ENDMDL
MODEL 9
REMARK VINA RESULT:      -6.3      1.766      2.269
REMARK  Name = 
REMARK  13 active torsions:
REMARK  status: ('A' for Active; 'I' for Inactive)
REMARK    1  A    between atoms: C_1  and  C_2
REMARK    2  A    between atoms: C_2  and  C_3
REMARK    3  A    between atoms: C_3  and  C_4
REMARK    4  A    between atoms: C_4  and  C_5
REMARK    5  A    between atoms: C_5  and  C_6
REMARK    6  A    between atoms: C_6  and  N_7
REMARK    7  A    between atoms: N_7  and  C_8
REMARK    8  A    between atoms: C_8  and  C_9
REMARK    9  A    between atoms: C_9  and  C_10
REMARK   10  A    between atoms: N_17  and  C_18
REMARK   11  A    between atoms: C_18  and  C_19
REMARK   12  A    between atoms: C_19  and  C_20
REMARK   13  A    between atoms: C_20  and  C_21
REMARK                            x       y       z     vdW  Elec       q    Type
REMARK                         _______ _______ _______ _____ _____    ______ ____
ROOT
ATOM      1  C   UNL     1       3.122   5.025  18.842  0.00  0.00    +0.000 C 
ATOM      2  C   UNL     1       4.280   4.742  18.176  0.00  0.00    +0.000 C 
ATOM      3  C   UNL     1       4.398   3.935  16.935  0.00  0.00    +0.000 C 
ATOM      4  O   UNL     1       3.466   3.649  16.184  0.00  0.00    +0.000 OA
ATOM      5  N   UNL     1       5.677   3.610  16.595  0.00  0.00    +0.000 N 
ATOM      6  C   UNL     1       6.649   4.563  16.659  0.00  0.00    +0.000 C 
ATOM      7  O   UNL     1       7.477   4.640  15.762  0.00  0.00    +0.000 OA
ATOM      8  N   UNL     1       6.581   5.413  17.753  0.00  0.00    +0.000 N 
ATOM      9  C   UNL     1       5.586   5.260  18.705  0.00  0.00    +0.000 C 
ATOM     10  O   UNL     1       5.789   5.493  19.899  0.00  0.00    +0.000 OA
ATOM     11  H   UNL     1       5.738   3.083  15.732  0.00  0.00    +0.000 HD
ENDROOT
BRANCH   1  12
ATOM     12  N   UNL     1       3.035   5.971  19.888  0.00  0.00    +0.000 N 
ATOM     13  H   UNL     1       2.904   5.525  20.796  0.00  0.00    +0.000 HD
BRANCH  12  14
ATOM     14  C   UNL     1       2.255   7.214  19.779  0.00  0.00    +0.000 C 
BRANCH  14  15
ATOM     15  C   UNL     1       1.560   7.524  21.113  0.00  0.00    +0.000 C 
BRANCH  15  16
ATOM     16  C   UNL     1       0.992   8.942  21.125  0.00  0.00    +0.000 C 
BRANCH  16  17
ATOM     17  C   UNL     1       0.327   9.287  22.463  0.00  0.00    +0.000 C 
BRANCH  17  19
ATOM     18  C   UNL     1      -0.552  11.081  20.919  0.00  0.00    +0.000 C 
ATOM     19  C   UNL     1      -0.600  10.495  22.320  0.00  0.00    +0.000 C 
ENDBRANCH  17  19
ENDBRANCH  16  17
ENDBRANCH  15  16
ENDBRANCH  14  15
ENDBRANCH  12  14
ENDBRANCH   1  12
BRANCH   1  20
ATOM     20  C   UNL     1       1.737   4.436  18.504  0.00  0.00    +0.000 C 
ATOM     21  C   UNL     1       1.168   3.394  19.472  0.00  0.00    +0.000 C 
ENDBRANCH   1  20
BRANCH   8  22
ATOM     22  C   UNL     1       7.734   6.229  18.118  0.00  0.00    +0.000 C 
BRANCH  22  23
ATOM     23  C   UNL     1       7.645   7.683  17.669  0.00  0.00    +0.000 C 
BRANCH  23  24
ATOM     24  C   UNL     1       8.502   8.643  18.493  0.00  0.00    +0.000 C 
ATOM     25  C   UNL     1       8.449  10.026  17.861  0.00  0.00    +0.000 C 
ENDBRANCH  23  24
ENDBRANCH  22  23
ENDBRANCH   8  22
TORSDOF 10
ENDMDL
