MODEL 1
REMARK VINA RESULT:      -8.0      0.000      0.000
REMARK  Name = 
REMARK  9 active torsions:
REMARK  status: ('A' for Active; 'I' for Inactive)
REMARK    1  A    between atoms: C_1  and  O_2
REMARK    2  A    between atoms: O_2  and  C_3
REMARK    3  A    between atoms: C_6  and  C_7
REMARK    4  A    between atoms: N_15  and  C_16
REMARK    5  A    between atoms: C_16  and  C_17
REMARK    6  A    between atoms: N_19  and  C_20
REMARK    7  A    between atoms: C_23  and  C_24
REMARK    8  A    between atoms: C_24  and  C_25
REMARK    9  A    between atoms: C_24  and  C_26
REMARK                            x       y       z     vdW  Elec       q    Type
REMARK                         _______ _______ _______ _____ _____    ______ ____
ROOT
ATOM      1  C   UNL     1       4.553   4.389  16.826  0.00  0.00    +0.000 C 
ATOM      2  N   UNL     1       3.881   3.377  17.281  0.00  0.00    +0.000 NA
ATOM      3  C   UNL     1       3.228   3.811  18.562  0.00  0.00    +0.000 C 
ATOM      4  C   UNL     1       3.789   2.813  19.601  0.00  0.00    +0.000 C 
ATOM      5  C   UNL     1       2.990   2.684  20.888  0.00  0.00    +0.000 C 
ATOM      6  C   UNL     1       1.483   2.560  20.687  0.00  0.00    +0.000 C 
ATOM      7  C   UNL     1       0.877   3.422  19.584  0.00  0.00    +0.000 C 
ATOM      8  C   UNL     1       1.733   3.555  18.333  0.00  0.00    +0.000 C 
ATOM      9  N   UNL     1       3.574   5.232  18.699  0.00  0.00    +0.000 N 
ATOM     10  C   UNL     1       4.474   5.592  17.719  0.00  0.00    +0.000 C 
ATOM     11  O   UNL     1       5.090   6.620  17.577  0.00  0.00    +0.000 OA
ENDROOT
BRANCH   1  15
ATOM     12  C   UNL     1       6.716   4.198  13.155  0.00  0.00    +0.000 A 
ATOM     13  C   UNL     1       5.373   3.820  13.200  0.00  0.00    +0.000 A 
ATOM     14  C   UNL     1       4.654   3.922  14.385  0.00  0.00    +0.000 A 
ATOM     15  C   UNL     1       5.271   4.376  15.541  0.00  0.00    +0.000 A 
ATOM     16  C   UNL     1       6.624   4.752  15.512  0.00  0.00    +0.000 A 
ATOM     17  C   UNL     1       7.344   4.660  14.315  0.00  0.00    +0.000 A 
BRANCH  12  19
ATOM     18  C   UNL     1       7.234   2.708  11.400  0.00  0.00    +0.000 C 
ATOM     19  O   UNL     1       7.332   4.015  11.941  0.00  0.00    +0.000 OA
ENDBRANCH  12  19
ENDBRANCH   1  15
BRANCH   9  20
ATOM     20  C   UNL     1       3.349   6.152  19.808  0.00  0.00    +0.000 C 
BRANCH  20  21
ATOM     21  C   UNL     1       2.167   7.155  19.883  0.00  0.00    +0.000 C 
ATOM     22  O   UNL     1       1.157   6.802  20.499  0.00  0.00    +0.000 OA
ATOM     23  N   UNL     1       2.202   8.345  19.155  0.00  0.00    +0.000 N 
ATOM     24  H   UNL     1       2.848   8.385  18.376  0.00  0.00    +0.000 HD
BRANCH  23  25
ATOM     25  C   UNL     1       1.063   9.214  19.111  0.00  0.00    +0.000 A 
ATOM     26  C   UNL     1       0.270   9.362  17.969  0.00  0.00    +0.000 A 
ATOM     27  C   UNL     1      -0.821  10.269  17.946  0.00  0.00    +0.000 A 
ATOM     28  C   UNL     1      -1.137  11.057  19.071  0.00  0.00    +0.000 A 
ATOM     29  C   UNL     1      -0.344  10.889  20.204  0.00  0.00    +0.000 A 
ATOM     30  C   UNL     1       0.733   9.974  20.236  0.00  0.00    +0.000 A 
BRANCH  28  31
ATOM     31  C   UNL     1      -2.304  12.051  19.009  0.00  0.00    +0.000 C 
ATOM     32  C   UNL     1      -3.523  11.480  18.266  0.00  0.00    +0.000 C 
ATOM     33  C   UNL     1      -2.757  12.559  20.379  0.00  0.00    +0.000 C 
ENDBRANCH  28  31
ENDBRANCH  23  25
ENDBRANCH  20  21
ENDBRANCH   9  20
TORSDOF 6
ENDMDL
MODEL 2
REMARK VINA RESULT:      -7.8      3.880     11.651
REMARK  Name = 
REMARK  9 active torsions:
REMARK  status: ('A' for Active; 'I' for Inactive)
REMARK    1  A    between atoms: C_1  and  O_2
REMARK    2  A    between atoms: O_2  and  C_3
REMARK    3  A    between atoms: C_6  and  C_7
REMARK    4  A    between atoms: N_15  and  C_16
REMARK    5  A    between atoms: C_16  and  C_17
REMARK    6  A    between atoms: N_19  and  C_20
REMARK    7  A    between atoms: C_23  and  C_24
REMARK    8  A    between atoms: C_24  and  C_25
REMARK    9  A    between atoms: C_24  and  C_26
REMARK                            x       y       z     vdW  Elec       q    Type
REMARK                         _______ _______ _______ _____ _____    ______ ____
ROOT
ATOM      1  C   UNL     1      -2.074  12.468  22.251  0.00  0.00    +0.000 C 
ATOM      2  N   UNL     1      -1.551  13.352  21.459  0.00  0.00    +0.000 NA
ATOM      3  C   UNL     1      -0.215  12.825  21.019  0.00  0.00    +0.000 C 
ATOM      4  C   UNL     1       0.771  13.915  21.494  0.00  0.00    +0.000 C 
ATOM      5  C   UNL     1       2.130  13.917  20.813  0.00  0.00    +0.000 C 
ATOM      6  C   UNL     1       2.076  13.775  19.295  0.00  0.00    +0.000 C 
ATOM      7  C   UNL     1       1.032  12.809  18.745  0.00  0.00    +0.000 C 
ATOM      8  C   UNL     1      -0.297  12.815  19.486  0.00  0.00    +0.000 C 
ATOM      9  N   UNL     1      -0.121  11.487  21.618  0.00  0.00    +0.000 N 
ATOM     10  C   UNL     1      -1.186  11.279  22.468  0.00  0.00    +0.000 C 
ATOM     11  O   UNL     1      -1.394  10.372  23.237  0.00  0.00    +0.000 OA
ENDROOT
BRANCH   1  15
ATOM     12  C   UNL     1      -5.927  12.980  24.008  0.00  0.00    +0.000 A 
ATOM     13  C   UNL     1      -5.716  13.309  22.668  0.00  0.00    +0.000 A 
ATOM     14  C   UNL     1      -4.473  13.103  22.081  0.00  0.00    +0.000 A 
ATOM     15  C   UNL     1      -3.423  12.592  22.828  0.00  0.00    +0.000 A 
ATOM     16  C   UNL     1      -3.619  12.264  24.180  0.00  0.00    +0.000 A 
ATOM     17  C   UNL     1      -4.874  12.461  24.766  0.00  0.00    +0.000 A 
BRANCH  12  19
ATOM     18  C   UNL     1      -7.902  14.246  23.760  0.00  0.00    +0.000 C 
ATOM     19  O   UNL     1      -7.182  13.266  24.487  0.00  0.00    +0.000 OA
ENDBRANCH  12  19
ENDBRANCH   1  15
BRANCH   9  20
ATOM     20  C   UNL     1       0.997  10.554  21.664  0.00  0.00    +0.000 C 
BRANCH  20  21
ATOM     21  C   UNL     1       1.143   9.319  20.734  0.00  0.00    +0.000 C 
ATOM     22  O   UNL     1       0.409   9.262  19.743  0.00  0.00    +0.000 OA
ATOM     23  N   UNL     1       1.969   8.255  21.096  0.00  0.00    +0.000 N 
ATOM     24  H   UNL     1       2.214   8.179  22.075  0.00  0.00    +0.000 HD
BRANCH  23  25
ATOM     25  C   UNL     1       2.009   7.055  20.312  0.00  0.00    +0.000 A 
ATOM     26  C   UNL     1       2.521   7.020  19.011  0.00  0.00    +0.000 A 
ATOM     27  C   UNL     1       2.499   5.825  18.246  0.00  0.00    +0.000 A 
ATOM     28  C   UNL     1       1.955   4.635  18.769  0.00  0.00    +0.000 A 
ATOM     29  C   UNL     1       1.460   4.685  20.070  0.00  0.00    +0.000 A 
ATOM     30  C   UNL     1       1.496   5.869  20.842  0.00  0.00    +0.000 A 
BRANCH  28  31
ATOM     31  C   UNL     1       1.918   3.365  17.909  0.00  0.00    +0.000 C 
ATOM     32  C   UNL     1       3.184   3.199  17.052  0.00  0.00    +0.000 C 
ATOM     33  C   UNL     1       1.696   2.082  18.712  0.00  0.00    +0.000 C 
ENDBRANCH  28  31
ENDBRANCH  23  25
ENDBRANCH  20  21
ENDBRANCH   9  20
TORSDOF 6
ENDMDL
MODEL 3
REMARK VINA RESULT:      -7.8      0.365      1.254
REMARK  Name = 
REMARK  9 active torsions:
REMARK  status: ('A' for Active; 'I' for Inactive)
REMARK    1  A    between atoms: C_1  and  O_2
REMARK    2  A    between atoms: O_2  and  C_3
REMARK    3  A    between atoms: C_6  and  C_7
REMARK    4  A    between atoms: N_15  and  C_16
REMARK    5  A    between atoms: C_16  and  C_17
REMARK    6  A    between atoms: N_19  and  C_20
REMARK    7  A    between atoms: C_23  and  C_24
REMARK    8  A    between atoms: C_24  and  C_25
REMARK    9  A    between atoms: C_24  and  C_26
REMARK                            x       y       z     vdW  Elec       q    Type
REMARK                         _______ _______ _______ _____ _____    ______ ____
ROOT
ATOM      1  C   UNL     1       4.536   4.376  17.182  0.00  0.00    +0.000 C 
ATOM      2  N   UNL     1       3.838   3.381  17.635  0.00  0.00    +0.000 NA
ATOM      3  C   UNL     1       3.142   3.852  18.880  0.00  0.00    +0.000 C 
ATOM      4  C   UNL     1       3.653   2.876  19.964  0.00  0.00    +0.000 C 
ATOM      5  C   UNL     1       2.805   2.786  21.222  0.00  0.00    +0.000 C 
ATOM      6  C   UNL     1       1.306   2.670  20.967  0.00  0.00    +0.000 C 
ATOM      7  C   UNL     1       0.750   3.509  19.821  0.00  0.00    +0.000 C 
ATOM      8  C   UNL     1       1.654   3.603  18.601  0.00  0.00    +0.000 C 
ATOM      9  N   UNL     1       3.495   5.274  18.995  0.00  0.00    +0.000 N 
ATOM     10  C   UNL     1       4.434   5.601  18.041  0.00  0.00    +0.000 C 
ATOM     11  O   UNL     1       5.065   6.620  17.897  0.00  0.00    +0.000 OA
ENDROOT
BRANCH   1  15
ATOM     12  C   UNL     1       6.672   4.381  13.489  0.00  0.00    +0.000 A 
ATOM     13  C   UNL     1       7.306   4.776  14.669  0.00  0.00    +0.000 A 
ATOM     14  C   UNL     1       6.625   4.734  15.880  0.00  0.00    +0.000 A 
ATOM     15  C   UNL     1       5.302   4.324  15.925  0.00  0.00    +0.000 A 
ATOM     16  C   UNL     1       4.649   3.933  14.745  0.00  0.00    +0.000 A 
ATOM     17  C   UNL     1       5.339   3.964  13.528  0.00  0.00    +0.000 A 
BRANCH  12  19
ATOM     18  C   UNL     1       7.295   3.452  11.413  0.00  0.00    +0.000 C 
ATOM     19  O   UNL     1       7.431   4.505  12.351  0.00  0.00    +0.000 OA
ENDBRANCH  12  19
ENDBRANCH   1  15
BRANCH   9  20
ATOM     20  C   UNL     1       3.237   6.222  20.071  0.00  0.00    +0.000 C 
BRANCH  20  21
ATOM     21  C   UNL     1       2.101   7.280  20.048  0.00  0.00    +0.000 C 
ATOM     22  O   UNL     1       1.104   7.061  20.744  0.00  0.00    +0.000 OA
ATOM     23  N   UNL     1       2.153   8.354  19.161  0.00  0.00    +0.000 N 
ATOM     24  H   UNL     1       2.766   8.257  18.361  0.00  0.00    +0.000 HD
BRANCH  23  25
ATOM     25  C   UNL     1       1.049   9.261  19.038  0.00  0.00    +0.000 A 
ATOM     26  C   UNL     1       0.661  10.121  20.070  0.00  0.00    +0.000 A 
ATOM     27  C   UNL     1      -0.467  10.971  19.931  0.00  0.00    +0.000 A 
ATOM     28  C   UNL     1      -1.239  10.971  18.752  0.00  0.00    +0.000 A 
ATOM     29  C   UNL     1      -0.832  10.117  17.730  0.00  0.00    +0.000 A 
ATOM     30  C   UNL     1       0.302   9.282  17.858  0.00  0.00    +0.000 A 
BRANCH  28  31
ATOM     31  C   UNL     1      -2.471  11.878  18.641  0.00  0.00    +0.000 C 
ATOM     32  C   UNL     1      -3.682  11.153  18.033  0.00  0.00    +0.000 C 
ATOM     33  C   UNL     1      -2.892  12.513  19.968  0.00  0.00    +0.000 C 
ENDBRANCH  28  31
ENDBRANCH  23  25
ENDBRANCH  20  21
ENDBRANCH   9  20
TORSDOF 6
ENDMDL
MODEL 4
REMARK VINA RESULT:      -7.8      1.007      1.326
REMARK  Name = 
REMARK  9 active torsions:
REMARK  status: ('A' for Active; 'I' for Inactive)
REMARK    1  A    between atoms: C_1  and  O_2
REMARK    2  A    between atoms: O_2  and  C_3
REMARK    3  A    between atoms: C_6  and  C_7
REMARK    4  A    between atoms: N_15  and  C_16
REMARK    5  A    between atoms: C_16  and  C_17
REMARK    6  A    between atoms: N_19  and  C_20
REMARK    7  A    between atoms: C_23  and  C_24
REMARK    8  A    between atoms: C_24  and  C_25
REMARK    9  A    between atoms: C_24  and  C_26
REMARK                            x       y       z     vdW  Elec       q    Type
REMARK                         _______ _______ _______ _____ _____    ______ ____
ROOT
ATOM      1  C   UNL     1       4.452   4.504  17.085  0.00  0.00    +0.000 C 
ATOM      2  N   UNL     1       3.786   3.478  17.515  0.00  0.00    +0.000 NA
ATOM      3  C   UNL     1       3.097   3.890  18.784  0.00  0.00    +0.000 C 
ATOM      4  C   UNL     1       3.649   2.894  19.828  0.00  0.00    +0.000 C 
ATOM      5  C   UNL     1       2.823   2.740  21.095  0.00  0.00    +0.000 C 
ATOM      6  C   UNL     1       1.323   2.593  20.857  0.00  0.00    +0.000 C 
ATOM      7  C   UNL     1       0.728   3.454  19.747  0.00  0.00    +0.000 C 
ATOM      8  C   UNL     1       1.611   3.611  18.518  0.00  0.00    +0.000 C 
ATOM      9  N   UNL     1       3.415   5.316  18.941  0.00  0.00    +0.000 N 
ATOM     10  C   UNL     1       4.331   5.698  17.984  0.00  0.00    +0.000 C 
ATOM     11  O   UNL     1       4.933   6.738  17.865  0.00  0.00    +0.000 OA
ENDROOT
BRANCH   1  15
ATOM     12  C   UNL     1       6.713   4.387  13.469  0.00  0.00    +0.000 A 
ATOM     13  C   UNL     1       5.404   3.902  13.496  0.00  0.00    +0.000 A 
ATOM     14  C   UNL     1       4.650   3.979  14.662  0.00  0.00    +0.000 A 
ATOM     15  C   UNL     1       5.200   4.514  15.817  0.00  0.00    +0.000 A 
ATOM     16  C   UNL     1       6.518   4.997  15.806  0.00  0.00    +0.000 A 
ATOM     17  C   UNL     1       7.272   4.931  14.629  0.00  0.00    +0.000 A 
BRANCH  12  19
ATOM     18  C   UNL     1       6.981   3.087  11.519  0.00  0.00    +0.000 C 
ATOM     19  O   UNL     1       7.371   4.220  12.276  0.00  0.00    +0.000 OA
ENDBRANCH  12  19
ENDBRANCH   1  15
BRANCH   9  20
ATOM     20  C   UNL     1       3.149   6.222  20.050  0.00  0.00    +0.000 C 
BRANCH  20  21
ATOM     21  C   UNL     1       2.139   7.400  19.992  0.00  0.00    +0.000 C 
ATOM     22  O   UNL     1       2.025   8.001  18.919  0.00  0.00    +0.000 OA
ATOM     23  N   UNL     1       1.503   7.844  21.151  0.00  0.00    +0.000 N 
ATOM     24  H   UNL     1       1.932   7.592  22.033  0.00  0.00    +0.000 HD
BRANCH  23  25
ATOM     25  C   UNL     1       0.672   9.012  21.133  0.00  0.00    +0.000 A 
ATOM     26  C   UNL     1       0.398   9.725  19.961  0.00  0.00    +0.000 A 
ATOM     27  C   UNL     1      -0.389  10.906  19.988  0.00  0.00    +0.000 A 
ATOM     28  C   UNL     1      -0.914  11.404  21.197  0.00  0.00    +0.000 A 
ATOM     29  C   UNL     1      -0.641  10.676  22.353  0.00  0.00    +0.000 A 
ATOM     30  C   UNL     1       0.128   9.490  22.327  0.00  0.00    +0.000 A 
BRANCH  28  31
ATOM     31  C   UNL     1      -1.737  12.699  21.201  0.00  0.00    +0.000 C 
ATOM     32  C   UNL     1      -3.018  12.583  20.359  0.00  0.00    +0.000 C 
ATOM     33  C   UNL     1      -2.110  13.190  22.601  0.00  0.00    +0.000 C 
ENDBRANCH  28  31
ENDBRANCH  23  25
ENDBRANCH  20  21
ENDBRANCH   9  20
TORSDOF 6
ENDMDL
MODEL 5
REMARK VINA RESULT:      -7.7      1.275      1.840
REMARK  Name = 
REMARK  9 active torsions:
REMARK  status: ('A' for Active; 'I' for Inactive)
REMARK    1  A    between atoms: C_1  and  O_2
REMARK    2  A    between atoms: O_2  and  C_3
REMARK    3  A    between atoms: C_6  and  C_7
REMARK    4  A    between atoms: N_15  and  C_16
REMARK    5  A    between atoms: C_16  and  C_17
REMARK    6  A    between atoms: N_19  and  C_20
REMARK    7  A    between atoms: C_23  and  C_24
REMARK    8  A    between atoms: C_24  and  C_25
REMARK    9  A    between atoms: C_24  and  C_26
REMARK                            x       y       z     vdW  Elec       q    Type
REMARK                         _______ _______ _______ _____ _____    ______ ____
ROOT
ATOM      1  C   UNL     1       4.614   4.341  17.145  0.00  0.00    +0.000 C 
ATOM      2  N   UNL     1       3.906   3.334  17.552  0.00  0.00    +0.000 NA
ATOM      3  C   UNL     1       3.190   3.765  18.800  0.00  0.00    +0.000 C 
ATOM      4  C   UNL     1       3.681   2.751  19.858  0.00  0.00    +0.000 C 
ATOM      5  C   UNL     1       2.812   2.620  21.099  0.00  0.00    +0.000 C 
ATOM      6  C   UNL     1       1.317   2.518  20.815  0.00  0.00    +0.000 C 
ATOM      7  C   UNL     1       0.782   3.398  19.690  0.00  0.00    +0.000 C 
ATOM      8  C   UNL     1       1.706   3.530  18.488  0.00  0.00    +0.000 C 
ATOM      9  N   UNL     1       3.545   5.180  18.970  0.00  0.00    +0.000 N 
ATOM     10  C   UNL     1       4.501   5.537  18.043  0.00  0.00    +0.000 C 
ATOM     11  O   UNL     1       5.137   6.558  17.945  0.00  0.00    +0.000 OA
ENDROOT
BRANCH   1  15
ATOM     12  C   UNL     1       6.809   4.464  13.489  0.00  0.00    +0.000 A 
ATOM     13  C   UNL     1       7.419   4.835  14.689  0.00  0.00    +0.000 A 
ATOM     14  C   UNL     1       6.720   4.755  15.887  0.00  0.00    +0.000 A 
ATOM     15  C   UNL     1       5.400   4.330  15.900  0.00  0.00    +0.000 A 
ATOM     16  C   UNL     1       4.771   3.963  14.699  0.00  0.00    +0.000 A 
ATOM     17  C   UNL     1       5.480   4.032  13.494  0.00  0.00    +0.000 A 
BRANCH  12  19
ATOM     18  C   UNL     1       8.294   5.849  12.288  0.00  0.00    +0.000 C 
ATOM     19  O   UNL     1       7.585   4.625  12.367  0.00  0.00    +0.000 OA
ENDBRANCH  12  19
ENDBRANCH   1  15
BRANCH   9  20
ATOM     20  C   UNL     1       3.272   6.093  20.073  0.00  0.00    +0.000 C 
BRANCH  20  21
ATOM     21  C   UNL     1       2.221   7.234  20.022  0.00  0.00    +0.000 C 
ATOM     22  O   UNL     1       1.975   7.734  18.920  0.00  0.00    +0.000 OA
ATOM     23  N   UNL     1       1.694   7.762  21.200  0.00  0.00    +0.000 N 
ATOM     24  H   UNL     1       2.221   7.601  22.049  0.00  0.00    +0.000 HD
BRANCH  23  25
ATOM     25  C   UNL     1       0.825   8.903  21.170  0.00  0.00    +0.000 A 
ATOM     26  C   UNL     1       0.637   9.678  20.021  0.00  0.00    +0.000 A 
ATOM     27  C   UNL     1      -0.193  10.830  20.041  0.00  0.00    +0.000 A 
ATOM     28  C   UNL     1      -0.850  11.234  21.221  0.00  0.00    +0.000 A 
ATOM     29  C   UNL     1      -0.661  10.443  22.352  0.00  0.00    +0.000 A 
ATOM     30  C   UNL     1       0.151   9.286  22.332  0.00  0.00    +0.000 A 
BRANCH  28  31
ATOM     31  C   UNL     1      -1.717  12.499  21.221  0.00  0.00    +0.000 C 
ATOM     32  C   UNL     1      -1.959  13.045  22.637  0.00  0.00    +0.000 C 
ATOM     33  C   UNL     1      -1.165  13.627  20.346  0.00  0.00    +0.000 C 
ENDBRANCH  28  31
ENDBRANCH  23  25
ENDBRANCH  20  21
ENDBRANCH   9  20
TORSDOF 6
ENDMDL
MODEL 6
REMARK VINA RESULT:      -7.6      1.079      1.551
REMARK  Name = 
REMARK  9 active torsions:
REMARK  status: ('A' for Active; 'I' for Inactive)
REMARK    1  A    between atoms: C_1  and  O_2
REMARK    2  A    between atoms: O_2  and  C_3
REMARK    3  A    between atoms: C_6  and  C_7
REMARK    4  A    between atoms: N_15  and  C_16
REMARK    5  A    between atoms: C_16  and  C_17
REMARK    6  A    between atoms: N_19  and  C_20
REMARK    7  A    between atoms: C_23  and  C_24
REMARK    8  A    between atoms: C_24  and  C_25
REMARK    9  A    between atoms: C_24  and  C_26
REMARK                            x       y       z     vdW  Elec       q    Type
REMARK                         _______ _______ _______ _____ _____    ______ ____
ROOT
ATOM      1  C   UNL     1       4.603   4.388  16.611  0.00  0.00    +0.000 C 
ATOM      2  N   UNL     1       3.916   3.389  17.072  0.00  0.00    +0.000 NA
ATOM      3  C   UNL     1       3.291   3.832  18.364  0.00  0.00    +0.000 C 
ATOM      4  C   UNL     1       3.844   2.820  19.392  0.00  0.00    +0.000 C 
ATOM      5  C   UNL     1       3.061   2.703  20.689  0.00  0.00    +0.000 C 
ATOM      6  C   UNL     1       1.549   2.613  20.510  0.00  0.00    +0.000 C 
ATOM      7  C   UNL     1       0.946   3.492  19.418  0.00  0.00    +0.000 C 
ATOM      8  C   UNL     1       1.787   3.610  18.156  0.00  0.00    +0.000 C 
ATOM      9  N   UNL     1       3.670   5.246  18.501  0.00  0.00    +0.000 N 
ATOM     10  C   UNL     1       4.563   5.589  17.508  0.00  0.00    +0.000 C 
ATOM     11  O   UNL     1       5.200   6.603  17.361  0.00  0.00    +0.000 OA
ENDROOT
BRANCH   1  15
ATOM     12  C   UNL     1       6.721   4.170  12.914  0.00  0.00    +0.000 A 
ATOM     13  C   UNL     1       5.400   3.724  12.996  0.00  0.00    +0.000 A 
ATOM     14  C   UNL     1       4.694   3.834  14.188  0.00  0.00    +0.000 A 
ATOM     15  C   UNL     1       5.302   4.363  15.316  0.00  0.00    +0.000 A 
ATOM     16  C   UNL     1       6.633   4.807  15.250  0.00  0.00    +0.000 A 
ATOM     17  C   UNL     1       7.339   4.708  14.046  0.00  0.00    +0.000 A 
BRANCH  12  19
ATOM     18  C   UNL     1       7.374   2.628  11.253  0.00  0.00    +0.000 C 
ATOM     19  O   UNL     1       7.327   3.973  11.698  0.00  0.00    +0.000 OA
ENDBRANCH  12  19
ENDBRANCH   1  15
BRANCH   9  20
ATOM     20  C   UNL     1       3.481   6.166  19.615  0.00  0.00    +0.000 C 
BRANCH  20  21
ATOM     21  C   UNL     1       2.398   7.278  19.654  0.00  0.00    +0.000 C 
ATOM     22  O   UNL     1       2.082   7.804  18.583  0.00  0.00    +0.000 OA
ATOM     23  N   UNL     1       1.918   7.754  20.874  0.00  0.00    +0.000 N 
ATOM     24  H   UNL     1       2.493   7.582  21.690  0.00  0.00    +0.000 HD
BRANCH  23  25
ATOM     25  C   UNL     1       1.019   8.870  20.926  0.00  0.00    +0.000 A 
ATOM     26  C   UNL     1       0.170   9.105  22.012  0.00  0.00    +0.000 A 
ATOM     27  C   UNL     1      -0.743  10.191  22.008  0.00  0.00    +0.000 A 
ATOM     28  C   UNL     1      -0.830  11.065  20.907  0.00  0.00    +0.000 A 
ATOM     29  C   UNL     1       0.030  10.823  19.838  0.00  0.00    +0.000 A 
ATOM     30  C   UNL     1       0.953   9.753  19.845  0.00  0.00    +0.000 A 
BRANCH  28  31
ATOM     31  C   UNL     1      -1.847  12.214  20.917  0.00  0.00    +0.000 C 
ATOM     32  C   UNL     1      -2.104  12.758  22.332  0.00  0.00    +0.000 C 
ATOM     33  C   UNL     1      -1.469  13.381  20.002  0.00  0.00    +0.000 C 
ENDBRANCH  28  31
ENDBRANCH  23  25
ENDBRANCH  20  21
ENDBRANCH   9  20
TORSDOF 6
ENDMDL
MODEL 7
REMARK VINA RESULT:      -7.5      1.072      1.359
REMARK  Name = 
REMARK  9 active torsions:
REMARK  status: ('A' for Active; 'I' for Inactive)
REMARK    1  A    between atoms: C_1  and  O_2
REMARK    2  A    between atoms: O_2  and  C_3
REMARK    3  A    between atoms: C_6  and  C_7
REMARK    4  A    between atoms: N_15  and  C_16
REMARK    5  A    between atoms: C_16  and  C_17
REMARK    6  A    between atoms: N_19  and  C_20
REMARK    7  A    between atoms: C_23  and  C_24
REMARK    8  A    between atoms: C_24  and  C_25
REMARK    9  A    between atoms: C_24  and  C_26
REMARK                            x       y       z     vdW  Elec       q    Type
REMARK                         _______ _______ _______ _____ _____    ______ ____
ROOT
ATOM      1  C   UNL     1       4.415   4.552  16.998  0.00  0.00    +0.000 C 
ATOM      2  N   UNL     1       3.793   3.519  17.477  0.00  0.00    +0.000 NA
ATOM      3  C   UNL     1       3.046   3.971  18.699  0.00  0.00    +0.000 C 
ATOM      4  C   UNL     1       3.621   3.074  19.818  0.00  0.00    +0.000 C 
ATOM      5  C   UNL     1       2.768   2.955  21.070  0.00  0.00    +0.000 C 
ATOM      6  C   UNL     1       1.286   2.711  20.805  0.00  0.00    +0.000 C 
ATOM      7  C   UNL     1       0.678   3.466  19.627  0.00  0.00    +0.000 C 
ATOM      8  C   UNL     1       1.586   3.595  18.413  0.00  0.00    +0.000 C 
ATOM      9  N   UNL     1       3.283   5.420  18.772  0.00  0.00    +0.000 N 
ATOM     10  C   UNL     1       4.205   5.792  17.816  0.00  0.00    +0.000 C 
ATOM     11  O   UNL     1       4.754   6.853  17.646  0.00  0.00    +0.000 OA
ENDROOT
BRANCH   1  15
ATOM     12  C   UNL     1       6.764   4.318  13.445  0.00  0.00    +0.000 A 
ATOM     13  C   UNL     1       5.423   3.927  13.429  0.00  0.00    +0.000 A 
ATOM     14  C   UNL     1       4.645   4.043  14.574  0.00  0.00    +0.000 A 
ATOM     15  C   UNL     1       5.197   4.524  15.752  0.00  0.00    +0.000 A 
ATOM     16  C   UNL     1       6.547   4.912  15.784  0.00  0.00    +0.000 A 
ATOM     17  C   UNL     1       7.327   4.807  14.627  0.00  0.00    +0.000 A 
BRANCH  12  19
ATOM     18  C   UNL     1       7.049   2.979  11.524  0.00  0.00    +0.000 C 
ATOM     19  O   UNL     1       7.442   4.119  12.268  0.00  0.00    +0.000 OA
ENDBRANCH  12  19
ENDBRANCH   1  15
BRANCH   9  20
ATOM     20  C   UNL     1       2.937   6.378  19.814  0.00  0.00    +0.000 C 
BRANCH  20  21
ATOM     21  C   UNL     1       2.093   7.659  19.577  0.00  0.00    +0.000 C 
ATOM     22  O   UNL     1       2.207   8.222  18.483  0.00  0.00    +0.000 OA
ATOM     23  N   UNL     1       1.354   8.221  20.617  0.00  0.00    +0.000 N 
ATOM     24  H   UNL     1       1.619   7.960  21.559  0.00  0.00    +0.000 HD
BRANCH  23  25
ATOM     25  C   UNL     1       0.679   9.475  20.446  0.00  0.00    +0.000 A 
ATOM     26  C   UNL     1      -0.210   9.715  19.393  0.00  0.00    +0.000 A 
ATOM     27  C   UNL     1      -0.823  10.984  19.226  0.00  0.00    +0.000 A 
ATOM     28  C   UNL     1      -0.551  12.047  20.111  0.00  0.00    +0.000 A 
ATOM     29  C   UNL     1       0.328  11.786  21.160  0.00  0.00    +0.000 A 
ATOM     30  C   UNL     1       0.927  10.519  21.340  0.00  0.00    +0.000 A 
BRANCH  28  31
ATOM     31  C   UNL     1      -1.205  13.416  19.890  0.00  0.00    +0.000 C 
ATOM     32  C   UNL     1      -1.585  14.106  21.210  0.00  0.00    +0.000 C 
ATOM     33  C   UNL     1      -0.355  14.380  19.059  0.00  0.00    +0.000 C 
ENDBRANCH  28  31
ENDBRANCH  23  25
ENDBRANCH  20  21
ENDBRANCH   9  20
TORSDOF 6
ENDMDL
MODEL 8
REMARK VINA RESULT:      -7.5      1.055      1.775
REMARK  Name = 
REMARK  9 active torsions:
REMARK  status: ('A' for Active; 'I' for Inactive)
REMARK    1  A    between atoms: C_1  and  O_2
REMARK    2  A    between atoms: O_2  and  C_3
REMARK    3  A    between atoms: C_6  and  C_7
REMARK    4  A    between atoms: N_15  and  C_16
REMARK    5  A    between atoms: C_16  and  C_17
REMARK    6  A    between atoms: N_19  and  C_20
REMARK    7  A    between atoms: C_23  and  C_24
REMARK    8  A    between atoms: C_24  and  C_25
REMARK    9  A    between atoms: C_24  and  C_26
REMARK                            x       y       z     vdW  Elec       q    Type
REMARK                         _______ _______ _______ _____ _____    ______ ____
ROOT
ATOM      1  C   UNL     1       4.670   4.393  17.067  0.00  0.00    +0.000 C 
ATOM      2  N   UNL     1       4.008   3.350  17.463  0.00  0.00    +0.000 NA
ATOM      3  C   UNL     1       3.248   3.743  18.697  0.00  0.00    +0.000 C 
ATOM      4  C   UNL     1       3.772   2.758  19.766  0.00  0.00    +0.000 C 
ATOM      5  C   UNL     1       2.888   2.582  20.990  0.00  0.00    +0.000 C 
ATOM      6  C   UNL     1       1.406   2.400  20.679  0.00  0.00    +0.000 C 
ATOM      7  C   UNL     1       0.846   3.250  19.542  0.00  0.00    +0.000 C 
ATOM      8  C   UNL     1       1.784   3.430  18.358  0.00  0.00    +0.000 C 
ATOM      9  N   UNL     1       3.524   5.176  18.870  0.00  0.00    +0.000 N 
ATOM     10  C   UNL     1       4.477   5.582  17.961  0.00  0.00    +0.000 C 
ATOM     11  O   UNL     1       5.060   6.635  17.872  0.00  0.00    +0.000 OA
ENDROOT
BRANCH   1  15
ATOM     12  C   UNL     1       6.900   4.607  13.436  0.00  0.00    +0.000 A 
ATOM     13  C   UNL     1       7.379   5.225  14.594  0.00  0.00    +0.000 A 
ATOM     14  C   UNL     1       6.676   5.120  15.788  0.00  0.00    +0.000 A 
ATOM     15  C   UNL     1       5.478   4.423  15.837  0.00  0.00    +0.000 A 
ATOM     16  C   UNL     1       4.981   3.804  14.679  0.00  0.00    +0.000 A 
ATOM     17  C   UNL     1       5.696   3.899  13.479  0.00  0.00    +0.000 A 
BRANCH  12  19
ATOM     18  C   UNL     1       8.508   5.946  12.348  0.00  0.00    +0.000 C 
ATOM     19  O   UNL     1       7.658   4.813  12.310  0.00  0.00    +0.000 OA
ENDBRANCH  12  19
ENDBRANCH   1  15
BRANCH   9  20
ATOM     20  C   UNL     1       3.183   6.073  19.967  0.00  0.00    +0.000 C 
BRANCH  20  21
ATOM     21  C   UNL     1       2.205   7.273  19.840  0.00  0.00    +0.000 C 
ATOM     22  O   UNL     1       1.961   7.692  18.705  0.00  0.00    +0.000 OA
ATOM     23  N   UNL     1       1.744   7.932  20.980  0.00  0.00    +0.000 N 
ATOM     24  H   UNL     1       2.283   7.809  21.828  0.00  0.00    +0.000 HD
BRANCH  23  25
ATOM     25  C   UNL     1       0.948   9.120  20.871  0.00  0.00    +0.000 A 
ATOM     26  C   UNL     1       0.068   9.533  21.876  0.00  0.00    +0.000 A 
ATOM     27  C   UNL     1      -0.740  10.688  21.714  0.00  0.00    +0.000 A 
ATOM     28  C   UNL     1      -0.689  11.453  20.532  0.00  0.00    +0.000 A 
ATOM     29  C   UNL     1       0.201  11.034  19.545  0.00  0.00    +0.000 A 
ATOM     30  C   UNL     1       1.021   9.894  19.710  0.00  0.00    +0.000 A 
BRANCH  28  31
ATOM     31  C   UNL     1      -1.595  12.680  20.371  0.00  0.00    +0.000 C 
ATOM     32  C   UNL     1      -0.906  13.824  19.610  0.00  0.00    +0.000 C 
ATOM     33  C   UNL     1      -2.934  12.375  19.696  0.00  0.00    +0.000 C 
ENDBRANCH  28  31
ENDBRANCH  23  25
ENDBRANCH  20  21
ENDBRANCH   9  20
TORSDOF 6
ENDMDL
MODEL 9
REMARK VINA RESULT:      -7.4      3.226      6.498
REMARK  Name = 
REMARK  9 active torsions:
REMARK  status: ('A' for Active; 'I' for Inactive)
REMARK    1  A    between atoms: C_1  and  O_2
REMARK    2  A    between atoms: O_2  and  C_3
REMARK    3  A    between atoms: C_6  and  C_7
REMARK    4  A    between atoms: N_15  and  C_16
REMARK    5  A    between atoms: C_16  and  C_17
REMARK    6  A    between atoms: N_19  and  C_20
REMARK    7  A    between atoms: C_23  and  C_24
REMARK    8  A    between atoms: C_24  and  C_25
REMARK    9  A    between atoms: C_24  and  C_26
REMARK                            x       y       z     vdW  Elec       q    Type
REMARK                         _______ _______ _______ _____ _____    ______ ____
ROOT
ATOM      1  C   UNL     1       1.820   8.391  18.667  0.00  0.00    +0.000 C 
ATOM      2  N   UNL     1       1.414   9.329  17.869  0.00  0.00    +0.000 NA
ATOM      3  C   UNL     1       0.974  10.485  18.721  0.00  0.00    +0.000 C 
ATOM      4  C   UNL     1      -0.505  10.679  18.318  0.00  0.00    +0.000 C 
ATOM      5  C   UNL     1      -1.105  12.036  18.648  0.00  0.00    +0.000 C 
ATOM      6  C   UNL     1      -0.221  13.224  18.284  0.00  0.00    +0.000 C 
ATOM      7  C   UNL     1       1.274  13.054  18.534  0.00  0.00    +0.000 C 
ATOM      8  C   UNL     1       1.819  11.666  18.228  0.00  0.00    +0.000 C 
ATOM      9  N   UNL     1       1.275  10.073  20.099  0.00  0.00    +0.000 N 
ATOM     10  C   UNL     1       1.688   8.758  20.116  0.00  0.00    +0.000 C 
ATOM     11  O   UNL     1       1.895   8.026  21.052  0.00  0.00    +0.000 OA
ENDROOT
BRANCH   1  15
ATOM     12  C   UNL     1       3.606   4.708  17.466  0.00  0.00    +0.000 A 
ATOM     13  C   UNL     1       2.301   4.728  17.961  0.00  0.00    +0.000 A 
ATOM     14  C   UNL     1       1.702   5.932  18.313  0.00  0.00    +0.000 A 
ATOM     15  C   UNL     1       2.403   7.122  18.200  0.00  0.00    +0.000 A 
ATOM     16  C   UNL     1       3.719   7.116  17.711  0.00  0.00    +0.000 A 
ATOM     17  C   UNL     1       4.318   5.905  17.345  0.00  0.00    +0.000 A 
BRANCH  12  19
ATOM     18  C   UNL     1       3.436   2.383  17.826  0.00  0.00    +0.000 C 
ATOM     19  O   UNL     1       4.106   3.459  17.191  0.00  0.00    +0.000 OA
ENDBRANCH  12  19
ENDBRANCH   1  15
BRANCH   9  20
ATOM     20  C   UNL     1       0.940  10.712  21.366  0.00  0.00    +0.000 C 
BRANCH  20  21
ATOM     21  C   UNL     1      -0.508  10.902  21.891  0.00  0.00    +0.000 C 
ATOM     22  O   UNL     1      -1.234   9.904  21.936  0.00  0.00    +0.000 OA
ATOM     23  N   UNL     1      -1.001  12.179  22.159  0.00  0.00    +0.000 N 
ATOM     24  H   UNL     1      -0.516  12.956  21.727  0.00  0.00    +0.000 HD
BRANCH  23  25
ATOM     25  C   UNL     1      -2.375  12.377  22.517  0.00  0.00    +0.000 A 
ATOM     26  C   UNL     1      -3.355  12.725  21.582  0.00  0.00    +0.000 A 
ATOM     27  C   UNL     1      -4.697  12.961  21.979  0.00  0.00    +0.000 A 
ATOM     28  C   UNL     1      -5.086  12.860  23.330  0.00  0.00    +0.000 A 
ATOM     29  C   UNL     1      -4.100  12.501  24.246  0.00  0.00    +0.000 A 
ATOM     30  C   UNL     1      -2.766  12.248  23.852  0.00  0.00    +0.000 A 
BRANCH  28  31
ATOM     31  C   UNL     1      -6.537  13.149  23.735  0.00  0.00    +0.000 C 
ATOM     32  C   UNL     1      -6.964  14.588  23.401  0.00  0.00    +0.000 C 
ATOM     33  C   UNL     1      -7.553  12.181  23.126  0.00  0.00    +0.000 C 
ENDBRANCH  28  31
ENDBRANCH  23  25
ENDBRANCH  20  21
ENDBRANCH   9  20
TORSDOF 6
ENDMDL
