MODEL 1
REMARK VINA RESULT:      -8.1      0.000      0.000
REMARK  Name = 
REMARK  1 active torsions:
REMARK  status: ('A' for Active; 'I' for Inactive)
REMARK    1  A    between atoms: C_11  and  C_13
REMARK                            x       y       z     vdW  Elec       q    Type
REMARK                         _______ _______ _______ _____ _____    ______ ____
ROOT
ATOM      1  N   UNL     1      -1.346  11.626  20.838  0.00  0.00    +0.000 N 
ATOM      2  C   UNL     1      -0.479  10.779  20.139  0.00  0.00    +0.000 A 
ATOM      3  C   UNL     1       0.138   9.714  20.778  0.00  0.00    +0.000 A 
ATOM      4  C   UNL     1       1.005   8.885  20.060  0.00  0.00    +0.000 A 
ATOM      5  C   UNL     1       1.232   9.207  18.732  0.00  0.00    +0.000 A 
ATOM      6  N   UNL     1       0.623  10.260  18.133  0.00  0.00    +0.000 NA
ATOM      7  N   UNL     1      -0.234  11.048  18.848  0.00  0.00    +0.000 NA
ATOM      8  C   UNL     1       2.122   8.377  17.864  0.00  0.00    +0.000 C 
ATOM      9  C   UNL     1       3.024   7.459  18.672  0.00  0.00    +0.000 C 
ATOM     10  N   UNL     1       2.298   6.794  19.753  0.00  0.00    +0.000 N 
ATOM     11  C   UNL     1       2.412   5.460  20.122  0.00  0.00    +0.000 C 
ATOM     12  O   UNL     1       1.986   5.103  21.231  0.00  0.00    +0.000 OA
ATOM     13  C   UNL     1       1.700   7.723  20.719  0.00  0.00    +0.000 C 
ATOM     14  H   UNL     1      -2.088  11.105  21.290  0.00  0.00    +0.000 HD
ATOM     15  H   UNL     1      -1.714  12.302  20.166  0.00  0.00    +0.000 HD
ENDROOT
BRANCH  11  16
ATOM     16  C   UNL     1       2.848   4.345  19.167  0.00  0.00    +0.000 C 
ATOM     17  C   UNL     1       1.858   4.289  17.979  0.00  0.00    +0.000 C 
ATOM     18  C   UNL     1       2.575   3.489  16.893  0.00  0.00    +0.000 C 
ATOM     19  C   UNL     1       3.965   3.989  17.092  0.00  0.00    +0.000 A 
ATOM     20  C   UNL     1       4.973   4.067  16.149  0.00  0.00    +0.000 A 
ATOM     21  C   UNL     1       6.238   4.466  16.580  0.00  0.00    +0.000 A 
ATOM     22  C   UNL     1       6.484   4.696  17.942  0.00  0.00    +0.000 A 
ATOM     23  C   UNL     1       5.449   4.633  18.886  0.00  0.00    +0.000 A 
ATOM     24  C   UNL     1       4.168   4.357  18.434  0.00  0.00    +0.000 A 
ENDBRANCH  11  16
TORSDOF 1
ENDMDL
MODEL 2
REMARK VINA RESULT:      -7.9      2.797      7.595
REMARK  Name = 
REMARK  1 active torsions:
REMARK  status: ('A' for Active; 'I' for Inactive)
REMARK    1  A    between atoms: C_11  and  C_13
REMARK                            x       y       z     vdW  Elec       q    Type
REMARK                         _______ _______ _______ _____ _____    ______ ____
ROOT
ATOM      1  N   UNL     1       5.523   3.418  16.202  0.00  0.00    +0.000 N 
ATOM      2  C   UNL     1       4.679   4.061  17.114  0.00  0.00    +0.000 A 
ATOM      3  C   UNL     1       4.489   5.434  17.056  0.00  0.00    +0.000 A 
ATOM      4  C   UNL     1       3.647   6.055  17.982  0.00  0.00    +0.000 A 
ATOM      5  C   UNL     1       3.069   5.250  18.951  0.00  0.00    +0.000 A 
ATOM      6  N   UNL     1       3.279   3.911  18.992  0.00  0.00    +0.000 NA
ATOM      7  N   UNL     1       4.094   3.321  18.067  0.00  0.00    +0.000 NA
ATOM      8  C   UNL     1       2.134   5.804  19.977  0.00  0.00    +0.000 C 
ATOM      9  C   UNL     1       2.230   7.316  20.089  0.00  0.00    +0.000 C 
ATOM     10  N   UNL     1       2.275   7.959  18.777  0.00  0.00    +0.000 N 
ATOM     11  C   UNL     1       1.590   9.106  18.399  0.00  0.00    +0.000 C 
ATOM     12  O   UNL     1       1.948   9.714  17.379  0.00  0.00    +0.000 OA
ATOM     13  C   UNL     1       3.419   7.543  17.957  0.00  0.00    +0.000 C 
ATOM     14  H   UNL     1       5.257   3.622  15.245  0.00  0.00    +0.000 HD
ATOM     15  H   UNL     1       5.477   2.417  16.402  0.00  0.00    +0.000 HD
ENDROOT
BRANCH  11  16
ATOM     16  C   UNL     1       0.280   9.568  19.044  0.00  0.00    +0.000 C 
ATOM     17  C   UNL     1       0.566  10.803  19.931  0.00  0.00    +0.000 C 
ATOM     18  C   UNL     1      -0.796  11.449  20.177  0.00  0.00    +0.000 C 
ATOM     19  C   UNL     1      -1.423  11.223  18.844  0.00  0.00    +0.000 A 
ATOM     20  C   UNL     1      -2.409  11.981  18.240  0.00  0.00    +0.000 A 
ATOM     21  C   UNL     1      -2.932  11.525  17.031  0.00  0.00    +0.000 A 
ATOM     22  C   UNL     1      -2.520  10.294  16.498  0.00  0.00    +0.000 A 
ATOM     23  C   UNL     1      -1.506   9.543  17.110  0.00  0.00    +0.000 A 
ATOM     24  C   UNL     1      -0.902  10.062  18.245  0.00  0.00    +0.000 A 
ENDBRANCH  11  16
TORSDOF 1
ENDMDL
MODEL 3
REMARK VINA RESULT:      -7.9      1.336      2.458
REMARK  Name = 
REMARK  1 active torsions:
REMARK  status: ('A' for Active; 'I' for Inactive)
REMARK    1  A    between atoms: C_11  and  C_13
REMARK                            x       y       z     vdW  Elec       q    Type
REMARK                         _______ _______ _______ _____ _____    ______ ____
ROOT
ATOM      1  N   UNL     1      -2.048  12.105  22.100  0.00  0.00    +0.000 N 
ATOM      2  C   UNL     1      -1.276  11.528  21.085  0.00  0.00    +0.000 A 
ATOM      3  C   UNL     1      -0.387  10.502  21.369  0.00  0.00    +0.000 A 
ATOM      4  C   UNL     1       0.378   9.945  20.340  0.00  0.00    +0.000 A 
ATOM      5  C   UNL     1       0.228  10.491  19.075  0.00  0.00    +0.000 A 
ATOM      6  N   UNL     1      -0.641  11.501  18.826  0.00  0.00    +0.000 NA
ATOM      7  N   UNL     1      -1.392  12.020  19.843  0.00  0.00    +0.000 NA
ATOM      8  C   UNL     1       0.979   9.959  17.897  0.00  0.00    +0.000 C 
ATOM      9  C   UNL     1       2.163   9.100  18.307  0.00  0.00    +0.000 C 
ATOM     10  N   UNL     1       1.818   8.172  19.382  0.00  0.00    +0.000 N 
ATOM     11  C   UNL     1       2.193   6.837  19.469  0.00  0.00    +0.000 C 
ATOM     12  O   UNL     1       2.102   6.255  20.561  0.00  0.00    +0.000 OA
ATOM     13  C   UNL     1       1.359   8.835  20.608  0.00  0.00    +0.000 C 
ATOM     14  H   UNL     1      -2.582  11.405  22.602  0.00  0.00    +0.000 HD
ATOM     15  H   UNL     1      -2.655  12.799  21.660  0.00  0.00    +0.000 HD
ENDROOT
BRANCH  11  16
ATOM     16  C   UNL     1       2.523   5.964  18.256  0.00  0.00    +0.000 C 
ATOM     17  C   UNL     1       4.039   6.069  17.961  0.00  0.00    +0.000 C 
ATOM     18  C   UNL     1       4.359   4.880  17.057  0.00  0.00    +0.000 C 
ATOM     19  C   UNL     1       3.466   3.855  17.669  0.00  0.00    +0.000 A 
ATOM     20  C   UNL     1       3.640   2.484  17.671  0.00  0.00    +0.000 A 
ATOM     21  C   UNL     1       2.621   1.699  18.209  0.00  0.00    +0.000 A 
ATOM     22  C   UNL     1       1.429   2.291  18.654  0.00  0.00    +0.000 A 
ATOM     23  C   UNL     1       1.272   3.685  18.665  0.00  0.00    +0.000 A 
ATOM     24  C   UNL     1       2.337   4.466  18.244  0.00  0.00    +0.000 A 
ENDBRANCH  11  16
TORSDOF 1
ENDMDL
MODEL 4
REMARK VINA RESULT:      -7.6      2.680      7.442
REMARK  Name = 
REMARK  1 active torsions:
REMARK  status: ('A' for Active; 'I' for Inactive)
REMARK    1  A    between atoms: C_11  and  C_13
REMARK                            x       y       z     vdW  Elec       q    Type
REMARK                         _______ _______ _______ _____ _____    ______ ____
ROOT
ATOM      1  N   UNL     1       2.547   1.732  17.644  0.00  0.00    +0.000 N 
ATOM      2  C   UNL     1       2.264   2.874  18.401  0.00  0.00    +0.000 A 
ATOM      3  C   UNL     1       2.634   4.132  17.949  0.00  0.00    +0.000 A 
ATOM      4  C   UNL     1       2.346   5.258  18.725  0.00  0.00    +0.000 A 
ATOM      5  C   UNL     1       1.730   5.042  19.948  0.00  0.00    +0.000 A 
ATOM      6  N   UNL     1       1.388   3.800  20.371  0.00  0.00    +0.000 NA
ATOM      7  N   UNL     1       1.663   2.714  19.589  0.00  0.00    +0.000 NA
ATOM      8  C   UNL     1       1.356   6.174  20.849  0.00  0.00    +0.000 C 
ATOM      9  C   UNL     1       2.074   7.463  20.486  0.00  0.00    +0.000 C 
ATOM     10  N   UNL     1       2.075   7.700  19.044  0.00  0.00    +0.000 N 
ATOM     11  C   UNL     1       1.843   8.913  18.409  0.00  0.00    +0.000 C 
ATOM     12  O   UNL     1       2.174   9.045  17.221  0.00  0.00    +0.000 OA
ATOM     13  C   UNL     1       2.736   6.639  18.273  0.00  0.00    +0.000 C 
ATOM     14  H   UNL     1       2.176   1.810  16.704  0.00  0.00    +0.000 HD
ATOM     15  H   UNL     1       2.149   0.933  18.142  0.00  0.00    +0.000 HD
ENDROOT
BRANCH  11  16
ATOM     16  C   UNL     1       1.012  10.047  19.016  0.00  0.00    +0.000 C 
ATOM     17  C   UNL     1       1.714  11.395  18.722  0.00  0.00    +0.000 C 
ATOM     18  C   UNL     1       0.651  12.465  18.959  0.00  0.00    +0.000 C 
ATOM     19  C   UNL     1      -0.543  11.752  18.423  0.00  0.00    +0.000 A 
ATOM     20  C   UNL     1      -1.682  12.315  17.877  0.00  0.00    +0.000 A 
ATOM     21  C   UNL     1      -2.731  11.461  17.537  0.00  0.00    +0.000 A 
ATOM     22  C   UNL     1      -2.650  10.089  17.820  0.00  0.00    +0.000 A 
ATOM     23  C   UNL     1      -1.482   9.527  18.356  0.00  0.00    +0.000 A 
ATOM     24  C   UNL     1      -0.398  10.362  18.577  0.00  0.00    +0.000 A 
ENDBRANCH  11  16
TORSDOF 1
ENDMDL
MODEL 5
REMARK VINA RESULT:      -7.2      1.957      2.635
REMARK  Name = 
REMARK  1 active torsions:
REMARK  status: ('A' for Active; 'I' for Inactive)
REMARK    1  A    between atoms: C_11  and  C_13
REMARK                            x       y       z     vdW  Elec       q    Type
REMARK                         _______ _______ _______ _____ _____    ______ ____
ROOT
ATOM      1  N   UNL     1       0.124  14.135  20.223  0.00  0.00    +0.000 N 
ATOM      2  C   UNL     1       0.432  12.789  20.451  0.00  0.00    +0.000 A 
ATOM      3  C   UNL     1       0.665  11.927  19.390  0.00  0.00    +0.000 A 
ATOM      4  C   UNL     1       0.965  10.585  19.642  0.00  0.00    +0.000 A 
ATOM      5  C   UNL     1       0.972  10.177  20.966  0.00  0.00    +0.000 A 
ATOM      6  N   UNL     1       0.731  11.038  21.985  0.00  0.00    +0.000 NA
ATOM      7  N   UNL     1       0.457  12.350  21.717  0.00  0.00    +0.000 NA
ATOM      8  C   UNL     1       1.302   8.771  21.353  0.00  0.00    +0.000 C 
ATOM      9  C   UNL     1       1.206   7.812  20.179  0.00  0.00    +0.000 C 
ATOM     10  N   UNL     1       1.826   8.360  18.974  0.00  0.00    +0.000 N 
ATOM     11  C   UNL     1       2.641   7.674  18.082  0.00  0.00    +0.000 C 
ATOM     12  O   UNL     1       2.844   8.156  16.957  0.00  0.00    +0.000 OA
ATOM     13  C   UNL     1       1.218   9.616  18.518  0.00  0.00    +0.000 C 
ATOM     14  H   UNL     1       0.829  14.583  19.649  0.00  0.00    +0.000 HD
ATOM     15  H   UNL     1       0.038  14.583  21.136  0.00  0.00    +0.000 HD
ENDROOT
BRANCH  11  16
ATOM     16  C   UNL     1       3.482   6.453  18.463  0.00  0.00    +0.000 C 
ATOM     17  C   UNL     1       2.661   5.171  18.179  0.00  0.00    +0.000 C 
ATOM     18  C   UNL     1       3.680   4.034  18.164  0.00  0.00    +0.000 C 
ATOM     19  C   UNL     1       4.821   4.729  17.505  0.00  0.00    +0.000 A 
ATOM     20  C   UNL     1       5.827   4.160  16.747  0.00  0.00    +0.000 A 
ATOM     21  C   UNL     1       6.863   4.987  16.314  0.00  0.00    +0.000 A 
ATOM     22  C   UNL     1       6.911   6.332  16.711  0.00  0.00    +0.000 A 
ATOM     23  C   UNL     1       5.875   6.903  17.464  0.00  0.00    +0.000 A 
ATOM     24  C   UNL     1       4.787   6.107  17.787  0.00  0.00    +0.000 A 
ENDBRANCH  11  16
TORSDOF 1
ENDMDL
MODEL 6
REMARK VINA RESULT:      -7.1      1.784      3.190
REMARK  Name = 
REMARK  1 active torsions:
REMARK  status: ('A' for Active; 'I' for Inactive)
REMARK    1  A    between atoms: C_11  and  C_13
REMARK                            x       y       z     vdW  Elec       q    Type
REMARK                         _______ _______ _______ _____ _____    ______ ____
ROOT
ATOM      1  N   UNL     1      -2.905  13.108  21.388  0.00  0.00    +0.000 N 
ATOM      2  C   UNL     1      -2.205  12.264  20.519  0.00  0.00    +0.000 A 
ATOM      3  C   UNL     1      -1.090  11.564  20.957  0.00  0.00    +0.000 A 
ATOM      4  C   UNL     1      -0.402  10.732  20.069  0.00  0.00    +0.000 A 
ATOM      5  C   UNL     1      -0.862  10.685  18.763  0.00  0.00    +0.000 A 
ATOM      6  N   UNL     1      -1.949  11.387  18.357  0.00  0.00    +0.000 NA
ATOM      7  N   UNL     1      -2.617  12.182  19.246  0.00  0.00    +0.000 NA
ATOM      8  C   UNL     1      -0.218   9.812  17.735  0.00  0.00    +0.000 C 
ATOM      9  C   UNL     1       1.168   9.351  18.155  0.00  0.00    +0.000 C 
ATOM     10  N   UNL     1       1.198   8.914  19.550  0.00  0.00    +0.000 N 
ATOM     11  C   UNL     1       1.847   7.791  20.046  0.00  0.00    +0.000 C 
ATOM     12  O   UNL     1       2.054   7.704  21.266  0.00  0.00    +0.000 OA
ATOM     13  C   UNL     1       0.815   9.961  20.504  0.00  0.00    +0.000 C 
ATOM     14  H   UNL     1      -3.196  12.617  22.226  0.00  0.00    +0.000 HD
ATOM     15  H   UNL     1      -3.704  13.478  20.870  0.00  0.00    +0.000 HD
ENDROOT
BRANCH  11  16
ATOM     16  C   UNL     1       2.150   6.543  19.212  0.00  0.00    +0.000 C 
ATOM     17  C   UNL     1       3.620   6.607  18.731  0.00  0.00    +0.000 C 
ATOM     18  C   UNL     1       3.967   5.183  18.300  0.00  0.00    +0.000 C 
ATOM     19  C   UNL     1       3.225   4.420  19.343  0.00  0.00    +0.000 A 
ATOM     20  C   UNL     1       3.521   3.161  19.832  0.00  0.00    +0.000 A 
ATOM     21  C   UNL     1       2.626   2.586  20.733  0.00  0.00    +0.000 A 
ATOM     22  C   UNL     1       1.428   3.240  21.059  0.00  0.00    +0.000 A 
ATOM     23  C   UNL     1       1.148   4.525  20.572  0.00  0.00    +0.000 A 
ATOM     24  C   UNL     1       2.099   5.143  19.775  0.00  0.00    +0.000 A 
ENDBRANCH  11  16
TORSDOF 1
ENDMDL
MODEL 7
REMARK VINA RESULT:      -7.0      1.959      3.120
REMARK  Name = 
REMARK  1 active torsions:
REMARK  status: ('A' for Active; 'I' for Inactive)
REMARK    1  A    between atoms: C_11  and  C_13
REMARK                            x       y       z     vdW  Elec       q    Type
REMARK                         _______ _______ _______ _____ _____    ______ ____
ROOT
ATOM      1  N   UNL     1       0.289  12.426  20.938  0.00  0.00    +0.000 N 
ATOM      2  C   UNL     1       0.684  11.087  20.851  0.00  0.00    +0.000 A 
ATOM      3  C   UNL     1       1.069  10.541  19.635  0.00  0.00    +0.000 A 
ATOM      4  C   UNL     1       1.454   9.198  19.572  0.00  0.00    +0.000 A 
ATOM      5  C   UNL     1       1.388   8.465  20.746  0.00  0.00    +0.000 A 
ATOM      6  N   UNL     1       0.999   9.022  21.920  0.00  0.00    +0.000 NA
ATOM      7  N   UNL     1       0.642  10.340  21.963  0.00  0.00    +0.000 NA
ATOM      8  C   UNL     1       1.797   7.028  20.799  0.00  0.00    +0.000 C 
ATOM      9  C   UNL     1       1.872   6.398  19.419  0.00  0.00    +0.000 C 
ATOM     10  N   UNL     1       2.541   7.272  18.456  0.00  0.00    +0.000 N 
ATOM     11  C   UNL     1       3.476   6.885  17.505  0.00  0.00    +0.000 C 
ATOM     12  O   UNL     1       3.729   7.650  16.561  0.00  0.00    +0.000 OA
ATOM     13  C   UNL     1       1.872   8.566  18.272  0.00  0.00    +0.000 C 
ATOM     14  H   UNL     1       0.999  13.047  20.566  0.00  0.00    +0.000 HD
ATOM     15  H   UNL     1       0.095  12.620  21.922  0.00  0.00    +0.000 HD
ENDROOT
BRANCH  11  16
ATOM     16  C   UNL     1       4.378   5.656  17.648  0.00  0.00    +0.000 C 
ATOM     17  C   UNL     1       5.241   5.814  18.924  0.00  0.00    +0.000 C 
ATOM     18  C   UNL     1       5.770   4.414  19.230  0.00  0.00    +0.000 C 
ATOM     19  C   UNL     1       4.575   3.608  18.851  0.00  0.00    +0.000 A 
ATOM     20  C   UNL     1       4.203   2.373  19.349  0.00  0.00    +0.000 A 
ATOM     21  C   UNL     1       3.101   1.744  18.771  0.00  0.00    +0.000 A 
ATOM     22  C   UNL     1       2.452   2.320  17.669  0.00  0.00    +0.000 A 
ATOM     23  C   UNL     1       2.826   3.582  17.185  0.00  0.00    +0.000 A 
ATOM     24  C   UNL     1       3.843   4.258  17.842  0.00  0.00    +0.000 A 
ENDBRANCH  11  16
TORSDOF 1
ENDMDL
MODEL 8
REMARK VINA RESULT:      -6.9      2.839      7.543
REMARK  Name = 
REMARK  1 active torsions:
REMARK  status: ('A' for Active; 'I' for Inactive)
REMARK    1  A    between atoms: C_11  and  C_13
REMARK                            x       y       z     vdW  Elec       q    Type
REMARK                         _______ _______ _______ _____ _____    ______ ____
ROOT
ATOM      1  N   UNL     1       6.347   4.295  14.085  0.00  0.00    +0.000 N 
ATOM      2  C   UNL     1       5.579   4.508  15.235  0.00  0.00    +0.000 A 
ATOM      3  C   UNL     1       5.261   5.794  15.645  0.00  0.00    +0.000 A 
ATOM      4  C   UNL     1       4.498   5.983  16.801  0.00  0.00    +0.000 A 
ATOM      5  C   UNL     1       4.129   4.848  17.507  0.00  0.00    +0.000 A 
ATOM      6  N   UNL     1       4.461   3.602  17.089  0.00  0.00    +0.000 NA
ATOM      7  N   UNL     1       5.194   3.439  15.947  0.00  0.00    +0.000 NA
ATOM      8  C   UNL     1       3.294   4.930  18.744  0.00  0.00    +0.000 C 
ATOM      9  C   UNL     1       3.269   6.331  19.332  0.00  0.00    +0.000 C 
ATOM     10  N   UNL     1       3.081   7.352  18.303  0.00  0.00    +0.000 N 
ATOM     11  C   UNL     1       2.252   8.463  18.388  0.00  0.00    +0.000 C 
ATOM     12  O   UNL     1       2.416   9.400  17.591  0.00  0.00    +0.000 OA
ATOM     13  C   UNL     1       4.137   7.362  17.284  0.00  0.00    +0.000 C 
ATOM     14  H   UNL     1       5.938   4.752  13.277  0.00  0.00    +0.000 HD
ATOM     15  H   UNL     1       6.417   3.285  13.952  0.00  0.00    +0.000 HD
ENDROOT
BRANCH  11  16
ATOM     16  C   UNL     1       1.004   8.529  19.273  0.00  0.00    +0.000 C 
ATOM     17  C   UNL     1       1.440   8.486  20.757  0.00  0.00    +0.000 C 
ATOM     18  C   UNL     1       0.231   8.983  21.548  0.00  0.00    +0.000 C 
ATOM     19  C   UNL     1      -0.259  10.038  20.617  0.00  0.00    +0.000 A 
ATOM     20  C   UNL     1      -0.972  11.177  20.940  0.00  0.00    +0.000 A 
ATOM     21  C   UNL     1      -1.428  11.979  19.894  0.00  0.00    +0.000 A 
ATOM     22  C   UNL     1      -1.230  11.586  18.561  0.00  0.00    +0.000 A 
ATOM     23  C   UNL     1      -0.488  10.439  18.246  0.00  0.00    +0.000 A 
ATOM     24  C   UNL     1       0.068   9.713  19.288  0.00  0.00    +0.000 A 
ENDBRANCH  11  16
TORSDOF 1
ENDMDL
MODEL 9
REMARK VINA RESULT:      -6.7      5.247      9.855
REMARK  Name = 
REMARK  1 active torsions:
REMARK  status: ('A' for Active; 'I' for Inactive)
REMARK    1  A    between atoms: C_11  and  C_13
REMARK                            x       y       z     vdW  Elec       q    Type
REMARK                         _______ _______ _______ _____ _____    ______ ____
ROOT
ATOM      1  N   UNL     1       1.825   8.057  21.583  0.00  0.00    +0.000 N 
ATOM      2  C   UNL     1       1.004   9.169  21.368  0.00  0.00    +0.000 A 
ATOM      3  C   UNL     1       0.201   9.248  20.240  0.00  0.00    +0.000 A 
ATOM      4  C   UNL     1      -0.606  10.372  20.043  0.00  0.00    +0.000 A 
ATOM      5  C   UNL     1      -0.524  11.382  20.988  0.00  0.00    +0.000 A 
ATOM      6  N   UNL     1       0.277  11.285  22.077  0.00  0.00    +0.000 NA
ATOM      7  N   UNL     1       1.046  10.170  22.259  0.00  0.00    +0.000 NA
ATOM      8  C   UNL     1      -1.359  12.619  20.890  0.00  0.00    +0.000 C 
ATOM      9  C   UNL     1      -1.942  12.813  19.500  0.00  0.00    +0.000 C 
ATOM     10  N   UNL     1      -2.484  11.569  18.956  0.00  0.00    +0.000 N 
ATOM     11  C   UNL     1      -3.681  11.425  18.268  0.00  0.00    +0.000 C 
ATOM     12  O   UNL     1      -3.873  10.397  17.600  0.00  0.00    +0.000 OA
ATOM     13  C   UNL     1      -1.487  10.499  18.829  0.00  0.00    +0.000 C 
ATOM     14  H   UNL     1       1.294   7.194  21.559  0.00  0.00    +0.000 HD
ATOM     15  H   UNL     1       2.286   8.192  22.485  0.00  0.00    +0.000 HD
ENDROOT
BRANCH  11  16
ATOM     16  C   UNL     1      -4.880  12.362  18.438  0.00  0.00    +0.000 C 
ATOM     17  C   UNL     1      -6.032  11.871  17.527  0.00  0.00    +0.000 C 
ATOM     18  C   UNL     1      -7.288  12.559  18.058  0.00  0.00    +0.000 C 
ATOM     19  C   UNL     1      -6.999  12.512  19.519  0.00  0.00    +0.000 A 
ATOM     20  C   UNL     1      -7.913  12.491  20.556  0.00  0.00    +0.000 A 
ATOM     21  C   UNL     1      -7.421  12.559  21.859  0.00  0.00    +0.000 A 
ATOM     22  C   UNL     1      -6.047  12.726  22.092  0.00  0.00    +0.000 A 
ATOM     23  C   UNL     1      -5.128  12.727  21.033  0.00  0.00    +0.000 A 
ATOM     24  C   UNL     1      -5.611  12.535  19.748  0.00  0.00    +0.000 A 
ENDBRANCH  11  16
TORSDOF 1
ENDMDL
