MODEL 1
REMARK VINA RESULT:      -8.2      0.000      0.000
REMARK  Name = 
REMARK  2 active torsions:
REMARK  status: ('A' for Active; 'I' for Inactive)
REMARK    1  A    between atoms: C_4  and  C_5
REMARK    2  A    between atoms: C_7  and  C_8
REMARK                            x       y       z     vdW  Elec       q    Type
REMARK                         _______ _______ _______ _____ _____    ______ ____
ROOT
ATOM      1  C   UNL     1       5.676   4.287  15.697  0.00  0.00    +0.000 A 
ATOM      2  N   UNL     1       4.456   3.704  15.977  0.00  0.00    +0.000 NA
ATOM      3  C   UNL     1       4.270   3.841  17.280  0.00  0.00    +0.000 A 
ATOM      4  N   UNL     1       5.330   4.512  17.871  0.00  0.00    +0.000 N 
ATOM      5  C   UNL     1       5.575   4.856  19.205  0.00  0.00    +0.000 A 
ATOM      6  C   UNL     1       6.690   5.534  19.530  0.00  0.00    +0.000 A 
ATOM      7  C   UNL     1       7.611   5.912  18.479  0.00  0.00    +0.000 A 
ATOM      8  C   UNL     1       7.383   5.587  17.192  0.00  0.00    +0.000 A 
ATOM      9  C   UNL     1       6.222   4.833  16.844  0.00  0.00    +0.000 A 
ENDROOT
BRANCH   1  13
ATOM     10  C   UNL     1       7.299   4.348  11.746  0.00  0.00    +0.000 A 
ATOM     11  C   UNL     1       6.244   3.496  12.062  0.00  0.00    +0.000 A 
ATOM     12  C   UNL     1       5.719   3.478  13.359  0.00  0.00    +0.000 A 
ATOM     13  C   UNL     1       6.241   4.316  14.354  0.00  0.00    +0.000 A 
ATOM     14  C   UNL     1       7.323   5.148  14.025  0.00  0.00    +0.000 A 
ATOM     15  C   UNL     1       7.840   5.176  12.727  0.00  0.00    +0.000 A 
ENDBRANCH   1  13
BRANCH   3  16
ATOM     16  C   UNL     1       3.106   3.353  17.971  0.00  0.00    +0.000 A 
ATOM     17  C   UNL     1       1.822   3.873  17.961  0.00  0.00    +0.000 A 
ATOM     18  C   UNL     1       1.021   3.054  18.799  0.00  0.00    +0.000 A 
ATOM     19  C   UNL     1       1.856   2.076  19.275  0.00  0.00    +0.000 A 
ATOM     20  O   UNL     1       3.107   2.246  18.785  0.00  0.00    +0.000 OA
ENDBRANCH   3  16
TORSDOF 2
ENDMDL
MODEL 2
REMARK VINA RESULT:      -8.1      0.059      1.079
REMARK  Name = 
REMARK  2 active torsions:
REMARK  status: ('A' for Active; 'I' for Inactive)
REMARK    1  A    between atoms: C_4  and  C_5
REMARK    2  A    between atoms: C_7  and  C_8
REMARK                            x       y       z     vdW  Elec       q    Type
REMARK                         _______ _______ _______ _____ _____    ______ ____
ROOT
ATOM      1  C   UNL     1       5.638   4.262  15.713  0.00  0.00    +0.000 A 
ATOM      2  N   UNL     1       4.415   3.695  16.008  0.00  0.00    +0.000 NA
ATOM      3  C   UNL     1       4.242   3.842  17.311  0.00  0.00    +0.000 A 
ATOM      4  N   UNL     1       5.315   4.506  17.888  0.00  0.00    +0.000 N 
ATOM      5  C   UNL     1       5.576   4.857  19.218  0.00  0.00    +0.000 A 
ATOM      6  C   UNL     1       6.701   5.524  19.528  0.00  0.00    +0.000 A 
ATOM      7  C   UNL     1       7.616   5.885  18.465  0.00  0.00    +0.000 A 
ATOM      8  C   UNL     1       7.372   5.554  17.182  0.00  0.00    +0.000 A 
ATOM      9  C   UNL     1       6.201   4.810  16.850  0.00  0.00    +0.000 A 
ENDROOT
BRANCH   1  13
ATOM     10  C   UNL     1       7.290   4.322  11.774  0.00  0.00    +0.000 A 
ATOM     11  C   UNL     1       7.817   5.138  12.772  0.00  0.00    +0.000 A 
ATOM     12  C   UNL     1       7.269   5.116  14.059  0.00  0.00    +0.000 A 
ATOM     13  C   UNL     1       6.191   4.275  14.364  0.00  0.00    +0.000 A 
ATOM     14  C   UNL     1       5.654   3.480  13.338  0.00  0.00    +0.000 A 
ATOM     15  C   UNL     1       6.208   3.492  12.056  0.00  0.00    +0.000 A 
ENDBRANCH   1  13
BRANCH   3  16
ATOM     16  C   UNL     1       3.079   3.372  18.016  0.00  0.00    +0.000 A 
ATOM     17  C   UNL     1       1.817   3.943  18.067  0.00  0.00    +0.000 A 
ATOM     18  C   UNL     1       1.009   3.122  18.894  0.00  0.00    +0.000 A 
ATOM     19  C   UNL     1       1.815   2.092  19.303  0.00  0.00    +0.000 A 
ATOM     20  O   UNL     1       3.058   2.232  18.783  0.00  0.00    +0.000 OA
ENDBRANCH   3  16
TORSDOF 2
ENDMDL
MODEL 3
REMARK VINA RESULT:      -8.1      1.717      5.805
REMARK  Name = 
REMARK  2 active torsions:
REMARK  status: ('A' for Active; 'I' for Inactive)
REMARK    1  A    between atoms: C_4  and  C_5
REMARK    2  A    between atoms: C_7  and  C_8
REMARK                            x       y       z     vdW  Elec       q    Type
REMARK                         _______ _______ _______ _____ _____    ______ ____
ROOT
ATOM      1  C   UNL     1       4.255   4.122  17.486  0.00  0.00    +0.000 A 
ATOM      2  N   UNL     1       4.446   3.927  16.133  0.00  0.00    +0.000 NA
ATOM      3  C   UNL     1       5.637   4.431  15.851  0.00  0.00    +0.000 A 
ATOM      4  N   UNL     1       6.247   4.943  16.987  0.00  0.00    +0.000 N 
ATOM      5  C   UNL     1       7.479   5.584  17.162  0.00  0.00    +0.000 A 
ATOM      6  C   UNL     1       7.860   5.982  18.387  0.00  0.00    +0.000 A 
ATOM      7  C   UNL     1       6.987   5.719  19.512  0.00  0.00    +0.000 A 
ATOM      8  C   UNL     1       5.801   5.101  19.354  0.00  0.00    +0.000 A 
ATOM      9  C   UNL     1       5.371   4.711  18.050  0.00  0.00    +0.000 A 
ENDROOT
BRANCH   1  13
ATOM     10  C   UNL     1       0.687   2.884  19.483  0.00  0.00    +0.000 A 
ATOM     11  C   UNL     1       1.343   2.019  18.610  0.00  0.00    +0.000 A 
ATOM     12  C   UNL     1       2.509   2.432  17.956  0.00  0.00    +0.000 A 
ATOM     13  C   UNL     1       3.035   3.713  18.172  0.00  0.00    +0.000 A 
ATOM     14  C   UNL     1       2.345   4.581  19.034  0.00  0.00    +0.000 A 
ATOM     15  C   UNL     1       1.188   4.165  19.696  0.00  0.00    +0.000 A 
ENDBRANCH   1  13
BRANCH   3  16
ATOM     16  C   UNL     1       6.206   4.429  14.530  0.00  0.00    +0.000 A 
ATOM     17  C   UNL     1       5.869   3.628  13.451  0.00  0.00    +0.000 A 
ATOM     18  C   UNL     1       6.712   3.990  12.368  0.00  0.00    +0.000 A 
ATOM     19  C   UNL     1       7.518   4.993  12.840  0.00  0.00    +0.000 A 
ATOM     20  O   UNL     1       7.224   5.265  14.134  0.00  0.00    +0.000 OA
ENDBRANCH   3  16
TORSDOF 2
ENDMDL
MODEL 4
REMARK VINA RESULT:      -8.1      1.719      5.878
REMARK  Name = 
REMARK  2 active torsions:
REMARK  status: ('A' for Active; 'I' for Inactive)
REMARK    1  A    between atoms: C_4  and  C_5
REMARK    2  A    between atoms: C_7  and  C_8
REMARK                            x       y       z     vdW  Elec       q    Type
REMARK                         _______ _______ _______ _____ _____    ______ ____
ROOT
ATOM      1  C   UNL     1       4.260   4.094  17.465  0.00  0.00    +0.000 A 
ATOM      2  N   UNL     1       4.454   3.906  16.111  0.00  0.00    +0.000 NA
ATOM      3  C   UNL     1       5.640   4.422  15.831  0.00  0.00    +0.000 A 
ATOM      4  N   UNL     1       6.244   4.936  16.969  0.00  0.00    +0.000 N 
ATOM      5  C   UNL     1       7.470   5.588  17.148  0.00  0.00    +0.000 A 
ATOM      6  C   UNL     1       7.847   5.985  18.375  0.00  0.00    +0.000 A 
ATOM      7  C   UNL     1       6.976   5.709  19.498  0.00  0.00    +0.000 A 
ATOM      8  C   UNL     1       5.796   5.080  19.337  0.00  0.00    +0.000 A 
ATOM      9  C   UNL     1       5.370   4.692  18.031  0.00  0.00    +0.000 A 
ENDROOT
BRANCH   1  13
ATOM     10  C   UNL     1       0.689   2.893  19.479  0.00  0.00    +0.000 A 
ATOM     11  C   UNL     1       1.214   4.168  19.673  0.00  0.00    +0.000 A 
ATOM     12  C   UNL     1       2.385   4.555  19.013  0.00  0.00    +0.000 A 
ATOM     13  C   UNL     1       3.044   3.671  18.148  0.00  0.00    +0.000 A 
ATOM     14  C   UNL     1       2.516   2.379  17.985  0.00  0.00    +0.000 A 
ATOM     15  C   UNL     1       1.339   1.997  18.634  0.00  0.00    +0.000 A 
ENDBRANCH   1  13
BRANCH   3  16
ATOM     16  C   UNL     1       6.210   4.431  14.510  0.00  0.00    +0.000 A 
ATOM     17  C   UNL     1       5.879   3.633  13.427  0.00  0.00    +0.000 A 
ATOM     18  C   UNL     1       6.720   4.006  12.347  0.00  0.00    +0.000 A 
ATOM     19  C   UNL     1       7.519   5.012  12.825  0.00  0.00    +0.000 A 
ATOM     20  O   UNL     1       7.222   5.275  14.119  0.00  0.00    +0.000 OA
ENDBRANCH   3  16
TORSDOF 2
ENDMDL
MODEL 5
REMARK VINA RESULT:      -8.0      3.657      6.889
REMARK  Name = 
REMARK  2 active torsions:
REMARK  status: ('A' for Active; 'I' for Inactive)
REMARK    1  A    between atoms: C_4  and  C_5
REMARK    2  A    between atoms: C_7  and  C_8
REMARK                            x       y       z     vdW  Elec       q    Type
REMARK                         _______ _______ _______ _____ _____    ______ ____
ROOT
ATOM      1  C   UNL     1       2.587   6.652  19.164  0.00  0.00    +0.000 A 
ATOM      2  N   UNL     1       3.611   6.610  18.240  0.00  0.00    +0.000 NA
ATOM      3  C   UNL     1       4.012   5.350  18.188  0.00  0.00    +0.000 A 
ATOM      4  N   UNL     1       3.269   4.551  19.045  0.00  0.00    +0.000 N 
ATOM      5  C   UNL     1       3.352   3.184  19.336  0.00  0.00    +0.000 A 
ATOM      6  C   UNL     1       2.493   2.630  20.208  0.00  0.00    +0.000 A 
ATOM      7  C   UNL     1       1.479   3.465  20.818  0.00  0.00    +0.000 A 
ATOM      8  C   UNL     1       1.390   4.780  20.543  0.00  0.00    +0.000 A 
ATOM      9  C   UNL     1       2.324   5.384  19.649  0.00  0.00    +0.000 A 
ENDROOT
BRANCH   1  13
ATOM     10  C   UNL     1       0.564  10.284  20.149  0.00  0.00    +0.000 A 
ATOM     11  C   UNL     1       1.008  10.053  18.849  0.00  0.00    +0.000 A 
ATOM     12  C   UNL     1       1.672   8.863  18.533  0.00  0.00    +0.000 A 
ATOM     13  C   UNL     1       1.898   7.888  19.514  0.00  0.00    +0.000 A 
ATOM     14  C   UNL     1       1.469   8.149  20.825  0.00  0.00    +0.000 A 
ATOM     15  C   UNL     1       0.793   9.331  21.139  0.00  0.00    +0.000 A 
ENDBRANCH   1  13
BRANCH   3  16
ATOM     16  C   UNL     1       5.078   4.891  17.338  0.00  0.00    +0.000 A 
ATOM     17  C   UNL     1       4.985   4.276  16.100  0.00  0.00    +0.000 A 
ATOM     18  C   UNL     1       6.304   4.002  15.656  0.00  0.00    +0.000 A 
ATOM     19  C   UNL     1       7.135   4.465  16.644  0.00  0.00    +0.000 A 
ATOM     20  O   UNL     1       6.411   4.999  17.656  0.00  0.00    +0.000 OA
ENDBRANCH   3  16
TORSDOF 2
ENDMDL
MODEL 6
REMARK VINA RESULT:      -8.0      3.267      6.758
REMARK  Name = 
REMARK  2 active torsions:
REMARK  status: ('A' for Active; 'I' for Inactive)
REMARK    1  A    between atoms: C_4  and  C_5
REMARK    2  A    between atoms: C_7  and  C_8
REMARK                            x       y       z     vdW  Elec       q    Type
REMARK                         _______ _______ _______ _____ _____    ______ ____
ROOT
ATOM      1  C   UNL     1       2.767   6.311  18.389  0.00  0.00    +0.000 A 
ATOM      2  N   UNL     1       3.879   6.457  17.584  0.00  0.00    +0.000 NA
ATOM      3  C   UNL     1       4.211   5.240  17.186  0.00  0.00    +0.000 A 
ATOM      4  N   UNL     1       3.339   4.290  17.695  0.00  0.00    +0.000 N 
ATOM      5  C   UNL     1       3.313   2.896  17.563  0.00  0.00    +0.000 A 
ATOM      6  C   UNL     1       2.337   2.184  18.151  0.00  0.00    +0.000 A 
ATOM      7  C   UNL     1       1.313   2.884  18.900  0.00  0.00    +0.000 A 
ATOM      8  C   UNL     1       1.328   4.224  19.030  0.00  0.00    +0.000 A 
ATOM      9  C   UNL     1       2.384   4.984  18.443  0.00  0.00    +0.000 A 
ENDROOT
BRANCH   1  13
ATOM     10  C   UNL     1       0.851   9.642  20.255  0.00  0.00    +0.000 A 
ATOM     11  C   UNL     1       1.118   9.657  18.888  0.00  0.00    +0.000 A 
ATOM     12  C   UNL     1       1.749   8.564  18.284  0.00  0.00    +0.000 A 
ATOM     13  C   UNL     1       2.116   7.442  19.038  0.00  0.00    +0.000 A 
ATOM     14  C   UNL     1       1.865   7.456  20.420  0.00  0.00    +0.000 A 
ATOM     15  C   UNL     1       1.223   8.541  21.023  0.00  0.00    +0.000 A 
ENDBRANCH   1  13
BRANCH   3  16
ATOM     16  C   UNL     1       5.334   4.964  16.329  0.00  0.00    +0.000 A 
ATOM     17  C   UNL     1       5.334   4.739  14.962  0.00  0.00    +0.000 A 
ATOM     18  C   UNL     1       6.677   4.504  14.567  0.00  0.00    +0.000 A 
ATOM     19  C   UNL     1       7.426   4.600  15.711  0.00  0.00    +0.000 A 
ATOM     20  O   UNL     1       6.632   4.875  16.772  0.00  0.00    +0.000 OA
ENDBRANCH   3  16
TORSDOF 2
ENDMDL
MODEL 7
REMARK VINA RESULT:      -8.0      3.258      6.730
REMARK  Name = 
REMARK  2 active torsions:
REMARK  status: ('A' for Active; 'I' for Inactive)
REMARK    1  A    between atoms: C_4  and  C_5
REMARK    2  A    between atoms: C_7  and  C_8
REMARK                            x       y       z     vdW  Elec       q    Type
REMARK                         _______ _______ _______ _____ _____    ______ ____
ROOT
ATOM      1  C   UNL     1       2.793   6.292  18.368  0.00  0.00    +0.000 A 
ATOM      2  N   UNL     1       3.882   6.430  17.531  0.00  0.00    +0.000 NA
ATOM      3  C   UNL     1       4.218   5.207  17.155  0.00  0.00    +0.000 A 
ATOM      4  N   UNL     1       3.371   4.260  17.712  0.00  0.00    +0.000 N 
ATOM      5  C   UNL     1       3.360   2.863  17.617  0.00  0.00    +0.000 A 
ATOM      6  C   UNL     1       2.409   2.155  18.250  0.00  0.00    +0.000 A 
ATOM      7  C   UNL     1       1.396   2.862  19.007  0.00  0.00    +0.000 A 
ATOM      8  C   UNL     1       1.398   4.206  19.102  0.00  0.00    +0.000 A 
ATOM      9  C   UNL     1       2.428   4.962  18.467  0.00  0.00    +0.000 A 
ENDROOT
BRANCH   1  13
ATOM     10  C   UNL     1       0.902   9.615  20.273  0.00  0.00    +0.000 A 
ATOM     11  C   UNL     1       1.218   8.471  21.001  0.00  0.00    +0.000 A 
ATOM     12  C   UNL     1       1.835   7.385  20.371  0.00  0.00    +0.000 A 
ATOM     13  C   UNL     1       2.145   7.432  19.005  0.00  0.00    +0.000 A 
ATOM     14  C   UNL     1       1.794   8.582  18.281  0.00  0.00    +0.000 A 
ATOM     15  C   UNL     1       1.190   9.672  18.912  0.00  0.00    +0.000 A 
ENDBRANCH   1  13
BRANCH   3  16
ATOM     16  C   UNL     1       5.321   4.921  16.276  0.00  0.00    +0.000 A 
ATOM     17  C   UNL     1       5.280   4.525  14.949  0.00  0.00    +0.000 A 
ATOM     18  C   UNL     1       6.619   4.358  14.510  0.00  0.00    +0.000 A 
ATOM     19  C   UNL     1       7.408   4.664  15.589  0.00  0.00    +0.000 A 
ATOM     20  O   UNL     1       6.641   5.002  16.652  0.00  0.00    +0.000 OA
ENDBRANCH   3  16
TORSDOF 2
ENDMDL
MODEL 8
REMARK VINA RESULT:      -8.0      3.649      6.896
REMARK  Name = 
REMARK  2 active torsions:
REMARK  status: ('A' for Active; 'I' for Inactive)
REMARK    1  A    between atoms: C_4  and  C_5
REMARK    2  A    between atoms: C_7  and  C_8
REMARK                            x       y       z     vdW  Elec       q    Type
REMARK                         _______ _______ _______ _____ _____    ______ ____
ROOT
ATOM      1  C   UNL     1       2.595   6.647  19.158  0.00  0.00    +0.000 A 
ATOM      2  N   UNL     1       3.624   6.607  18.239  0.00  0.00    +0.000 NA
ATOM      3  C   UNL     1       4.023   5.347  18.184  0.00  0.00    +0.000 A 
ATOM      4  N   UNL     1       3.275   4.545  19.034  0.00  0.00    +0.000 N 
ATOM      5  C   UNL     1       3.354   3.177  19.320  0.00  0.00    +0.000 A 
ATOM      6  C   UNL     1       2.490   2.621  20.185  0.00  0.00    +0.000 A 
ATOM      7  C   UNL     1       1.474   3.455  20.794  0.00  0.00    +0.000 A 
ATOM      8  C   UNL     1       1.388   4.771  20.523  0.00  0.00    +0.000 A 
ATOM      9  C   UNL     1       2.328   5.378  19.637  0.00  0.00    +0.000 A 
ENDROOT
BRANCH   1  13
ATOM     10  C   UNL     1       0.580  10.258  20.228  0.00  0.00    +0.000 A 
ATOM     11  C   UNL     1       0.810   9.270  21.182  0.00  0.00    +0.000 A 
ATOM     12  C   UNL     1       1.468   8.088  20.825  0.00  0.00    +0.000 A 
ATOM     13  C   UNL     1       1.906   7.883  19.510  0.00  0.00    +0.000 A 
ATOM     14  C   UNL     1       1.641   8.878  18.555  0.00  0.00    +0.000 A 
ATOM     15  C   UNL     1       0.996  10.064  18.914  0.00  0.00    +0.000 A 
ENDBRANCH   1  13
BRANCH   3  16
ATOM     16  C   UNL     1       5.094   4.889  17.338  0.00  0.00    +0.000 A 
ATOM     17  C   UNL     1       5.006   4.289  16.092  0.00  0.00    +0.000 A 
ATOM     18  C   UNL     1       6.327   4.011  15.657  0.00  0.00    +0.000 A 
ATOM     19  C   UNL     1       7.153   4.457  16.656  0.00  0.00    +0.000 A 
ATOM     20  O   UNL     1       6.425   4.984  17.668  0.00  0.00    +0.000 OA
ENDBRANCH   3  16
TORSDOF 2
ENDMDL
MODEL 9
REMARK VINA RESULT:      -7.8      3.358      4.919
REMARK  Name = 
REMARK  2 active torsions:
REMARK  status: ('A' for Active; 'I' for Inactive)
REMARK    1  A    between atoms: C_4  and  C_5
REMARK    2  A    between atoms: C_7  and  C_8
REMARK                            x       y       z     vdW  Elec       q    Type
REMARK                         _______ _______ _______ _____ _____    ______ ____
ROOT
ATOM      1  C   UNL     1       3.925   5.268  18.331  0.00  0.00    +0.000 A 
ATOM      2  N   UNL     1       3.560   6.577  18.579  0.00  0.00    +0.000 NA
ATOM      3  C   UNL     1       2.533   6.524  19.411  0.00  0.00    +0.000 A 
ATOM      4  N   UNL     1       2.214   5.213  19.733  0.00  0.00    +0.000 N 
ATOM      5  C   UNL     1       1.204   4.681  20.544  0.00  0.00    +0.000 A 
ATOM      6  C   UNL     1       1.110   3.352  20.714  0.00  0.00    +0.000 A 
ATOM      7  C   UNL     1       2.077   2.492  20.063  0.00  0.00    +0.000 A 
ATOM      8  C   UNL     1       3.054   2.994  19.284  0.00  0.00    +0.000 A 
ATOM      9  C   UNL     1       3.136   4.402  19.065  0.00  0.00    +0.000 A 
ENDROOT
BRANCH   1  13
ATOM     10  C   UNL     1       7.103   4.237  15.669  0.00  0.00    +0.000 A 
ATOM     11  C   UNL     1       5.779   4.190  15.239  0.00  0.00    +0.000 A 
ATOM     12  C   UNL     1       4.743   4.526  16.117  0.00  0.00    +0.000 A 
ATOM     13  C   UNL     1       5.019   4.917  17.434  0.00  0.00    +0.000 A 
ATOM     14  C   UNL     1       6.357   4.931  17.859  0.00  0.00    +0.000 A 
ATOM     15  C   UNL     1       7.394   4.608  16.980  0.00  0.00    +0.000 A 
ENDBRANCH   1  13
BRANCH   3  16
ATOM     16  C   UNL     1       1.854   7.691  19.909  0.00  0.00    +0.000 A 
ATOM     17  C   UNL     1       1.429   7.950  21.202  0.00  0.00    +0.000 A 
ATOM     18  C   UNL     1       0.805   9.225  21.201  0.00  0.00    +0.000 A 
ATOM     19  C   UNL     1       0.884   9.678  19.909  0.00  0.00    +0.000 A 
ATOM     20  O   UNL     1       1.510   8.768  19.127  0.00  0.00    +0.000 OA
ENDBRANCH   3  16
TORSDOF 2
ENDMDL
