MODEL 1
REMARK VINA RESULT:      -7.2      0.000      0.000
REMARK  Name = 
REMARK  10 active torsions:
REMARK  status: ('A' for Active; 'I' for Inactive)
REMARK    1  A    between atoms: C_1  and  C_2
REMARK    2  A    between atoms: C_2  and  C_3
REMARK    3  A    between atoms: C_3  and  C_4
REMARK    4  A    between atoms: C_4  and  C_5
REMARK    5  A    between atoms: C_5  and  C_6
REMARK    6  A    between atoms: C_6  and  O_8
REMARK    7  A    between atoms: O_8  and  C_9
REMARK    8  A    between atoms: C_9  and  C_10
REMARK    9  A    between atoms: C_12  and  C_13
REMARK   10  A    between atoms: C_13  and  N_14
REMARK                            x       y       z     vdW  Elec       q    Type
REMARK                         _______ _______ _______ _____ _____    ______ ____
ROOT
ATOM      1  C   UNL     1       6.498   5.094  16.686  0.00  0.00    +0.000 C 
ATOM      2  C   UNL     1       5.075   4.708  17.100  0.00  0.00    +0.000 C 
ATOM      3  C   UNL     1       5.151   4.679  18.613  0.00  0.00    +0.000 C 
ATOM      4  O   UNL     1       6.452   4.138  18.851  0.00  0.00    +0.000 OA
ATOM      5  C   UNL     1       7.282   4.454  17.808  0.00  0.00    +0.000 C 
ATOM      6  O   UNL     1       8.475   4.200  17.812  0.00  0.00    +0.000 OA
ENDROOT
BRANCH   1   7
ATOM      7  C   UNL     1       6.622   6.606  16.604  0.00  0.00    +0.000 C 
ATOM      8  O   UNL     1       5.690   7.319  16.260  0.00  0.00    +0.000 OA
BRANCH   7   9
ATOM      9  O   UNL     1       7.871   7.053  16.883  0.00  0.00    +0.000 OA
BRANCH   9  10
ATOM     10  C   UNL     1       8.040   7.755  18.129  0.00  0.00    +0.000 C 
ATOM     11  C   UNL     1       8.193   9.247  17.914  0.00  0.00    +0.000 C 
ENDBRANCH   9  10
ENDBRANCH   7   9
ENDBRANCH   1   7
BRANCH   1  12
ATOM     12  C   UNL     1       6.810   4.458  15.312  0.00  0.00    +0.000 C 
BRANCH  12  13
ATOM     13  C   UNL     1       5.696   3.604  14.692  0.00  0.00    +0.000 C 
BRANCH  13  15
ATOM     14  C   UNL     1       6.211   3.258  12.238  0.00  0.00    +0.000 C 
ATOM     15  C   UNL     1       5.415   4.059  13.256  0.00  0.00    +0.000 C 
ENDBRANCH  13  15
ENDBRANCH  12  13
ENDBRANCH   1  12
BRANCH   3  16
ATOM     16  C   UNL     1       4.028   3.807  19.226  0.00  0.00    +0.000 C 
BRANCH  16  17
ATOM     17  N   UNL     1       2.759   4.523  19.452  0.00  0.00    +0.000 NA
ATOM     18  C   UNL     1       2.284   4.487  20.855  0.00  0.00    +0.000 C 
ATOM     19  C   UNL     1       1.663   3.147  21.284  0.00  0.00    +0.000 C 
ATOM     20  O   UNL     1       0.578   2.786  20.420  0.00  0.00    +0.000 OA
ATOM     21  C   UNL     1       1.029   2.689  19.066  0.00  0.00    +0.000 C 
ATOM     22  C   UNL     1       1.671   4.005  18.587  0.00  0.00    +0.000 C 
ENDBRANCH  16  17
ENDBRANCH   3  16
TORSDOF 8
ENDMDL
MODEL 2
REMARK VINA RESULT:      -7.2      0.822      1.042
REMARK  Name = 
REMARK  10 active torsions:
REMARK  status: ('A' for Active; 'I' for Inactive)
REMARK    1  A    between atoms: C_1  and  C_2
REMARK    2  A    between atoms: C_2  and  C_3
REMARK    3  A    between atoms: C_3  and  C_4
REMARK    4  A    between atoms: C_4  and  C_5
REMARK    5  A    between atoms: C_5  and  C_6
REMARK    6  A    between atoms: C_6  and  O_8
REMARK    7  A    between atoms: O_8  and  C_9
REMARK    8  A    between atoms: C_9  and  C_10
REMARK    9  A    between atoms: C_12  and  C_13
REMARK   10  A    between atoms: C_13  and  N_14
REMARK                            x       y       z     vdW  Elec       q    Type
REMARK                         _______ _______ _______ _____ _____    ______ ____
ROOT
ATOM      1  C   UNL     1       6.163   5.250  16.778  0.00  0.00    +0.000 C 
ATOM      2  C   UNL     1       4.781   4.589  16.744  0.00  0.00    +0.000 C 
ATOM      3  C   UNL     1       4.522   4.253  18.198  0.00  0.00    +0.000 C 
ATOM      4  O   UNL     1       5.816   3.863  18.664  0.00  0.00    +0.000 OA
ATOM      5  C   UNL     1       6.783   4.504  17.936  0.00  0.00    +0.000 C 
ATOM      6  O   UNL     1       7.971   4.425  18.201  0.00  0.00    +0.000 OA
ENDROOT
BRANCH   1   7
ATOM      7  C   UNL     1       6.016   6.746  16.988  0.00  0.00    +0.000 C 
ATOM      8  O   UNL     1       4.942   7.266  17.255  0.00  0.00    +0.000 OA
BRANCH   7   9
ATOM      9  O   UNL     1       7.170   7.428  16.784  0.00  0.00    +0.000 OA
BRANCH   9  10
ATOM     10  C   UNL     1       7.900   7.826  17.960  0.00  0.00    +0.000 C 
ATOM     11  C   UNL     1       8.228   9.305  17.942  0.00  0.00    +0.000 C 
ENDBRANCH   9  10
ENDBRANCH   7   9
ENDBRANCH   1   7
BRANCH   1  12
ATOM     12  C   UNL     1       6.886   4.967  15.441  0.00  0.00    +0.000 C 
BRANCH  12  13
ATOM     13  C   UNL     1       6.359   3.780  14.622  0.00  0.00    +0.000 C 
BRANCH  13  15
ATOM     14  C   UNL     1       5.932   3.113  12.219  0.00  0.00    +0.000 C 
ATOM     15  C   UNL     1       5.921   4.248  13.230  0.00  0.00    +0.000 C 
ENDBRANCH  13  15
ENDBRANCH  12  13
ENDBRANCH   1  12
BRANCH   3  16
ATOM     16  C   UNL     1       3.475   3.123  18.348  0.00  0.00    +0.000 C 
BRANCH  16  17
ATOM     17  N   UNL     1       2.101   3.598  18.596  0.00  0.00    +0.000 NA
ATOM     18  C   UNL     1       2.026   4.855  19.376  0.00  0.00    +0.000 C 
ATOM     19  C   UNL     1       2.295   4.689  20.881  0.00  0.00    +0.000 C 
ATOM     20  O   UNL     1       1.397   3.733  21.459  0.00  0.00    +0.000 OA
ATOM     21  C   UNL     1       1.532   2.465  20.809  0.00  0.00    +0.000 C 
ATOM     22  C   UNL     1       1.282   2.576  19.293  0.00  0.00    +0.000 C 
ENDBRANCH  16  17
ENDBRANCH   3  16
TORSDOF 8
ENDMDL
MODEL 3
REMARK VINA RESULT:      -7.1      1.472      2.063
REMARK  Name = 
REMARK  10 active torsions:
REMARK  status: ('A' for Active; 'I' for Inactive)
REMARK    1  A    between atoms: C_1  and  C_2
REMARK    2  A    between atoms: C_2  and  C_3
REMARK    3  A    between atoms: C_3  and  C_4
REMARK    4  A    between atoms: C_4  and  C_5
REMARK    5  A    between atoms: C_5  and  C_6
REMARK    6  A    between atoms: C_6  and  O_8
REMARK    7  A    between atoms: O_8  and  C_9
REMARK    8  A    between atoms: C_9  and  C_10
REMARK    9  A    between atoms: C_12  and  C_13
REMARK   10  A    between atoms: C_13  and  N_14
REMARK                            x       y       z     vdW  Elec       q    Type
REMARK                         _______ _______ _______ _____ _____    ______ ____
ROOT
ATOM      1  C   UNL     1       6.051   5.117  16.695  0.00  0.00    +0.000 C 
ATOM      2  C   UNL     1       4.763   4.289  16.718  0.00  0.00    +0.000 C 
ATOM      3  C   UNL     1       4.531   4.051  18.196  0.00  0.00    +0.000 C 
ATOM      4  O   UNL     1       5.857   3.866  18.695  0.00  0.00    +0.000 OA
ATOM      5  C   UNL     1       6.745   4.558  17.915  0.00  0.00    +0.000 C 
ATOM      6  O   UNL     1       7.931   4.651  18.186  0.00  0.00    +0.000 OA
ENDROOT
BRANCH   1   7
ATOM      7  C   UNL     1       5.717   6.596  16.774  0.00  0.00    +0.000 C 
ATOM      8  O   UNL     1       6.580   7.455  16.891  0.00  0.00    +0.000 OA
BRANCH   7   9
ATOM      9  O   UNL     1       4.385   6.842  16.769  0.00  0.00    +0.000 OA
BRANCH   9  10
ATOM     10  C   UNL     1       3.853   7.533  17.916  0.00  0.00    +0.000 C 
ATOM     11  C   UNL     1       2.517   8.180  17.610  0.00  0.00    +0.000 C 
ENDBRANCH   9  10
ENDBRANCH   7   9
ENDBRANCH   1   7
BRANCH   1  12
ATOM     12  C   UNL     1       6.819   4.812  15.389  0.00  0.00    +0.000 C 
BRANCH  12  13
ATOM     13  C   UNL     1       6.197   3.754  14.467  0.00  0.00    +0.000 C 
BRANCH  13  15
ATOM     14  C   UNL     1       5.782   3.153  12.044  0.00  0.00    +0.000 C 
ATOM     15  C   UNL     1       6.537   4.058  13.004  0.00  0.00    +0.000 C 
ENDBRANCH  13  15
ENDBRANCH  12  13
ENDBRANCH   1  12
BRANCH   3  16
ATOM     16  C   UNL     1       3.630   2.815  18.443  0.00  0.00    +0.000 C 
BRANCH  16  17
ATOM     17  N   UNL     1       2.185   3.086  18.326  0.00  0.00    +0.000 NA
ATOM     18  C   UNL     1       1.807   4.489  18.610  0.00  0.00    +0.000 C 
ATOM     19  C   UNL     1       1.808   4.862  20.102  0.00  0.00    +0.000 C 
ATOM     20  O   UNL     1       0.947   3.992  20.848  0.00  0.00    +0.000 OA
ATOM     21  C   UNL     1       1.361   2.631  20.696  0.00  0.00    +0.000 C 
ATOM     22  C   UNL     1       1.387   2.207  19.216  0.00  0.00    +0.000 C 
ENDBRANCH  16  17
ENDBRANCH   3  16
TORSDOF 8
ENDMDL
MODEL 4
REMARK VINA RESULT:      -7.0      1.068      1.388
REMARK  Name = 
REMARK  10 active torsions:
REMARK  status: ('A' for Active; 'I' for Inactive)
REMARK    1  A    between atoms: C_1  and  C_2
REMARK    2  A    between atoms: C_2  and  C_3
REMARK    3  A    between atoms: C_3  and  C_4
REMARK    4  A    between atoms: C_4  and  C_5
REMARK    5  A    between atoms: C_5  and  C_6
REMARK    6  A    between atoms: C_6  and  O_8
REMARK    7  A    between atoms: O_8  and  C_9
REMARK    8  A    between atoms: C_9  and  C_10
REMARK    9  A    between atoms: C_12  and  C_13
REMARK   10  A    between atoms: C_13  and  N_14
REMARK                            x       y       z     vdW  Elec       q    Type
REMARK                         _______ _______ _______ _____ _____    ______ ____
ROOT
ATOM      1  C   UNL     1       6.084   4.855  16.240  0.00  0.00    +0.000 C 
ATOM      2  C   UNL     1       4.765   4.130  16.522  0.00  0.00    +0.000 C 
ATOM      3  C   UNL     1       4.726   4.058  18.035  0.00  0.00    +0.000 C 
ATOM      4  O   UNL     1       6.096   3.828  18.372  0.00  0.00    +0.000 OA
ATOM      5  C   UNL     1       6.906   4.372  17.411  0.00  0.00    +0.000 C 
ATOM      6  O   UNL     1       8.121   4.405  17.512  0.00  0.00    +0.000 OA
ENDROOT
BRANCH   1   7
ATOM      7  C   UNL     1       5.852   6.355  16.200  0.00  0.00    +0.000 C 
ATOM      8  O   UNL     1       5.363   6.915  15.229  0.00  0.00    +0.000 OA
BRANCH   7   9
ATOM      9  O   UNL     1       6.300   6.993  17.309  0.00  0.00    +0.000 OA
BRANCH   9  10
ATOM     10  C   UNL     1       7.503   7.771  17.163  0.00  0.00    +0.000 C 
ATOM     11  C   UNL     1       8.302   7.815  18.450  0.00  0.00    +0.000 C 
ENDBRANCH   9  10
ENDBRANCH   7   9
ENDBRANCH   1   7
BRANCH   1  12
ATOM     12  C   UNL     1       6.644   4.366  14.885  0.00  0.00    +0.000 C 
BRANCH  12  13
ATOM     13  C   UNL     1       5.669   3.594  13.986  0.00  0.00    +0.000 C 
BRANCH  13  15
ATOM     14  C   UNL     1       5.251   2.838  11.607  0.00  0.00    +0.000 C 
ATOM     15  C   UNL     1       6.257   3.432  12.580  0.00  0.00    +0.000 C 
ENDBRANCH  13  15
ENDBRANCH  12  13
ENDBRANCH   1  12
BRANCH   3  16
ATOM     16  C   UNL     1       3.797   2.922  18.530  0.00  0.00    +0.000 C 
BRANCH  16  17
ATOM     17  N   UNL     1       3.383   3.050  19.940  0.00  0.00    +0.000 NA
ATOM     18  C   UNL     1       2.149   2.305  20.279  0.00  0.00    +0.000 C 
ATOM     19  C   UNL     1       0.850   2.962  19.785  0.00  0.00    +0.000 C 
ATOM     20  O   UNL     1       0.731   4.300  20.283  0.00  0.00    +0.000 OA
ATOM     21  C   UNL     1       1.852   5.088  19.867  0.00  0.00    +0.000 C 
ATOM     22  C   UNL     1       3.183   4.468  20.329  0.00  0.00    +0.000 C 
ENDBRANCH  16  17
ENDBRANCH   3  16
TORSDOF 8
ENDMDL
MODEL 5
REMARK VINA RESULT:      -6.9      1.527      2.206
REMARK  Name = 
REMARK  10 active torsions:
REMARK  status: ('A' for Active; 'I' for Inactive)
REMARK    1  A    between atoms: C_1  and  C_2
REMARK    2  A    between atoms: C_2  and  C_3
REMARK    3  A    between atoms: C_3  and  C_4
REMARK    4  A    between atoms: C_4  and  C_5
REMARK    5  A    between atoms: C_5  and  C_6
REMARK    6  A    between atoms: C_6  and  O_8
REMARK    7  A    between atoms: O_8  and  C_9
REMARK    8  A    between atoms: C_9  and  C_10
REMARK    9  A    between atoms: C_12  and  C_13
REMARK   10  A    between atoms: C_13  and  N_14
REMARK                            x       y       z     vdW  Elec       q    Type
REMARK                         _______ _______ _______ _____ _____    ______ ____
ROOT
ATOM      1  C   UNL     1       5.807   5.301  16.448  0.00  0.00    +0.000 C 
ATOM      2  C   UNL     1       4.518   4.516  16.705  0.00  0.00    +0.000 C 
ATOM      3  C   UNL     1       4.647   4.103  18.157  0.00  0.00    +0.000 C 
ATOM      4  O   UNL     1       6.042   3.818  18.278  0.00  0.00    +0.000 OA
ATOM      5  C   UNL     1       6.748   4.574  17.380  0.00  0.00    +0.000 C 
ATOM      6  O   UNL     1       7.967   4.597  17.350  0.00  0.00    +0.000 OA
ENDROOT
BRANCH   1   7
ATOM      7  C   UNL     1       5.594   6.768  16.776  0.00  0.00    +0.000 C 
ATOM      8  O   UNL     1       6.510   7.500  17.123  0.00  0.00    +0.000 OA
BRANCH   7   9
ATOM      9  O   UNL     1       4.294   7.145  16.707  0.00  0.00    +0.000 OA
BRANCH   9  10
ATOM     10  C   UNL     1       3.697   7.624  17.927  0.00  0.00    +0.000 C 
ATOM     11  C   UNL     1       2.266   8.074  17.711  0.00  0.00    +0.000 C 
ENDBRANCH   9  10
ENDBRANCH   7   9
ENDBRANCH   1   7
BRANCH   1  12
ATOM     12  C   UNL     1       6.206   5.137  14.964  0.00  0.00    +0.000 C 
BRANCH  12  13
ATOM     13  C   UNL     1       5.886   3.781  14.321  0.00  0.00    +0.000 C 
BRANCH  13  15
ATOM     14  C   UNL     1       5.336   3.110  11.943  0.00  0.00    +0.000 C 
ATOM     15  C   UNL     1       6.358   3.760  12.863  0.00  0.00    +0.000 C 
ENDBRANCH  13  15
ENDBRANCH  12  13
ENDBRANCH   1  12
BRANCH   3  16
ATOM     16  C   UNL     1       3.763   2.874  18.484  0.00  0.00    +0.000 C 
BRANCH  16  17
ATOM     17  N   UNL     1       3.265   2.838  19.871  0.00  0.00    +0.000 NA
ATOM     18  C   UNL     1       1.963   2.149  20.030  0.00  0.00    +0.000 C 
ATOM     19  C   UNL     1       0.747   2.965  19.561  0.00  0.00    +0.000 C 
ATOM     20  O   UNL     1       0.686   4.227  20.237  0.00  0.00    +0.000 OA
ATOM     21  C   UNL     1       1.882   4.977  20.002  0.00  0.00    +0.000 C 
ATOM     22  C   UNL     1       3.135   4.200  20.446  0.00  0.00    +0.000 C 
ENDBRANCH  16  17
ENDBRANCH   3  16
TORSDOF 8
ENDMDL
MODEL 6
REMARK VINA RESULT:      -6.9      1.288      4.189
REMARK  Name = 
REMARK  10 active torsions:
REMARK  status: ('A' for Active; 'I' for Inactive)
REMARK    1  A    between atoms: C_1  and  C_2
REMARK    2  A    between atoms: C_2  and  C_3
REMARK    3  A    between atoms: C_3  and  C_4
REMARK    4  A    between atoms: C_4  and  C_5
REMARK    5  A    between atoms: C_5  and  C_6
REMARK    6  A    between atoms: C_6  and  O_8
REMARK    7  A    between atoms: O_8  and  C_9
REMARK    8  A    between atoms: C_9  and  C_10
REMARK    9  A    between atoms: C_12  and  C_13
REMARK   10  A    between atoms: C_13  and  N_14
REMARK                            x       y       z     vdW  Elec       q    Type
REMARK                         _______ _______ _______ _____ _____    ______ ____
ROOT
ATOM      1  C   UNL     1       6.630   5.733  17.913  0.00  0.00    +0.000 C 
ATOM      2  C   UNL     1       5.907   5.132  19.122  0.00  0.00    +0.000 C 
ATOM      3  C   UNL     1       4.497   4.918  18.611  0.00  0.00    +0.000 C 
ATOM      4  O   UNL     1       4.290   6.061  17.777  0.00  0.00    +0.000 OA
ATOM      5  C   UNL     1       5.490   6.487  17.272  0.00  0.00    +0.000 C 
ATOM      6  O   UNL     1       5.579   7.383  16.449  0.00  0.00    +0.000 OA
ENDROOT
BRANCH   1   7
ATOM      7  C   UNL     1       7.220   4.624  17.059  0.00  0.00    +0.000 C 
ATOM      8  O   UNL     1       8.316   4.133  17.292  0.00  0.00    +0.000 OA
BRANCH   7   9
ATOM      9  O   UNL     1       6.443   4.299  15.997  0.00  0.00    +0.000 OA
BRANCH   9  10
ATOM     10  C   UNL     1       6.979   4.592  14.693  0.00  0.00    +0.000 C 
ATOM     11  C   UNL     1       6.214   3.874  13.599  0.00  0.00    +0.000 C 
ENDBRANCH   9  10
ENDBRANCH   7   9
ENDBRANCH   1   7
BRANCH   1  12
ATOM     12  C   UNL     1       7.750   6.673  18.416  0.00  0.00    +0.000 C 
BRANCH  12  13
ATOM     13  C   UNL     1       7.859   8.034  17.715  0.00  0.00    +0.000 C 
BRANCH  13  15
ATOM     14  C   UNL     1       8.655  10.419  18.004  0.00  0.00    +0.000 C 
ATOM     15  C   UNL     1       8.672   9.010  18.573  0.00  0.00    +0.000 C 
ENDBRANCH  13  15
ENDBRANCH  12  13
ENDBRANCH   1  12
BRANCH   3  16
ATOM     16  C   UNL     1       3.473   4.840  19.770  0.00  0.00    +0.000 C 
BRANCH  16  17
ATOM     17  N   UNL     1       3.195   3.471  20.241  0.00  0.00    +0.000 NA
ATOM     18  C   UNL     1       3.283   2.436  19.185  0.00  0.00    +0.000 C 
ATOM     19  C   UNL     1       2.085   2.403  18.222  0.00  0.00    +0.000 C 
ATOM     20  O   UNL     1       0.857   2.226  18.938  0.00  0.00    +0.000 OA
ATOM     21  C   UNL     1       0.676   3.282  19.887  0.00  0.00    +0.000 C 
ATOM     22  C   UNL     1       1.856   3.367  20.873  0.00  0.00    +0.000 C 
ENDBRANCH  16  17
ENDBRANCH   3  16
TORSDOF 8
ENDMDL
MODEL 7
REMARK VINA RESULT:      -6.9      0.964      1.423
REMARK  Name = 
REMARK  10 active torsions:
REMARK  status: ('A' for Active; 'I' for Inactive)
REMARK    1  A    between atoms: C_1  and  C_2
REMARK    2  A    between atoms: C_2  and  C_3
REMARK    3  A    between atoms: C_3  and  C_4
REMARK    4  A    between atoms: C_4  and  C_5
REMARK    5  A    between atoms: C_5  and  C_6
REMARK    6  A    between atoms: C_6  and  O_8
REMARK    7  A    between atoms: O_8  and  C_9
REMARK    8  A    between atoms: C_9  and  C_10
REMARK    9  A    between atoms: C_12  and  C_13
REMARK   10  A    between atoms: C_13  and  N_14
REMARK                            x       y       z     vdW  Elec       q    Type
REMARK                         _______ _______ _______ _____ _____    ______ ____
ROOT
ATOM      1  C   UNL     1       6.009   4.975  16.752  0.00  0.00    +0.000 C 
ATOM      2  C   UNL     1       4.600   4.901  17.349  0.00  0.00    +0.000 C 
ATOM      3  C   UNL     1       4.831   5.188  18.819  0.00  0.00    +0.000 C 
ATOM      4  O   UNL     1       6.072   4.525  19.075  0.00  0.00    +0.000 OA
ATOM      5  C   UNL     1       6.819   4.483  17.929  0.00  0.00    +0.000 C 
ATOM      6  O   UNL     1       7.964   4.063  17.901  0.00  0.00    +0.000 OA
ENDROOT
BRANCH   1   7
ATOM      7  C   UNL     1       6.314   6.398  16.319  0.00  0.00    +0.000 C 
ATOM      8  O   UNL     1       5.501   7.085  15.716  0.00  0.00    +0.000 OA
BRANCH   7   9
ATOM      9  O   UNL     1       7.581   6.782  16.608  0.00  0.00    +0.000 OA
BRANCH   9  10
ATOM     10  C   UNL     1       7.773   7.481  17.853  0.00  0.00    +0.000 C 
ATOM     11  C   UNL     1       7.949   8.970  17.637  0.00  0.00    +0.000 C 
ENDBRANCH   9  10
ENDBRANCH   7   9
ENDBRANCH   1   7
BRANCH   1  12
ATOM     12  C   UNL     1       6.089   4.018  15.541  0.00  0.00    +0.000 C 
BRANCH  12  13
ATOM     13  C   UNL     1       6.217   4.679  14.161  0.00  0.00    +0.000 C 
BRANCH  13  15
ATOM     14  C   UNL     1       5.028   3.514  12.255  0.00  0.00    +0.000 C 
ATOM     15  C   UNL     1       6.310   3.611  13.067  0.00  0.00    +0.000 C 
ENDBRANCH  13  15
ENDBRANCH  12  13
ENDBRANCH   1  12
BRANCH   3  16
ATOM     16  C   UNL     1       3.678   4.644  19.697  0.00  0.00    +0.000 C 
BRANCH  16  17
ATOM     17  N   UNL     1       3.731   3.189  19.933  0.00  0.00    +0.000 NA
ATOM     18  C   UNL     1       3.347   2.371  18.760  0.00  0.00    +0.000 C 
ATOM     19  C   UNL     1       1.835   2.322  18.482  0.00  0.00    +0.000 C 
ATOM     20  O   UNL     1       1.119   1.849  19.629  0.00  0.00    +0.000 OA
ATOM     21  C   UNL     1       1.369   2.693  20.757  0.00  0.00    +0.000 C 
ATOM     22  C   UNL     1       2.873   2.785  21.075  0.00  0.00    +0.000 C 
ENDBRANCH  16  17
ENDBRANCH   3  16
TORSDOF 8
ENDMDL
MODEL 8
REMARK VINA RESULT:      -6.8      0.959      1.332
REMARK  Name = 
REMARK  10 active torsions:
REMARK  status: ('A' for Active; 'I' for Inactive)
REMARK    1  A    between atoms: C_1  and  C_2
REMARK    2  A    between atoms: C_2  and  C_3
REMARK    3  A    between atoms: C_3  and  C_4
REMARK    4  A    between atoms: C_4  and  C_5
REMARK    5  A    between atoms: C_5  and  C_6
REMARK    6  A    between atoms: C_6  and  O_8
REMARK    7  A    between atoms: O_8  and  C_9
REMARK    8  A    between atoms: C_9  and  C_10
REMARK    9  A    between atoms: C_12  and  C_13
REMARK   10  A    between atoms: C_13  and  N_14
REMARK                            x       y       z     vdW  Elec       q    Type
REMARK                         _______ _______ _______ _____ _____    ______ ____
ROOT
ATOM      1  C   UNL     1       6.312   5.351  17.315  0.00  0.00    +0.000 C 
ATOM      2  C   UNL     1       4.819   5.204  17.620  0.00  0.00    +0.000 C 
ATOM      3  C   UNL     1       4.705   5.712  19.042  0.00  0.00    +0.000 C 
ATOM      4  O   UNL     1       5.909   5.231  19.644  0.00  0.00    +0.000 OA
ATOM      5  C   UNL     1       6.887   5.116  18.692  0.00  0.00    +0.000 C 
ATOM      6  O   UNL     1       8.040   4.825  18.961  0.00  0.00    +0.000 OA
ENDROOT
BRANCH   1   7
ATOM      7  C   UNL     1       6.590   6.726  16.734  0.00  0.00    +0.000 C 
ATOM      8  O   UNL     1       5.754   7.344  16.089  0.00  0.00    +0.000 OA
BRANCH   7   9
ATOM      9  O   UNL     1       7.860   7.148  16.949  0.00  0.00    +0.000 OA
BRANCH   9  10
ATOM     10  C   UNL     1       8.075   7.983  18.103  0.00  0.00    +0.000 C 
ATOM     11  C   UNL     1       8.158   9.448  17.727  0.00  0.00    +0.000 C 
ENDBRANCH   9  10
ENDBRANCH   7   9
ENDBRANCH   1   7
BRANCH   1  12
ATOM     12  C   UNL     1       6.728   4.253  16.309  0.00  0.00    +0.000 C 
BRANCH  12  13
ATOM     13  C   UNL     1       6.838   4.685  14.840  0.00  0.00    +0.000 C 
BRANCH  13  15
ATOM     14  C   UNL     1       6.223   3.571  12.652  0.00  0.00    +0.000 C 
ATOM     15  C   UNL     1       5.724   4.038  14.010  0.00  0.00    +0.000 C 
ENDBRANCH  13  15
ENDBRANCH  12  13
ENDBRANCH   1  12
BRANCH   3  16
ATOM     16  C   UNL     1       3.436   5.169  19.745  0.00  0.00    +0.000 C 
BRANCH  16  17
ATOM     17  N   UNL     1       3.047   3.809  19.327  0.00  0.00    +0.000 NA
ATOM     18  C   UNL     1       1.604   3.655  19.033  0.00  0.00    +0.000 C 
ATOM     19  C   UNL     1       0.703   3.585  20.277  0.00  0.00    +0.000 C 
ATOM     20  O   UNL     1       1.113   2.522  21.147  0.00  0.00    +0.000 OA
ATOM     21  C   UNL     1       2.472   2.707  21.553  0.00  0.00    +0.000 C 
ATOM     22  C   UNL     1       3.420   2.793  20.342  0.00  0.00    +0.000 C 
ENDBRANCH  16  17
ENDBRANCH   3  16
TORSDOF 8
ENDMDL
MODEL 9
REMARK VINA RESULT:      -6.8      1.273      1.705
REMARK  Name = 
REMARK  10 active torsions:
REMARK  status: ('A' for Active; 'I' for Inactive)
REMARK    1  A    between atoms: C_1  and  C_2
REMARK    2  A    between atoms: C_2  and  C_3
REMARK    3  A    between atoms: C_3  and  C_4
REMARK    4  A    between atoms: C_4  and  C_5
REMARK    5  A    between atoms: C_5  and  C_6
REMARK    6  A    between atoms: C_6  and  O_8
REMARK    7  A    between atoms: O_8  and  C_9
REMARK    8  A    between atoms: C_9  and  C_10
REMARK    9  A    between atoms: C_12  and  C_13
REMARK   10  A    between atoms: C_13  and  N_14
REMARK                            x       y       z     vdW  Elec       q    Type
REMARK                         _______ _______ _______ _____ _____    ______ ____
ROOT
ATOM      1  C   UNL     1       6.664   5.704  17.710  0.00  0.00    +0.000 C 
ATOM      2  C   UNL     1       5.162   5.406  17.684  0.00  0.00    +0.000 C 
ATOM      3  C   UNL     1       4.723   5.720  19.100  0.00  0.00    +0.000 C 
ATOM      4  O   UNL     1       5.829   5.259  19.879  0.00  0.00    +0.000 OA
ATOM      5  C   UNL     1       6.981   5.341  19.141  0.00  0.00    +0.000 C 
ATOM      6  O   UNL     1       8.083   5.107  19.608  0.00  0.00    +0.000 OA
ENDROOT
BRANCH   1   7
ATOM      7  C   UNL     1       6.910   7.159  17.352  0.00  0.00    +0.000 C 
ATOM      8  O   UNL     1       6.236   7.750  16.520  0.00  0.00    +0.000 OA
BRANCH   7   9
ATOM      9  O   UNL     1       7.978   7.692  17.993  0.00  0.00    +0.000 OA
BRANCH   9  10
ATOM     10  C   UNL     1       8.186   9.108  17.833  0.00  0.00    +0.000 C 
ATOM     11  C   UNL     1       8.963   9.695  18.994  0.00  0.00    +0.000 C 
ENDBRANCH   9  10
ENDBRANCH   7   9
ENDBRANCH   1   7
BRANCH   1  12
ATOM     12  C   UNL     1       7.375   4.777  16.697  0.00  0.00    +0.000 C 
BRANCH  12  13
ATOM     13  C   UNL     1       6.465   3.938  15.790  0.00  0.00    +0.000 C 
BRANCH  13  15
ATOM     14  C   UNL     1       5.488   4.028  13.457  0.00  0.00    +0.000 C 
ATOM     15  C   UNL     1       6.714   4.286  14.318  0.00  0.00    +0.000 C 
ENDBRANCH  13  15
ENDBRANCH  12  13
ENDBRANCH   1  12
BRANCH   3  16
ATOM     16  C   UNL     1       3.403   4.996  19.464  0.00  0.00    +0.000 C 
BRANCH  16  17
ATOM     17  N   UNL     1       3.589   3.665  20.071  0.00  0.00    +0.000 NA
ATOM     18  C   UNL     1       3.750   2.568  19.088  0.00  0.00    +0.000 C 
ATOM     19  C   UNL     1       2.446   2.129  18.402  0.00  0.00    +0.000 C 
ATOM     20  O   UNL     1       1.463   1.741  19.370  0.00  0.00    +0.000 OA
ATOM     21  C   UNL     1       1.190   2.823  20.265  0.00  0.00    +0.000 C 
ATOM     22  C   UNL     1       2.467   3.310  20.974  0.00  0.00    +0.000 C 
ENDBRANCH  16  17
ENDBRANCH   3  16
TORSDOF 8
ENDMDL
