MODEL 1
REMARK VINA RESULT:      -7.3      0.000      0.000
REMARK  Name = 
REMARK  6 active torsions:
REMARK  status: ('A' for Active; 'I' for Inactive)
REMARK    1  A    between atoms: C_1  and  C_2
REMARK    2  A    between atoms: C_2  and  N_3
REMARK    3  A    between atoms: N_3  and  C_11
REMARK    4  A    between atoms: C_15  and  C_16
REMARK    5  A    between atoms: C_16  and  C_17
REMARK    6  A    between atoms: C_17  and  O_19
REMARK                            x       y       z     vdW  Elec       q    Type
REMARK                         _______ _______ _______ _____ _____    ______ ____
ROOT
ATOM      1  C   UNL     1       0.874   8.929  19.549  0.00  0.00    +0.000 C 
ATOM      2  C   UNL     1       1.137   8.615  21.030  0.00  0.00    +0.000 C 
ATOM      3  C   UNL     1       1.196   7.101  21.242  0.00  0.00    +0.000 C 
ATOM      4  C   UNL     1       2.092   6.427  20.247  0.00  0.00    +0.000 A 
ATOM      5  C   UNL     1       2.698   5.179  20.276  0.00  0.00    +0.000 A 
ATOM      6  C   UNL     1       3.468   5.063  19.067  0.00  0.00    +0.000 A 
ATOM      7  C   UNL     1       4.316   4.071  18.525  0.00  0.00    +0.000 A 
ATOM      8  C   UNL     1       4.972   4.300  17.306  0.00  0.00    +0.000 A 
ATOM      9  C   UNL     1       4.792   5.498  16.625  0.00  0.00    +0.000 A 
ATOM     10 CL   UNL     1       5.623   5.770  15.140  0.00  0.00    +0.000 Cl
ATOM     11  C   UNL     1       3.954   6.493  17.126  0.00  0.00    +0.000 A 
ATOM     12  C   UNL     1       3.299   6.249  18.345  0.00  0.00    +0.000 A 
ATOM     13  N   UNL     1       2.439   7.041  19.070  0.00  0.00    +0.000 N 
ATOM     14  C   UNL     1       2.033   8.388  18.692  0.00  0.00    +0.000 C 
ENDROOT
BRANCH   1  15
ATOM     15  N   UNL     1       0.639  10.360  19.281  0.00  0.00    +0.000 N 
ATOM     16  C   UNL     1      -0.531  10.700  18.618  0.00  0.00    +0.000 A 
ATOM     17  N   UNL     1      -0.658  11.927  18.080  0.00  0.00    +0.000 NA
ATOM     18  C   UNL     1      -1.830  12.239  17.480  0.00  0.00    +0.000 A 
ATOM     19  C   UNL     1      -2.887  11.374  17.402  0.00  0.00    +0.000 A 
ATOM     20  F   UNL     1      -4.045  11.711  16.824  0.00  0.00    +0.000 F 
ATOM     21  C   UNL     1      -2.680  10.143  17.956  0.00  0.00    +0.000 A 
ATOM     22  N   UNL     1      -1.517   9.782  18.544  0.00  0.00    +0.000 NA
BRANCH  15  24
ATOM     23  C   UNL     1       1.296  12.261  20.734  0.00  0.00    +0.000 C 
ATOM     24  C   UNL     1       1.630  11.402  19.524  0.00  0.00    +0.000 C 
ENDBRANCH  15  24
ENDBRANCH   1  15
BRANCH   5  25
ATOM     25  C   UNL     1       2.621   4.176  21.392  0.00  0.00    +0.000 C 
BRANCH  25  26
ATOM     26  C   UNL     1       1.430   3.241  21.351  0.00  0.00    +0.000 C 
ATOM     27  O   UNL     1       1.262   2.339  22.166  0.00  0.00    +0.000 OA
BRANCH  26  28
ATOM     28  O   UNL     1       0.588   3.405  20.303  0.00  0.00    +0.000 OA
ATOM     29  H   UNL     1      -0.065   4.119  20.440  0.00  0.00    +0.000 HD
ENDBRANCH  26  28
ENDBRANCH  25  26
ENDBRANCH   5  25
TORSDOF 5
ENDMDL
MODEL 2
REMARK VINA RESULT:      -7.3      2.845      3.885
REMARK  Name = 
REMARK  6 active torsions:
REMARK  status: ('A' for Active; 'I' for Inactive)
REMARK    1  A    between atoms: C_1  and  C_2
REMARK    2  A    between atoms: C_2  and  N_3
REMARK    3  A    between atoms: N_3  and  C_11
REMARK    4  A    between atoms: C_15  and  C_16
REMARK    5  A    between atoms: C_16  and  C_17
REMARK    6  A    between atoms: C_17  and  O_19
REMARK                            x       y       z     vdW  Elec       q    Type
REMARK                         _______ _______ _______ _____ _____    ______ ____
ROOT
ATOM      1  C   UNL     1       1.417   9.383  19.682  0.00  0.00    +0.000 C 
ATOM      2  C   UNL     1       1.576   9.515  18.160  0.00  0.00    +0.000 C 
ATOM      3  C   UNL     1       2.850   8.805  17.702  0.00  0.00    +0.000 C 
ATOM      4  C   UNL     1       2.959   7.421  18.266  0.00  0.00    +0.000 A 
ATOM      5  C   UNL     1       3.723   6.336  17.861  0.00  0.00    +0.000 A 
ATOM      6  C   UNL     1       3.413   5.252  18.754  0.00  0.00    +0.000 A 
ATOM      7  C   UNL     1       3.826   3.904  18.855  0.00  0.00    +0.000 A 
ATOM      8  C   UNL     1       3.276   3.077  19.846  0.00  0.00    +0.000 A 
ATOM      9  C   UNL     1       2.327   3.574  20.731  0.00  0.00    +0.000 A 
ATOM     10 CL   UNL     1       1.648   2.536  21.928  0.00  0.00    +0.000 Cl
ATOM     11  C   UNL     1       1.906   4.901  20.666  0.00  0.00    +0.000 A 
ATOM     12  C   UNL     1       2.468   5.721  19.672  0.00  0.00    +0.000 A 
ATOM     13  N   UNL     1       2.236   7.043  19.370  0.00  0.00    +0.000 N 
ATOM     14  C   UNL     1       1.279   7.896  20.060  0.00  0.00    +0.000 C 
ENDROOT
BRANCH   1  15
ATOM     15  N   UNL     1       0.303  10.176  20.233  0.00  0.00    +0.000 N 
ATOM     16  C   UNL     1      -0.704  10.553  19.357  0.00  0.00    +0.000 A 
ATOM     17  N   UNL     1      -1.573  11.516  19.717  0.00  0.00    +0.000 NA
ATOM     18  C   UNL     1      -2.568  11.828  18.855  0.00  0.00    +0.000 A 
ATOM     19  C   UNL     1      -2.737  11.208  17.647  0.00  0.00    +0.000 A 
ATOM     20  F   UNL     1      -3.742  11.516  16.821  0.00  0.00    +0.000 F 
ATOM     21  C   UNL     1      -1.809  10.252  17.343  0.00  0.00    +0.000 A 
ATOM     22  N   UNL     1      -0.786   9.927  18.164  0.00  0.00    +0.000 NA
BRANCH  15  24
ATOM     23  C   UNL     1      -0.336   9.757  22.593  0.00  0.00    +0.000 C 
ATOM     24  C   UNL     1       0.285  10.714  21.589  0.00  0.00    +0.000 C 
ENDBRANCH  15  24
ENDBRANCH   1  15
BRANCH   5  25
ATOM     25  C   UNL     1       4.642   6.286  16.673  0.00  0.00    +0.000 C 
BRANCH  25  26
ATOM     26  C   UNL     1       6.119   6.416  16.982  0.00  0.00    +0.000 C 
ATOM     27  O   UNL     1       6.717   7.488  16.947  0.00  0.00    +0.000 OA
BRANCH  26  28
ATOM     28  O   UNL     1       6.775   5.256  17.227  0.00  0.00    +0.000 OA
ATOM     29  H   UNL     1       6.330   4.473  16.848  0.00  0.00    +0.000 HD
ENDBRANCH  26  28
ENDBRANCH  25  26
ENDBRANCH   5  25
TORSDOF 5
ENDMDL
MODEL 3
REMARK VINA RESULT:      -7.3      3.334      4.468
REMARK  Name = 
REMARK  6 active torsions:
REMARK  status: ('A' for Active; 'I' for Inactive)
REMARK    1  A    between atoms: C_1  and  C_2
REMARK    2  A    between atoms: C_2  and  N_3
REMARK    3  A    between atoms: N_3  and  C_11
REMARK    4  A    between atoms: C_15  and  C_16
REMARK    5  A    between atoms: C_16  and  C_17
REMARK    6  A    between atoms: C_17  and  O_19
REMARK                            x       y       z     vdW  Elec       q    Type
REMARK                         _______ _______ _______ _____ _____    ______ ____
ROOT
ATOM      1  C   UNL     1       1.889   8.951  19.365  0.00  0.00    +0.000 C 
ATOM      2  C   UNL     1       2.020   8.949  17.834  0.00  0.00    +0.000 C 
ATOM      3  C   UNL     1       3.225   8.108  17.412  0.00  0.00    +0.000 C 
ATOM      4  C   UNL     1       3.242   6.769  18.084  0.00  0.00    +0.000 A 
ATOM      5  C   UNL     1       3.912   5.599  17.754  0.00  0.00    +0.000 A 
ATOM      6  C   UNL     1       3.541   4.616  18.737  0.00  0.00    +0.000 A 
ATOM      7  C   UNL     1       3.853   3.253  18.939  0.00  0.00    +0.000 A 
ATOM      8  C   UNL     1       3.266   2.551  20.003  0.00  0.00    +0.000 A 
ATOM      9  C   UNL     1       2.380   3.189  20.862  0.00  0.00    +0.000 A 
ATOM     10 CL   UNL     1       1.653   2.305  22.150  0.00  0.00    +0.000 Cl
ATOM     11  C   UNL     1       2.059   4.536  20.698  0.00  0.00    +0.000 A 
ATOM     12  C   UNL     1       2.657   5.229  19.631  0.00  0.00    +0.000 A 
ATOM     13  N   UNL     1       2.519   6.536  19.228  0.00  0.00    +0.000 N 
ATOM     14  C   UNL     1       1.647   7.513  19.864  0.00  0.00    +0.000 C 
ENDROOT
BRANCH   1  15
ATOM     15  N   UNL     1       0.851   9.869  19.869  0.00  0.00    +0.000 N 
ATOM     16  C   UNL     1       1.013  11.220  19.604  0.00  0.00    +0.000 A 
ATOM     17  N   UNL     1       0.283  12.123  20.284  0.00  0.00    +0.000 NA
ATOM     18  C   UNL     1       0.435  13.430  19.968  0.00  0.00    +0.000 A 
ATOM     19  C   UNL     1       1.284  13.872  18.991  0.00  0.00    +0.000 A 
ATOM     20  F   UNL     1       1.402  15.167  18.679  0.00  0.00    +0.000 F 
ATOM     21  C   UNL     1       2.002  12.901  18.354  0.00  0.00    +0.000 A 
ATOM     22  N   UNL     1       1.899  11.587  18.655  0.00  0.00    +0.000 NA
BRANCH  15  24
ATOM     23  C   UNL     1       0.189   9.418  22.218  0.00  0.00    +0.000 C 
ATOM     24  C   UNL     1      -0.231   9.457  20.757  0.00  0.00    +0.000 C 
ENDBRANCH  15  24
ENDBRANCH   1  15
BRANCH   5  25
ATOM     25  C   UNL     1       4.795   5.384  16.557  0.00  0.00    +0.000 C 
BRANCH  25  26
ATOM     26  C   UNL     1       6.284   5.416  16.830  0.00  0.00    +0.000 C 
ATOM     27  O   UNL     1       6.995   6.376  16.544  0.00  0.00    +0.000 OA
BRANCH  26  28
ATOM     28  O   UNL     1       6.815   4.279  17.341  0.00  0.00    +0.000 OA
ATOM     29  H   UNL     1       7.494   4.444  18.025  0.00  0.00    +0.000 HD
ENDBRANCH  26  28
ENDBRANCH  25  26
ENDBRANCH   5  25
TORSDOF 5
ENDMDL
MODEL 4
REMARK VINA RESULT:      -7.2      3.307      4.729
REMARK  Name = 
REMARK  6 active torsions:
REMARK  status: ('A' for Active; 'I' for Inactive)
REMARK    1  A    between atoms: C_1  and  C_2
REMARK    2  A    between atoms: C_2  and  N_3
REMARK    3  A    between atoms: N_3  and  C_11
REMARK    4  A    between atoms: C_15  and  C_16
REMARK    5  A    between atoms: C_16  and  C_17
REMARK    6  A    between atoms: C_17  and  O_19
REMARK                            x       y       z     vdW  Elec       q    Type
REMARK                         _______ _______ _______ _____ _____    ______ ____
ROOT
ATOM      1  C   UNL     1       1.512   9.529  19.307  0.00  0.00    +0.000 C 
ATOM      2  C   UNL     1       1.775   9.567  17.793  0.00  0.00    +0.000 C 
ATOM      3  C   UNL     1       3.070   8.821  17.468  0.00  0.00    +0.000 C 
ATOM      4  C   UNL     1       3.124   7.473  18.121  0.00  0.00    +0.000 A 
ATOM      5  C   UNL     1       3.901   6.360  17.835  0.00  0.00    +0.000 A 
ATOM      6  C   UNL     1       3.518   5.334  18.768  0.00  0.00    +0.000 A 
ATOM      7  C   UNL     1       3.908   3.992  18.979  0.00  0.00    +0.000 A 
ATOM      8  C   UNL     1       3.283   3.231  19.977  0.00  0.00    +0.000 A 
ATOM      9  C   UNL     1       2.282   3.788  20.764  0.00  0.00    +0.000 A 
ATOM     10 CL   UNL     1       1.511   2.830  21.972  0.00  0.00    +0.000 Cl
ATOM     11  C   UNL     1       1.881   5.112  20.590  0.00  0.00    +0.000 A 
ATOM     12  C   UNL     1       2.519   5.866  19.589  0.00  0.00    +0.000 A 
ATOM     13  N   UNL     1       2.323   7.168  19.193  0.00  0.00    +0.000 N 
ATOM     14  C   UNL     1       1.332   8.069  19.763  0.00  0.00    +0.000 C 
ENDROOT
BRANCH   1  15
ATOM     15  N   UNL     1       0.372  10.363  19.731  0.00  0.00    +0.000 N 
ATOM     16  C   UNL     1       0.660  11.584  20.321  0.00  0.00    +0.000 A 
ATOM     17  N   UNL     1      -0.302  12.240  20.995  0.00  0.00    +0.000 NA
ATOM     18  C   UNL     1       0.003  13.450  21.521  0.00  0.00    +0.000 A 
ATOM     19  C   UNL     1       1.233  14.035  21.392  0.00  0.00    +0.000 A 
ATOM     20  F   UNL     1       1.506  15.241  21.900  0.00  0.00    +0.000 F 
ATOM     21  C   UNL     1       2.163  13.304  20.709  0.00  0.00    +0.000 A 
ATOM     22  N   UNL     1       1.907  12.083  20.189  0.00  0.00    +0.000 NA
BRANCH  15  24
ATOM     23  C   UNL     1      -1.721  10.232  18.405  0.00  0.00    +0.000 C 
ATOM     24  C   UNL     1      -1.014   9.908  19.711  0.00  0.00    +0.000 C 
ENDBRANCH  15  24
ENDBRANCH   1  15
BRANCH   5  25
ATOM     25  C   UNL     1       4.898   6.231  16.718  0.00  0.00    +0.000 C 
BRANCH  25  26
ATOM     26  C   UNL     1       6.353   6.218  17.137  0.00  0.00    +0.000 C 
ATOM     27  O   UNL     1       6.709   6.259  18.312  0.00  0.00    +0.000 OA
BRANCH  26  28
ATOM     28  O   UNL     1       7.258   6.240  16.130  0.00  0.00    +0.000 OA
ATOM     29  H   UNL     1       6.868   6.470  15.264  0.00  0.00    +0.000 HD
ENDBRANCH  26  28
ENDBRANCH  25  26
ENDBRANCH   5  25
TORSDOF 5
ENDMDL
MODEL 5
REMARK VINA RESULT:      -6.8      3.418      4.878
REMARK  Name = 
REMARK  6 active torsions:
REMARK  status: ('A' for Active; 'I' for Inactive)
REMARK    1  A    between atoms: C_1  and  C_2
REMARK    2  A    between atoms: C_2  and  N_3
REMARK    3  A    between atoms: N_3  and  C_11
REMARK    4  A    between atoms: C_15  and  C_16
REMARK    5  A    between atoms: C_16  and  C_17
REMARK    6  A    between atoms: C_17  and  O_19
REMARK                            x       y       z     vdW  Elec       q    Type
REMARK                         _______ _______ _______ _____ _____    ______ ____
ROOT
ATOM      1  C   UNL     1       2.346   8.523  18.765  0.00  0.00    +0.000 C 
ATOM      2  C   UNL     1       2.660   8.365  17.269  0.00  0.00    +0.000 C 
ATOM      3  C   UNL     1       3.873   7.452  17.082  0.00  0.00    +0.000 C 
ATOM      4  C   UNL     1       3.754   6.186  17.877  0.00  0.00    +0.000 A 
ATOM      5  C   UNL     1       4.410   4.971  17.745  0.00  0.00    +0.000 A 
ATOM      6  C   UNL     1       3.884   4.103  18.764  0.00  0.00    +0.000 A 
ATOM      7  C   UNL     1       4.114   2.758  19.133  0.00  0.00    +0.000 A 
ATOM      8  C   UNL     1       3.375   2.183  20.178  0.00  0.00    +0.000 A 
ATOM      9  C   UNL     1       2.418   2.929  20.856  0.00  0.00    +0.000 A 
ATOM     10 CL   UNL     1       1.506   2.199  22.123  0.00  0.00    +0.000 Cl
ATOM     11  C   UNL     1       2.175   4.261  20.525  0.00  0.00    +0.000 A 
ATOM     12  C   UNL     1       2.925   4.826  19.479  0.00  0.00    +0.000 A 
ATOM     13  N   UNL     1       2.890   6.091  18.939  0.00  0.00    +0.000 N 
ATOM     14  C   UNL     1       1.988   7.151  19.365  0.00  0.00    +0.000 C 
ENDROOT
BRANCH   1  15
ATOM     15  N   UNL     1       1.294   9.517  19.047  0.00  0.00    +0.000 N 
ATOM     16  C   UNL     1       0.815   9.586  20.347  0.00  0.00    +0.000 A 
ATOM     17  N   UNL     1      -0.335  10.240  20.598  0.00  0.00    +0.000 NA
ATOM     18  C   UNL     1      -0.748  10.325  21.884  0.00  0.00    +0.000 A 
ATOM     19  C   UNL     1      -0.054   9.789  22.933  0.00  0.00    +0.000 A 
ATOM     20  F   UNL     1      -0.470   9.904  24.198  0.00  0.00    +0.000 F 
ATOM     21  C   UNL     1       1.094   9.127  22.600  0.00  0.00    +0.000 A 
ATOM     22  N   UNL     1       1.531   8.998  21.327  0.00  0.00    +0.000 NA
BRANCH  15  24
ATOM     23  C   UNL     1      -0.729   9.733  17.626  0.00  0.00    +0.000 C 
ATOM     24  C   UNL     1       0.626  10.303  18.015  0.00  0.00    +0.000 C 
ENDBRANCH  15  24
ENDBRANCH   1  15
BRANCH   5  25
ATOM     25  C   UNL     1       5.422   4.613  16.693  0.00  0.00    +0.000 C 
BRANCH  25  26
ATOM     26  C   UNL     1       6.852   5.005  17.001  0.00  0.00    +0.000 C 
ATOM     27  O   UNL     1       7.466   5.849  16.354  0.00  0.00    +0.000 OA
BRANCH  26  28
ATOM     28  O   UNL     1       7.455   4.307  17.993  0.00  0.00    +0.000 OA
ATOM     29  H   UNL     1       7.186   4.595  18.887  0.00  0.00    +0.000 HD
ENDBRANCH  26  28
ENDBRANCH  25  26
ENDBRANCH   5  25
TORSDOF 5
ENDMDL
MODEL 6
REMARK VINA RESULT:      -6.8      1.437      1.604
REMARK  Name = 
REMARK  6 active torsions:
REMARK  status: ('A' for Active; 'I' for Inactive)
REMARK    1  A    between atoms: C_1  and  C_2
REMARK    2  A    between atoms: C_2  and  N_3
REMARK    3  A    between atoms: N_3  and  C_11
REMARK    4  A    between atoms: C_15  and  C_16
REMARK    5  A    between atoms: C_16  and  C_17
REMARK    6  A    between atoms: C_17  and  O_19
REMARK                            x       y       z     vdW  Elec       q    Type
REMARK                         _______ _______ _______ _____ _____    ______ ____
ROOT
ATOM      1  C   UNL     1       1.308   9.284  19.091  0.00  0.00    +0.000 C 
ATOM      2  C   UNL     1       1.481   9.028  20.596  0.00  0.00    +0.000 C 
ATOM      3  C   UNL     1       1.350   7.533  20.891  0.00  0.00    +0.000 C 
ATOM      4  C   UNL     1       2.191   6.701  19.972  0.00  0.00    +0.000 A 
ATOM      5  C   UNL     1       2.641   5.394  20.093  0.00  0.00    +0.000 A 
ATOM      6  C   UNL     1       3.433   5.117  18.924  0.00  0.00    +0.000 A 
ATOM      7  C   UNL     1       4.173   4.001  18.472  0.00  0.00    +0.000 A 
ATOM      8  C   UNL     1       4.893   4.079  17.271  0.00  0.00    +0.000 A 
ATOM      9  C   UNL     1       4.883   5.248  16.519  0.00  0.00    +0.000 A 
ATOM     10 CL   UNL     1       5.791   5.332  15.057  0.00  0.00    +0.000 Cl
ATOM     11  C   UNL     1       4.154   6.363  16.931  0.00  0.00    +0.000 A 
ATOM     12  C   UNL     1       3.433   6.270  18.134  0.00  0.00    +0.000 A 
ATOM     13  N   UNL     1       2.650   7.200  18.779  0.00  0.00    +0.000 N 
ATOM     14  C   UNL     1       2.423   8.560  18.312  0.00  0.00    +0.000 C 
ENDROOT
BRANCH   1  15
ATOM     15  N   UNL     1       1.257  10.714  18.736  0.00  0.00    +0.000 N 
ATOM     16  C   UNL     1       0.137  11.429  19.133  0.00  0.00    +0.000 A 
ATOM     17  N   UNL     1      -0.111  12.635  18.587  0.00  0.00    +0.000 NA
ATOM     18  C   UNL     1      -1.188  13.323  19.031  0.00  0.00    +0.000 A 
ATOM     19  C   UNL     1      -2.026  12.858  20.007  0.00  0.00    +0.000 A 
ATOM     20  F   UNL     1      -3.072  13.565  20.447  0.00  0.00    +0.000 F 
ATOM     21  C   UNL     1      -1.721  11.622  20.503  0.00  0.00    +0.000 A 
ATOM     22  N   UNL     1      -0.669  10.891  20.072  0.00  0.00    +0.000 NA
BRANCH  15  24
ATOM     23  C   UNL     1       2.746  12.676  18.436  0.00  0.00    +0.000 C 
ATOM     24  C   UNL     1       2.227  11.367  17.863  0.00  0.00    +0.000 C 
ENDBRANCH  15  24
ENDBRANCH   1  15
BRANCH   5  25
ATOM     25  C   UNL     1       2.406   4.473  21.258  0.00  0.00    +0.000 C 
BRANCH  25  26
ATOM     26  C   UNL     1       1.417   3.352  21.016  0.00  0.00    +0.000 C 
ATOM     27  O   UNL     1       0.700   3.298  20.021  0.00  0.00    +0.000 OA
BRANCH  26  28
ATOM     28  O   UNL     1       1.307   2.437  22.008  0.00  0.00    +0.000 OA
ATOM     29  H   UNL     1       1.877   1.654  21.877  0.00  0.00    +0.000 HD
ENDBRANCH  26  28
ENDBRANCH  25  26
ENDBRANCH   5  25
TORSDOF 5
ENDMDL
MODEL 7
REMARK VINA RESULT:      -6.6      3.088      4.510
REMARK  Name = 
REMARK  6 active torsions:
REMARK  status: ('A' for Active; 'I' for Inactive)
REMARK    1  A    between atoms: C_1  and  C_2
REMARK    2  A    between atoms: C_2  and  N_3
REMARK    3  A    between atoms: N_3  and  C_11
REMARK    4  A    between atoms: C_15  and  C_16
REMARK    5  A    between atoms: C_16  and  C_17
REMARK    6  A    between atoms: C_17  and  O_19
REMARK                            x       y       z     vdW  Elec       q    Type
REMARK                         _______ _______ _______ _____ _____    ______ ____
ROOT
ATOM      1  C   UNL     1       1.476   9.330  19.121  0.00  0.00    +0.000 C 
ATOM      2  C   UNL     1       1.931   9.325  17.654  0.00  0.00    +0.000 C 
ATOM      3  C   UNL     1       3.275   8.606  17.525  0.00  0.00    +0.000 C 
ATOM      4  C   UNL     1       3.278   7.283  18.229  0.00  0.00    +0.000 A 
ATOM      5  C   UNL     1       4.113   6.185  18.087  0.00  0.00    +0.000 A 
ATOM      6  C   UNL     1       3.638   5.181  19.001  0.00  0.00    +0.000 A 
ATOM      7  C   UNL     1       4.031   3.859  19.310  0.00  0.00    +0.000 A 
ATOM      8  C   UNL     1       3.301   3.113  20.248  0.00  0.00    +0.000 A 
ATOM      9  C   UNL     1       2.193   3.667  20.878  0.00  0.00    +0.000 A 
ATOM     10 CL   UNL     1       1.297   2.728  22.011  0.00  0.00    +0.000 Cl
ATOM     11  C   UNL     1       1.786   4.971  20.605  0.00  0.00    +0.000 A 
ATOM     12  C   UNL     1       2.528   5.710  19.667  0.00  0.00    +0.000 A 
ATOM     13  N   UNL     1       2.353   6.992  19.201  0.00  0.00    +0.000 N 
ATOM     14  C   UNL     1       1.274   7.882  19.605  0.00  0.00    +0.000 C 
ENDROOT
BRANCH   1  15
ATOM     15  N   UNL     1       0.270  10.143  19.364  0.00  0.00    +0.000 N 
ATOM     16  C   UNL     1       0.430  11.326  20.070  0.00  0.00    +0.000 A 
ATOM     17  N   UNL     1      -0.649  11.947  20.582  0.00  0.00    +0.000 NA
ATOM     18  C   UNL     1      -0.459  13.121  21.226  0.00  0.00    +0.000 A 
ATOM     19  C   UNL     1       0.769  13.707  21.373  0.00  0.00    +0.000 A 
ATOM     20  F   UNL     1       0.931  14.880  21.995  0.00  0.00    +0.000 F 
ATOM     21  C   UNL     1       1.818  13.013  20.842  0.00  0.00    +0.000 A 
ATOM     22  N   UNL     1       1.676  11.825  20.212  0.00  0.00    +0.000 NA
BRANCH  15  24
ATOM     23  C   UNL     1      -1.543  10.141  17.669  0.00  0.00    +0.000 C 
ATOM     24  C   UNL     1      -1.083   9.698  19.049  0.00  0.00    +0.000 C 
ENDBRANCH  15  24
ENDBRANCH   1  15
BRANCH   5  25
ATOM     25  C   UNL     1       5.249   6.048  17.113  0.00  0.00    +0.000 C 
BRANCH  25  26
ATOM     26  C   UNL     1       5.464   4.658  16.550  0.00  0.00    +0.000 C 
ATOM     27  O   UNL     1       4.639   4.091  15.838  0.00  0.00    +0.000 OA
BRANCH  26  28
ATOM     28  O   UNL     1       6.598   4.031  16.943  0.00  0.00    +0.000 OA
ATOM     29  H   UNL     1       6.526   3.056  16.927  0.00  0.00    +0.000 HD
ENDBRANCH  26  28
ENDBRANCH  25  26
ENDBRANCH   5  25
TORSDOF 5
ENDMDL
MODEL 8
REMARK VINA RESULT:      -6.6      4.361      7.283
REMARK  Name = 
REMARK  6 active torsions:
REMARK  status: ('A' for Active; 'I' for Inactive)
REMARK    1  A    between atoms: C_1  and  C_2
REMARK    2  A    between atoms: C_2  and  N_3
REMARK    3  A    between atoms: N_3  and  C_11
REMARK    4  A    between atoms: C_15  and  C_16
REMARK    5  A    between atoms: C_16  and  C_17
REMARK    6  A    between atoms: C_17  and  O_19
REMARK                            x       y       z     vdW  Elec       q    Type
REMARK                         _______ _______ _______ _____ _____    ______ ____
ROOT
ATOM      1  C   UNL     1       5.548   5.367  17.798  0.00  0.00    +0.000 C 
ATOM      2  C   UNL     1       4.836   4.070  17.381  0.00  0.00    +0.000 C 
ATOM      3  C   UNL     1       3.998   3.536  18.542  0.00  0.00    +0.000 C 
ATOM      4  C   UNL     1       3.139   4.601  19.155  0.00  0.00    +0.000 A 
ATOM      5  C   UNL     1       2.011   4.503  19.958  0.00  0.00    +0.000 A 
ATOM      6  C   UNL     1       1.581   5.847  20.235  0.00  0.00    +0.000 A 
ATOM      7  C   UNL     1       0.503   6.412  20.954  0.00  0.00    +0.000 A 
ATOM      8  C   UNL     1       0.340   7.805  20.990  0.00  0.00    +0.000 A 
ATOM      9  C   UNL     1       1.232   8.635  20.322  0.00  0.00    +0.000 A 
ATOM     10 CL   UNL     1       1.003  10.343  20.359  0.00  0.00    +0.000 Cl
ATOM     11  C   UNL     1       2.311   8.111  19.612  0.00  0.00    +0.000 A 
ATOM     12  C   UNL     1       2.467   6.714  19.588  0.00  0.00    +0.000 A 
ATOM     13  N   UNL     1       3.414   5.933  18.969  0.00  0.00    +0.000 N 
ATOM     14  C   UNL     1       4.501   6.442  18.144  0.00  0.00    +0.000 C 
ENDROOT
BRANCH   1  15
ATOM     15  N   UNL     1       6.507   5.865  16.794  0.00  0.00    +0.000 N 
ATOM     16  C   UNL     1       6.519   5.237  15.558  0.00  0.00    +0.000 A 
ATOM     17  N   UNL     1       7.556   5.433  14.723  0.00  0.00    +0.000 NA
ATOM     18  C   UNL     1       7.513   4.840  13.507  0.00  0.00    +0.000 A 
ATOM     19  C   UNL     1       6.468   4.063  13.088  0.00  0.00    +0.000 A 
ATOM     20  F   UNL     1       6.435   3.505  11.873  0.00  0.00    +0.000 F 
ATOM     21  C   UNL     1       5.459   3.897  13.994  0.00  0.00    +0.000 A 
ATOM     22  N   UNL     1       5.473   4.452  15.226  0.00  0.00    +0.000 NA
BRANCH  15  24
ATOM     23  C   UNL     1       8.059   6.765  18.508  0.00  0.00    +0.000 C 
ATOM     24  C   UNL     1       7.538   6.856  17.083  0.00  0.00    +0.000 C 
ENDBRANCH  15  24
ENDBRANCH   1  15
BRANCH   5  25
ATOM     25  C   UNL     1       1.332   3.234  20.390  0.00  0.00    +0.000 C 
BRANCH  25  26
ATOM     26  C   UNL     1       1.785   2.670  21.720  0.00  0.00    +0.000 C 
ATOM     27  O   UNL     1       2.959   2.413  21.971  0.00  0.00    +0.000 OA
BRANCH  26  28
ATOM     28  O   UNL     1       0.802   2.385  22.607  0.00  0.00    +0.000 OA
ATOM     29  H   UNL     1       0.323   1.558  22.401  0.00  0.00    +0.000 HD
ENDBRANCH  26  28
ENDBRANCH  25  26
ENDBRANCH   5  25
TORSDOF 5
ENDMDL
MODEL 9
REMARK VINA RESULT:      -6.5      4.087      7.583
REMARK  Name = 
REMARK  6 active torsions:
REMARK  status: ('A' for Active; 'I' for Inactive)
REMARK    1  A    between atoms: C_1  and  C_2
REMARK    2  A    between atoms: C_2  and  N_3
REMARK    3  A    between atoms: N_3  and  C_11
REMARK    4  A    between atoms: C_15  and  C_16
REMARK    5  A    between atoms: C_16  and  C_17
REMARK    6  A    between atoms: C_17  and  O_19
REMARK                            x       y       z     vdW  Elec       q    Type
REMARK                         _______ _______ _______ _____ _____    ______ ____
ROOT
ATOM      1  C   UNL     1       2.288   7.320  18.872  0.00  0.00    +0.000 C 
ATOM      2  C   UNL     1       2.034   7.186  20.381  0.00  0.00    +0.000 C 
ATOM      3  C   UNL     1       1.805   8.565  20.999  0.00  0.00    +0.000 C 
ATOM      4  C   UNL     1       0.809   9.373  20.224  0.00  0.00    +0.000 A 
ATOM      5  C   UNL     1       0.063  10.484  20.592  0.00  0.00    +0.000 A 
ATOM      6  C   UNL     1      -0.750  10.833  19.458  0.00  0.00    +0.000 A 
ATOM      7  C   UNL     1      -1.723  11.826  19.206  0.00  0.00    +0.000 A 
ATOM      8  C   UNL     1      -2.383  11.861  17.968  0.00  0.00    +0.000 A 
ATOM      9  C   UNL     1      -2.086  10.925  16.986  0.00  0.00    +0.000 A 
ATOM     10 CL   UNL     1      -2.922  10.971  15.480  0.00  0.00    +0.000 Cl
ATOM     11  C   UNL     1      -1.124   9.938  17.197  0.00  0.00    +0.000 A 
ATOM     12  C   UNL     1      -0.466   9.917  18.440  0.00  0.00    +0.000 A 
ATOM     13  N   UNL     1       0.501   9.066  18.923  0.00  0.00    +0.000 N 
ATOM     14  C   UNL     1       1.049   7.932  18.192  0.00  0.00    +0.000 C 
ENDROOT
BRANCH   1  15
ATOM     15  N   UNL     1       2.680   6.056  18.222  0.00  0.00    +0.000 N 
ATOM     16  C   UNL     1       3.914   6.019  17.592  0.00  0.00    +0.000 A 
ATOM     17  N   UNL     1       4.194   5.020  16.735  0.00  0.00    +0.000 NA
ATOM     18  C   UNL     1       5.424   4.992  16.172  0.00  0.00    +0.000 A 
ATOM     19  C   UNL     1       6.393   5.921  16.438  0.00  0.00    +0.000 A 
ATOM     20  F   UNL     1       7.610   5.861  15.888  0.00  0.00    +0.000 F 
ATOM     21  C   UNL     1       6.032   6.913  17.304  0.00  0.00    +0.000 A 
ATOM     22  N   UNL     1       4.807   6.992  17.870  0.00  0.00    +0.000 NA
BRANCH  15  24
ATOM     23  C   UNL     1       1.898   3.920  19.214  0.00  0.00    +0.000 C 
ATOM     24  C   UNL     1       1.784   4.914  18.069  0.00  0.00    +0.000 C 
ENDBRANCH  15  24
ENDBRANCH   1  15
BRANCH   5  25
ATOM     25  C   UNL     1       0.055  11.147  21.941  0.00  0.00    +0.000 C 
BRANCH  25  26
ATOM     26  C   UNL     1      -0.961  10.611  22.927  0.00  0.00    +0.000 C 
ATOM     27  O   UNL     1      -1.917  11.271  23.325  0.00  0.00    +0.000 OA
BRANCH  26  28
ATOM     28  O   UNL     1      -0.713   9.373  23.416  0.00  0.00    +0.000 OA
ATOM     29  H   UNL     1      -1.514   8.919  23.745  0.00  0.00    +0.000 HD
ENDBRANCH  26  28
ENDBRANCH  25  26
ENDBRANCH   5  25
TORSDOF 5
ENDMDL
