MODEL 1
REMARK VINA RESULT:      -6.0      0.000      0.000
REMARK  Name = 
REMARK  8 active torsions:
REMARK  status: ('A' for Active; 'I' for Inactive)
REMARK    1  A    between atoms: C_1  and  C_2
REMARK    2  A    between atoms: C_2  and  O_3
REMARK    3  A    between atoms: O_3  and  C_4
REMARK    4  A    between atoms: C_4  and  C_6
REMARK    5  A    between atoms: C_8  and  S_9
REMARK    6  A    between atoms: S_9  and  C_10
REMARK    7  A    between atoms: N_17  and  O_18
REMARK    8  A    between atoms: O_18  and  C_19
REMARK                            x       y       z     vdW  Elec       q    Type
REMARK                         _______ _______ _______ _____ _____    ______ ____
ROOT
ATOM      1  C   UNL     1       5.356   5.167  16.554  0.00  0.00    +0.000 A 
ATOM      2  S   UNL     1       5.050   3.491  16.716  0.00  0.00    +0.000 S 
ATOM      3  C   UNL     1       3.591   3.738  17.568  0.00  0.00    +0.000 A 
ATOM      4  C   UNL     1       3.417   5.074  17.881  0.00  0.00    +0.000 A 
ATOM      5  C   UNL     1       4.366   5.915  17.177  0.00  0.00    +0.000 A 
ATOM      6  C   UNL     1       4.223   7.419  17.133  0.00  0.00    +0.000 C 
ATOM      7  C   UNL     1       3.124   7.968  18.061  0.00  0.00    +0.000 C 
ATOM      8  C   UNL     1       1.902   7.047  18.155  0.00  0.00    +0.000 C 
ATOM      9  C   UNL     1       2.383   5.713  18.691  0.00  0.00    +0.000 C 
ATOM     10  N   UNL     1       1.970   5.318  19.858  0.00  0.00    +0.000 NA
ENDROOT
BRANCH   1  11
ATOM     11  C   UNL     1       6.490   5.657  15.781  0.00  0.00    +0.000 C 
ATOM     12  O   UNL     1       7.494   6.175  16.258  0.00  0.00    +0.000 OA
BRANCH  11  13
ATOM     13  O   UNL     1       6.255   5.543  14.443  0.00  0.00    +0.000 OA
BRANCH  13  15
ATOM     14  C   UNL     1       6.125   3.665  12.973  0.00  0.00    +0.000 C 
ATOM     15  C   UNL     1       7.057   4.586  13.742  0.00  0.00    +0.000 C 
ENDBRANCH  13  15
ENDBRANCH  11  13
ENDBRANCH   1  11
BRANCH   3  16
ATOM     16  S   UNL     1       2.562   2.344  17.909  0.00  0.00    +0.000 S 
ATOM     17  C   UNL     1       3.737   1.208  18.674  0.00  0.00    +0.000 C 
ENDBRANCH   3  16
BRANCH  10  18
ATOM     18  O   UNL     1       2.685   4.210  20.328  0.00  0.00    +0.000 OA
ATOM     19  C   UNL     1       2.042   3.676  21.474  0.00  0.00    +0.000 C 
ENDBRANCH  10  18
TORSDOF 5
ENDMDL
MODEL 2
REMARK VINA RESULT:      -5.9      0.948      1.937
REMARK  Name = 
REMARK  8 active torsions:
REMARK  status: ('A' for Active; 'I' for Inactive)
REMARK    1  A    between atoms: C_1  and  C_2
REMARK    2  A    between atoms: C_2  and  O_3
REMARK    3  A    between atoms: O_3  and  C_4
REMARK    4  A    between atoms: C_4  and  C_6
REMARK    5  A    between atoms: C_8  and  S_9
REMARK    6  A    between atoms: S_9  and  C_10
REMARK    7  A    between atoms: N_17  and  O_18
REMARK    8  A    between atoms: O_18  and  C_19
REMARK                            x       y       z     vdW  Elec       q    Type
REMARK                         _______ _______ _______ _____ _____    ______ ____
ROOT
ATOM      1  C   UNL     1       5.329   5.099  16.470  0.00  0.00    +0.000 A 
ATOM      2  S   UNL     1       4.981   3.431  16.647  0.00  0.00    +0.000 S 
ATOM      3  C   UNL     1       3.539   3.721  17.514  0.00  0.00    +0.000 A 
ATOM      4  C   UNL     1       3.404   5.063  17.821  0.00  0.00    +0.000 A 
ATOM      5  C   UNL     1       4.366   5.876  17.101  0.00  0.00    +0.000 A 
ATOM      6  C   UNL     1       4.262   7.382  17.049  0.00  0.00    +0.000 C 
ATOM      7  C   UNL     1       3.188   7.965  17.986  0.00  0.00    +0.000 C 
ATOM      8  C   UNL     1       1.944   7.077  18.100  0.00  0.00    +0.000 C 
ATOM      9  C   UNL     1       2.396   5.733  18.638  0.00  0.00    +0.000 C 
ATOM     10  N   UNL     1       1.986   5.357  19.812  0.00  0.00    +0.000 NA
ENDROOT
BRANCH   1  11
ATOM     11  C   UNL     1       6.467   5.554  15.683  0.00  0.00    +0.000 C 
ATOM     12  O   UNL     1       6.544   5.495  14.461  0.00  0.00    +0.000 OA
BRANCH  11  13
ATOM     13  O   UNL     1       7.480   5.979  16.490  0.00  0.00    +0.000 OA
BRANCH  13  15
ATOM     14  C   UNL     1       7.848   6.267  18.833  0.00  0.00    +0.000 C 
ATOM     15  C   UNL     1       7.654   5.257  17.714  0.00  0.00    +0.000 C 
ENDBRANCH  13  15
ENDBRANCH  11  13
ENDBRANCH   1  11
BRANCH   3  16
ATOM     16  S   UNL     1       2.479   2.357  17.874  0.00  0.00    +0.000 S 
ATOM     17  C   UNL     1       3.625   1.208  18.662  0.00  0.00    +0.000 C 
ENDBRANCH   3  16
BRANCH  10  18
ATOM     18  O   UNL     1       2.678   4.233  20.280  0.00  0.00    +0.000 OA
ATOM     19  C   UNL     1       2.020   3.707  21.422  0.00  0.00    +0.000 C 
ENDBRANCH  10  18
TORSDOF 5
ENDMDL
MODEL 3
REMARK VINA RESULT:      -5.8      1.856      2.734
REMARK  Name = 
REMARK  8 active torsions:
REMARK  status: ('A' for Active; 'I' for Inactive)
REMARK    1  A    between atoms: C_1  and  C_2
REMARK    2  A    between atoms: C_2  and  O_3
REMARK    3  A    between atoms: O_3  and  C_4
REMARK    4  A    between atoms: C_4  and  C_6
REMARK    5  A    between atoms: C_8  and  S_9
REMARK    6  A    between atoms: S_9  and  C_10
REMARK    7  A    between atoms: N_17  and  O_18
REMARK    8  A    between atoms: O_18  and  C_19
REMARK                            x       y       z     vdW  Elec       q    Type
REMARK                         _______ _______ _______ _____ _____    ______ ____
ROOT
ATOM      1  C   UNL     1       6.022   5.761  17.701  0.00  0.00    +0.000 A 
ATOM      2  S   UNL     1       6.177   4.119  18.164  0.00  0.00    +0.000 S 
ATOM      3  C   UNL     1       4.527   3.976  18.577  0.00  0.00    +0.000 A 
ATOM      4  C   UNL     1       3.893   5.204  18.530  0.00  0.00    +0.000 A 
ATOM      5  C   UNL     1       4.722   6.210  17.893  0.00  0.00    +0.000 A 
ATOM      6  C   UNL     1       4.172   7.555  17.478  0.00  0.00    +0.000 C 
ATOM      7  C   UNL     1       2.741   7.824  17.977  0.00  0.00    +0.000 C 
ATOM      8  C   UNL     1       1.863   6.567  17.992  0.00  0.00    +0.000 C 
ATOM      9  C   UNL     1       2.529   5.563  18.913  0.00  0.00    +0.000 C 
ATOM     10  N   UNL     1       1.925   5.220  20.011  0.00  0.00    +0.000 NA
ENDROOT
BRANCH   1  11
ATOM     11  C   UNL     1       7.141   6.491  17.121  0.00  0.00    +0.000 C 
ATOM     12  O   UNL     1       7.583   6.319  15.992  0.00  0.00    +0.000 OA
BRANCH  11  13
ATOM     13  O   UNL     1       7.696   7.339  18.035  0.00  0.00    +0.000 OA
BRANCH  13  15
ATOM     14  C   UNL     1       8.730   9.407  18.636  0.00  0.00    +0.000 C 
ATOM     15  C   UNL     1       7.857   8.698  17.614  0.00  0.00    +0.000 C 
ENDBRANCH  13  15
ENDBRANCH  11  13
ENDBRANCH   1  11
BRANCH   3  16
ATOM     16  S   UNL     1       3.890   2.379  18.977  0.00  0.00    +0.000 S 
ATOM     17  C   UNL     1       2.593   2.187  17.738  0.00  0.00    +0.000 C 
ENDBRANCH   3  16
BRANCH  10  18
ATOM     18  O   UNL     1       2.760   4.496  20.872  0.00  0.00    +0.000 OA
ATOM     19  C   UNL     1       1.985   3.590  21.640  0.00  0.00    +0.000 C 
ENDBRANCH  10  18
TORSDOF 5
ENDMDL
MODEL 4
REMARK VINA RESULT:      -5.7      2.655      5.587
REMARK  Name = 
REMARK  8 active torsions:
REMARK  status: ('A' for Active; 'I' for Inactive)
REMARK    1  A    between atoms: C_1  and  C_2
REMARK    2  A    between atoms: C_2  and  O_3
REMARK    3  A    between atoms: O_3  and  C_4
REMARK    4  A    between atoms: C_4  and  C_6
REMARK    5  A    between atoms: C_8  and  S_9
REMARK    6  A    between atoms: S_9  and  C_10
REMARK    7  A    between atoms: N_17  and  O_18
REMARK    8  A    between atoms: O_18  and  C_19
REMARK                            x       y       z     vdW  Elec       q    Type
REMARK                         _______ _______ _______ _____ _____    ______ ____
ROOT
ATOM      1  C   UNL     1       4.065   3.949  19.044  0.00  0.00    +0.000 A 
ATOM      2  S   UNL     1       3.368   5.414  19.592  0.00  0.00    +0.000 S 
ATOM      3  C   UNL     1       3.771   6.257  18.163  0.00  0.00    +0.000 A 
ATOM      4  C   UNL     1       4.578   5.489  17.342  0.00  0.00    +0.000 A 
ATOM      5  C   UNL     1       4.634   4.110  17.788  0.00  0.00    +0.000 A 
ATOM      6  C   UNL     1       5.223   3.015  16.929  0.00  0.00    +0.000 C 
ATOM      7  C   UNL     1       5.929   3.529  15.661  0.00  0.00    +0.000 C 
ATOM      8  C   UNL     1       5.241   4.752  15.044  0.00  0.00    +0.000 C 
ATOM      9  C   UNL     1       5.243   5.848  16.092  0.00  0.00    +0.000 C 
ATOM     10  N   UNL     1       5.935   6.925  15.873  0.00  0.00    +0.000 NA
ENDROOT
BRANCH   1  11
ATOM     11  C   UNL     1       3.962   2.725  19.827  0.00  0.00    +0.000 C 
ATOM     12  O   UNL     1       4.912   2.049  20.204  0.00  0.00    +0.000 OA
BRANCH  11  13
ATOM     13  O   UNL     1       2.657   2.375  20.016  0.00  0.00    +0.000 OA
BRANCH  13  15
ATOM     14  C   UNL     1       0.610   2.550  18.796  0.00  0.00    +0.000 C 
ATOM     15  C   UNL     1       1.969   1.873  18.865  0.00  0.00    +0.000 C 
ENDBRANCH  13  15
ENDBRANCH  11  13
ENDBRANCH   1  11
BRANCH   3  16
ATOM     16  S   UNL     1       3.138   7.889  17.935  0.00  0.00    +0.000 S 
ATOM     17  C   UNL     1       1.980   8.022  19.311  0.00  0.00    +0.000 C 
ENDBRANCH   3  16
BRANCH  10  18
ATOM     18  O   UNL     1       6.050   7.723  17.018  0.00  0.00    +0.000 OA
ATOM     19  C   UNL     1       7.411   7.797  17.414  0.00  0.00    +0.000 C 
ENDBRANCH  10  18
TORSDOF 5
ENDMDL
MODEL 5
REMARK VINA RESULT:      -5.6      1.060      1.127
REMARK  Name = 
REMARK  8 active torsions:
REMARK  status: ('A' for Active; 'I' for Inactive)
REMARK    1  A    between atoms: C_1  and  C_2
REMARK    2  A    between atoms: C_2  and  O_3
REMARK    3  A    between atoms: O_3  and  C_4
REMARK    4  A    between atoms: C_4  and  C_6
REMARK    5  A    between atoms: C_8  and  S_9
REMARK    6  A    between atoms: S_9  and  C_10
REMARK    7  A    between atoms: N_17  and  O_18
REMARK    8  A    between atoms: O_18  and  C_19
REMARK                            x       y       z     vdW  Elec       q    Type
REMARK                         _______ _______ _______ _____ _____    ______ ____
ROOT
ATOM      1  C   UNL     1       5.874   5.632  17.471  0.00  0.00    +0.000 A 
ATOM      2  S   UNL     1       5.998   3.997  17.961  0.00  0.00    +0.000 S 
ATOM      3  C   UNL     1       4.381   3.933  18.507  0.00  0.00    +0.000 A 
ATOM      4  C   UNL     1       3.797   5.186  18.479  0.00  0.00    +0.000 A 
ATOM      5  C   UNL     1       4.613   6.141  17.753  0.00  0.00    +0.000 A 
ATOM      6  C   UNL     1       4.087   7.499  17.348  0.00  0.00    +0.000 C 
ATOM      7  C   UNL     1       2.713   7.840  17.952  0.00  0.00    +0.000 C 
ATOM      8  C   UNL     1       1.789   6.623  18.068  0.00  0.00    +0.000 C 
ATOM      9  C   UNL     1       2.484   5.611  18.959  0.00  0.00    +0.000 C 
ATOM     10  N   UNL     1       1.956   5.319  20.109  0.00  0.00    +0.000 NA
ENDROOT
BRANCH   1  11
ATOM     11  C   UNL     1       6.972   6.301  16.787  0.00  0.00    +0.000 C 
ATOM     12  O   UNL     1       7.438   7.390  17.102  0.00  0.00    +0.000 OA
BRANCH  11  13
ATOM     13  O   UNL     1       7.364   5.596  15.687  0.00  0.00    +0.000 OA
BRANCH  13  15
ATOM     14  C   UNL     1       6.378   3.973  14.237  0.00  0.00    +0.000 C 
ATOM     15  C   UNL     1       6.378   5.432  14.661  0.00  0.00    +0.000 C 
ENDBRANCH  13  15
ENDBRANCH  11  13
ENDBRANCH   1  11
BRANCH   3  16
ATOM     16  S   UNL     1       3.713   2.374  18.997  0.00  0.00    +0.000 S 
ATOM     17  C   UNL     1       2.386   2.157  17.794  0.00  0.00    +0.000 C 
ENDBRANCH   3  16
BRANCH  10  18
ATOM     18  O   UNL     1       2.826   4.580  20.920  0.00  0.00    +0.000 OA
ATOM     19  C   UNL     1       2.087   3.637  21.679  0.00  0.00    +0.000 C 
ENDBRANCH  10  18
TORSDOF 5
ENDMDL
MODEL 6
REMARK VINA RESULT:      -5.4      2.248      5.328
REMARK  Name = 
REMARK  8 active torsions:
REMARK  status: ('A' for Active; 'I' for Inactive)
REMARK    1  A    between atoms: C_1  and  C_2
REMARK    2  A    between atoms: C_2  and  O_3
REMARK    3  A    between atoms: O_3  and  C_4
REMARK    4  A    between atoms: C_4  and  C_6
REMARK    5  A    between atoms: C_8  and  S_9
REMARK    6  A    between atoms: S_9  and  C_10
REMARK    7  A    between atoms: N_17  and  O_18
REMARK    8  A    between atoms: O_18  and  C_19
REMARK                            x       y       z     vdW  Elec       q    Type
REMARK                         _______ _______ _______ _____ _____    ______ ____
ROOT
ATOM      1  C   UNL     1       3.704   4.238  19.602  0.00  0.00    +0.000 A 
ATOM      2  S   UNL     1       5.298   3.616  19.531  0.00  0.00    +0.000 S 
ATOM      3  C   UNL     1       5.829   4.826  18.450  0.00  0.00    +0.000 A 
ATOM      4  C   UNL     1       4.770   5.598  18.007  0.00  0.00    +0.000 A 
ATOM      5  C   UNL     1       3.566   5.346  18.777  0.00  0.00    +0.000 A 
ATOM      6  C   UNL     1       2.351   6.238  18.677  0.00  0.00    +0.000 C 
ATOM      7  C   UNL     1       2.438   7.286  17.552  0.00  0.00    +0.000 C 
ATOM      8  C   UNL     1       3.855   7.832  17.348  0.00  0.00    +0.000 C 
ATOM      9  C   UNL     1       4.747   6.656  17.001  0.00  0.00    +0.000 C 
ATOM     10  N   UNL     1       5.287   6.604  15.820  0.00  0.00    +0.000 NA
ENDROOT
BRANCH   1  11
ATOM     11  C   UNL     1       2.707   3.662  20.496  0.00  0.00    +0.000 C 
ATOM     12  O   UNL     1       2.187   4.247  21.439  0.00  0.00    +0.000 OA
BRANCH  11  13
ATOM     13  O   UNL     1       2.488   2.349  20.201  0.00  0.00    +0.000 OA
BRANCH  13  15
ATOM     14  C   UNL     1       0.563   2.584  18.806  0.00  0.00    +0.000 C 
ATOM     15  C   UNL     1       1.992   2.075  18.885  0.00  0.00    +0.000 C 
ENDBRANCH  13  15
ENDBRANCH  11  13
ENDBRANCH   1  11
BRANCH   3  16
ATOM     16  S   UNL     1       7.550   4.927  18.071  0.00  0.00    +0.000 S 
ATOM     17  C   UNL     1       7.947   6.591  18.642  0.00  0.00    +0.000 C 
ENDBRANCH   3  16
BRANCH  10  18
ATOM     18  O   UNL     1       5.864   5.356  15.556  0.00  0.00    +0.000 OA
ATOM     19  C   UNL     1       5.202   4.744  14.461  0.00  0.00    +0.000 C 
ENDBRANCH  10  18
TORSDOF 5
ENDMDL
MODEL 7
REMARK VINA RESULT:      -5.4      2.562      5.861
REMARK  Name = 
REMARK  8 active torsions:
REMARK  status: ('A' for Active; 'I' for Inactive)
REMARK    1  A    between atoms: C_1  and  C_2
REMARK    2  A    between atoms: C_2  and  O_3
REMARK    3  A    between atoms: O_3  and  C_4
REMARK    4  A    between atoms: C_4  and  C_6
REMARK    5  A    between atoms: C_8  and  S_9
REMARK    6  A    between atoms: S_9  and  C_10
REMARK    7  A    between atoms: N_17  and  O_18
REMARK    8  A    between atoms: O_18  and  C_19
REMARK                            x       y       z     vdW  Elec       q    Type
REMARK                         _______ _______ _______ _____ _____    ______ ____
ROOT
ATOM      1  C   UNL     1       2.982   4.182  18.059  0.00  0.00    +0.000 A 
ATOM      2  S   UNL     1       2.532   5.733  18.629  0.00  0.00    +0.000 S 
ATOM      3  C   UNL     1       3.623   6.541  17.594  0.00  0.00    +0.000 A 
ATOM      4  C   UNL     1       4.448   5.643  16.941  0.00  0.00    +0.000 A 
ATOM      5  C   UNL     1       3.987   4.277  17.105  0.00  0.00    +0.000 A 
ATOM      6  C   UNL     1       4.547   3.140  16.283  0.00  0.00    +0.000 C 
ATOM      7  C   UNL     1       5.769   3.529  15.431  0.00  0.00    +0.000 C 
ATOM      8  C   UNL     1       5.685   4.956  14.877  0.00  0.00    +0.000 C 
ATOM      9  C   UNL     1       5.587   5.896  16.062  0.00  0.00    +0.000 C 
ATOM     10  N   UNL     1       6.561   6.726  16.288  0.00  0.00    +0.000 NA
ENDROOT
BRANCH   1  11
ATOM     11  C   UNL     1       2.296   2.981  18.515  0.00  0.00    +0.000 C 
ATOM     12  O   UNL     1       1.144   2.677  18.226  0.00  0.00    +0.000 OA
BRANCH  11  13
ATOM     13  O   UNL     1       3.076   2.273  19.381  0.00  0.00    +0.000 OA
BRANCH  13  15
ATOM     14  C   UNL     1       2.025   2.706  21.483  0.00  0.00    +0.000 C 
ATOM     15  C   UNL     1       3.294   2.873  20.663  0.00  0.00    +0.000 C 
ENDBRANCH  13  15
ENDBRANCH  11  13
ENDBRANCH   1  11
BRANCH   3  16
ATOM     16  S   UNL     1       3.552   8.302  17.497  0.00  0.00    +0.000 S 
ATOM     17  C   UNL     1       1.854   8.624  18.013  0.00  0.00    +0.000 C 
ENDBRANCH   3  16
BRANCH  10  18
ATOM     18  O   UNL     1       6.454   7.340  17.542  0.00  0.00    +0.000 OA
ATOM     19  C   UNL     1       7.616   8.115  17.795  0.00  0.00    +0.000 C 
ENDBRANCH  10  18
TORSDOF 5
ENDMDL
MODEL 8
REMARK VINA RESULT:      -5.4      1.778      2.303
REMARK  Name = 
REMARK  8 active torsions:
REMARK  status: ('A' for Active; 'I' for Inactive)
REMARK    1  A    between atoms: C_1  and  C_2
REMARK    2  A    between atoms: C_2  and  O_3
REMARK    3  A    between atoms: O_3  and  C_4
REMARK    4  A    between atoms: C_4  and  C_6
REMARK    5  A    between atoms: C_8  and  S_9
REMARK    6  A    between atoms: S_9  and  C_10
REMARK    7  A    between atoms: N_17  and  O_18
REMARK    8  A    between atoms: O_18  and  C_19
REMARK                            x       y       z     vdW  Elec       q    Type
REMARK                         _______ _______ _______ _____ _____    ______ ____
ROOT
ATOM      1  C   UNL     1       4.350   5.778  17.161  0.00  0.00    +0.000 A 
ATOM      2  S   UNL     1       4.311   4.086  16.899  0.00  0.00    +0.000 S 
ATOM      3  C   UNL     1       3.066   3.837  18.040  0.00  0.00    +0.000 A 
ATOM      4  C   UNL     1       2.794   4.997  18.742  0.00  0.00    +0.000 A 
ATOM      5  C   UNL     1       3.438   6.149  18.140  0.00  0.00    +0.000 A 
ATOM      6  C   UNL     1       3.093   7.563  18.548  0.00  0.00    +0.000 C 
ATOM      7  C   UNL     1       2.171   7.649  19.778  0.00  0.00    +0.000 C 
ATOM      8  C   UNL     1       1.135   6.521  19.833  0.00  0.00    +0.000 C 
ATOM      9  C   UNL     1       1.896   5.210  19.875  0.00  0.00    +0.000 C 
ATOM     10  N   UNL     1       1.815   4.470  20.939  0.00  0.00    +0.000 NA
ENDROOT
BRANCH   1  11
ATOM     11  C   UNL     1       5.204   6.647  16.362  0.00  0.00    +0.000 C 
ATOM     12  O   UNL     1       5.155   6.753  15.142  0.00  0.00    +0.000 OA
BRANCH  11  13
ATOM     13  O   UNL     1       6.133   7.269  17.143  0.00  0.00    +0.000 OA
BRANCH  13  15
ATOM     14  C   UNL     1       7.625   6.127  18.618  0.00  0.00    +0.000 C 
ATOM     15  C   UNL     1       7.421   6.646  17.205  0.00  0.00    +0.000 C 
ENDBRANCH  13  15
ENDBRANCH  11  13
ENDBRANCH   1  11
BRANCH   3  16
ATOM     16  S   UNL     1       2.334   2.235  18.158  0.00  0.00    +0.000 S 
ATOM     17  C   UNL     1       3.778   1.202  18.482  0.00  0.00    +0.000 C 
ENDBRANCH   3  16
BRANCH  10  18
ATOM     18  O   UNL     1       2.758   3.435  20.938  0.00  0.00    +0.000 OA
ATOM     19  C   UNL     1       2.318   2.386  21.786  0.00  0.00    +0.000 C 
ENDBRANCH  10  18
TORSDOF 5
ENDMDL
MODEL 9
REMARK VINA RESULT:      -5.3      2.749      5.438
REMARK  Name = 
REMARK  8 active torsions:
REMARK  status: ('A' for Active; 'I' for Inactive)
REMARK    1  A    between atoms: C_1  and  C_2
REMARK    2  A    between atoms: C_2  and  O_3
REMARK    3  A    between atoms: O_3  and  C_4
REMARK    4  A    between atoms: C_4  and  C_6
REMARK    5  A    between atoms: C_8  and  S_9
REMARK    6  A    between atoms: S_9  and  C_10
REMARK    7  A    between atoms: N_17  and  O_18
REMARK    8  A    between atoms: O_18  and  C_19
REMARK                            x       y       z     vdW  Elec       q    Type
REMARK                         _______ _______ _______ _____ _____    ______ ____
ROOT
ATOM      1  C   UNL     1       3.321   6.675  17.880  0.00  0.00    +0.000 A 
ATOM      2  S   UNL     1       2.566   5.138  17.868  0.00  0.00    +0.000 S 
ATOM      3  C   UNL     1       4.042   4.303  17.667  0.00  0.00    +0.000 A 
ATOM      4  C   UNL     1       5.084   5.183  17.439  0.00  0.00    +0.000 A 
ATOM      5  C   UNL     1       4.692   6.555  17.698  0.00  0.00    +0.000 A 
ATOM      6  C   UNL     1       5.704   7.674  17.783  0.00  0.00    +0.000 C 
ATOM      7  C   UNL     1       7.127   7.260  17.368  0.00  0.00    +0.000 C 
ATOM      8  C   UNL     1       7.479   5.825  17.777  0.00  0.00    +0.000 C 
ATOM      9  C   UNL     1       6.479   4.906  17.105  0.00  0.00    +0.000 C 
ATOM     10  N   UNL     1       6.901   4.070  16.204  0.00  0.00    +0.000 NA
ENDROOT
BRANCH   1  11
ATOM     11  C   UNL     1       2.557   7.890  18.131  0.00  0.00    +0.000 C 
ATOM     12  O   UNL     1       2.408   8.804  17.329  0.00  0.00    +0.000 OA
BRANCH  11  13
ATOM     13  O   UNL     1       2.095   7.920  19.414  0.00  0.00    +0.000 OA
BRANCH  13  15
ATOM     14  C   UNL     1       1.031   9.008  21.255  0.00  0.00    +0.000 C 
ATOM     15  C   UNL     1       1.248   9.024  19.751  0.00  0.00    +0.000 C 
ENDBRANCH  13  15
ENDBRANCH  11  13
ENDBRANCH   1  11
BRANCH   3  16
ATOM     16  S   UNL     1       4.040   2.541  17.778  0.00  0.00    +0.000 S 
ATOM     17  C   UNL     1       4.160   2.292  19.561  0.00  0.00    +0.000 C 
ENDBRANCH   3  16
BRANCH  10  18
ATOM     18  O   UNL     1       5.847   3.477  15.496  0.00  0.00    +0.000 OA
ATOM     19  C   UNL     1       5.929   3.837  14.126  0.00  0.00    +0.000 C 
ENDBRANCH  10  18
TORSDOF 5
ENDMDL
