MODEL 1
REMARK VINA RESULT:      -7.1      0.000      0.000
REMARK  Name = 
REMARK  12 active torsions:
REMARK  status: ('A' for Active; 'I' for Inactive)
REMARK    1  A    between atoms: C_1  and  C_2
REMARK    2  A    between atoms: C_2  and  C_3
REMARK    3  A    between atoms: C_2  and  C_4
REMARK    4  A    between atoms: C_7  and  N_8
REMARK    5  A    between atoms: C_11  and  C_12
REMARK    6  A    between atoms: N_14  and  C_15
REMARK    7  A    between atoms: C_15  and  C_16
REMARK    8  A    between atoms: C_16  and  C_17
REMARK    9  A    between atoms: C_17  and  N_18
REMARK   10  A    between atoms: N_18  and  C_19
REMARK   11  A    between atoms: N_18  and  C_20
REMARK   12  A    between atoms: C_20  and  C_21
REMARK                            x       y       z     vdW  Elec       q    Type
REMARK                         _______ _______ _______ _____ _____    ______ ____
ROOT
ATOM      1  N   UNL     1       0.981   8.752  19.492  0.00  0.00    +0.000 N 
ATOM      2  C   UNL     1       0.688  10.148  19.351  0.00  0.00    +0.000 A 
ATOM      3  C   UNL     1      -0.625  10.515  19.604  0.00  0.00    +0.000 A 
ATOM      4  C   UNL     1      -1.070  11.738  19.108  0.00  0.00    +0.000 A 
ATOM      5  C   UNL     1      -0.165  12.780  18.992  0.00  0.00    +0.000 A 
ATOM      6  C   UNL     1      -0.580  14.131  18.943  0.00  0.00    +0.000 A 
ATOM      7  C   UNL     1       0.351  15.146  18.815  0.00  0.00    +0.000 A 
ATOM      8  C   UNL     1       1.691  14.803  18.713  0.00  0.00    +0.000 A 
ATOM      9  C   UNL     1       2.090  13.454  18.762  0.00  0.00    +0.000 A 
ATOM     10  C   UNL     1       1.185  12.406  18.930  0.00  0.00    +0.000 A 
ATOM     11  N   UNL     1       1.582  11.099  19.005  0.00  0.00    +0.000 NA
ATOM     12  H   UNL     1       0.117   8.217  19.427  0.00  0.00    +0.000 HD
ENDROOT
BRANCH   1  16
ATOM     13  C   UNL     1       4.131   6.182  18.102  0.00  0.00    +0.000 A 
ATOM     14  C   UNL     1       3.792   7.356  17.404  0.00  0.00    +0.000 A 
ATOM     15  C   UNL     1       2.761   8.205  17.838  0.00  0.00    +0.000 A 
ATOM     16  C   UNL     1       2.026   7.932  18.984  0.00  0.00    +0.000 A 
ATOM     17  C   UNL     1       2.412   6.791  19.724  0.00  0.00    +0.000 A 
ATOM     18  C   UNL     1       3.439   5.925  19.289  0.00  0.00    +0.000 A 
BRANCH  13  20
ATOM     19  C   UNL     1       5.289   5.352  16.016  0.00  0.00    +0.000 C 
ATOM     20  C   UNL     1       5.230   5.288  17.546  0.00  0.00    +0.000 C 
ATOM     21  C   UNL     1       6.625   5.524  18.127  0.00  0.00    +0.000 C 
ENDBRANCH  13  20
ENDBRANCH   1  16
BRANCH   4  22
ATOM     22  C   UNL     1      -2.189  11.741  18.095  0.00  0.00    +0.000 C 
ATOM     23  O   UNL     1      -2.022  11.402  16.928  0.00  0.00    +0.000 OA
ATOM     24  N   UNL     1      -3.447  11.991  18.587  0.00  0.00    +0.000 N 
ATOM     25  H   UNL     1      -3.578  12.166  19.571  0.00  0.00    +0.000 HD
BRANCH  24  26
ATOM     26  C   UNL     1      -4.628  11.640  17.828  0.00  0.00    +0.000 C 
BRANCH  26  27
ATOM     27  C   UNL     1      -5.831  12.194  18.562  0.00  0.00    +0.000 C 
BRANCH  27  28
ATOM     28  C   UNL     1      -5.597  12.317  20.060  0.00  0.00    +0.000 C 
BRANCH  28  29
ATOM     29  N   UNL     1      -5.153  13.676  20.432  0.00  0.00    +0.000 NA
ATOM     30  C   UNL     1      -6.195  14.671  20.138  0.00  0.00    +0.000 C 
BRANCH  29  31
ATOM     31  C   UNL     1      -4.787  13.673  21.863  0.00  0.00    +0.000 C 
BRANCH  31  32
ATOM     32  C   UNL     1      -3.297  13.604  22.116  0.00  0.00    +0.000 A 
ATOM     33  C   UNL     1      -2.702  12.377  22.440  0.00  0.00    +0.000 A 
ATOM     34  C   UNL     1      -1.345  12.308  22.750  0.00  0.00    +0.000 A 
ATOM     35  C   UNL     1      -0.569  13.465  22.734  0.00  0.00    +0.000 A 
ATOM     36  C   UNL     1      -1.145  14.689  22.395  0.00  0.00    +0.000 A 
ATOM     37  C   UNL     1      -2.502  14.758  22.081  0.00  0.00    +0.000 A 
ENDBRANCH  31  32
ENDBRANCH  29  31
ENDBRANCH  28  29
ENDBRANCH  27  28
ENDBRANCH  26  27
ENDBRANCH  24  26
ENDBRANCH   4  22
TORSDOF 9
ENDMDL
MODEL 2
REMARK VINA RESULT:      -6.9      2.032      4.075
REMARK  Name = 
REMARK  12 active torsions:
REMARK  status: ('A' for Active; 'I' for Inactive)
REMARK    1  A    between atoms: C_1  and  C_2
REMARK    2  A    between atoms: C_2  and  C_3
REMARK    3  A    between atoms: C_2  and  C_4
REMARK    4  A    between atoms: C_7  and  N_8
REMARK    5  A    between atoms: C_11  and  C_12
REMARK    6  A    between atoms: N_14  and  C_15
REMARK    7  A    between atoms: C_15  and  C_16
REMARK    8  A    between atoms: C_16  and  C_17
REMARK    9  A    between atoms: C_17  and  N_18
REMARK   10  A    between atoms: N_18  and  C_19
REMARK   11  A    between atoms: N_18  and  C_20
REMARK   12  A    between atoms: C_20  and  C_21
REMARK                            x       y       z     vdW  Elec       q    Type
REMARK                         _______ _______ _______ _____ _____    ______ ____
ROOT
ATOM      1  N   UNL     1       2.125   9.122  18.533  0.00  0.00    +0.000 N 
ATOM      2  C   UNL     1       0.910   9.884  18.536  0.00  0.00    +0.000 A 
ATOM      3  C   UNL     1       1.046  11.231  18.836  0.00  0.00    +0.000 A 
ATOM      4  C   UNL     1      -0.087  11.927  19.248  0.00  0.00    +0.000 A 
ATOM      5  C   UNL     1      -1.323  11.541  18.755  0.00  0.00    +0.000 A 
ATOM      6  C   UNL     1      -2.431  12.420  18.740  0.00  0.00    +0.000 A 
ATOM      7  C   UNL     1      -3.654  11.998  18.252  0.00  0.00    +0.000 A 
ATOM      8  C   UNL     1      -3.769  10.690  17.804  0.00  0.00    +0.000 A 
ATOM      9  C   UNL     1      -2.658   9.825  17.826  0.00  0.00    +0.000 A 
ATOM     10  C   UNL     1      -1.399  10.227  18.274  0.00  0.00    +0.000 A 
ATOM     11  N   UNL     1      -0.318   9.391  18.267  0.00  0.00    +0.000 NA
ATOM     12  H   UNL     1       2.833   9.615  19.074  0.00  0.00    +0.000 HD
ENDROOT
BRANCH   1  16
ATOM     13  C   UNL     1       2.863   4.925  19.074  0.00  0.00    +0.000 A 
ATOM     14  C   UNL     1       3.311   5.598  17.921  0.00  0.00    +0.000 A 
ATOM     15  C   UNL     1       3.074   6.967  17.723  0.00  0.00    +0.000 A 
ATOM     16  C   UNL     1       2.388   7.731  18.659  0.00  0.00    +0.000 A 
ATOM     17  C   UNL     1       1.999   7.072  19.847  0.00  0.00    +0.000 A 
ATOM     18  C   UNL     1       2.222   5.693  20.051  0.00  0.00    +0.000 A 
BRANCH  13  20
ATOM     19  C   UNL     1       2.662   2.673  17.946  0.00  0.00    +0.000 C 
ATOM     20  C   UNL     1       3.118   3.430  19.199  0.00  0.00    +0.000 C 
ATOM     21  C   UNL     1       4.556   3.036  19.544  0.00  0.00    +0.000 C 
ENDBRANCH  13  20
ENDBRANCH   1  16
BRANCH   4  22
ATOM     22  C   UNL     1      -0.103  12.522  20.636  0.00  0.00    +0.000 C 
ATOM     23  O   UNL     1       0.181  13.695  20.852  0.00  0.00    +0.000 OA
ATOM     24  N   UNL     1      -0.610  11.720  21.629  0.00  0.00    +0.000 N 
ATOM     25  H   UNL     1      -0.936  10.792  21.411  0.00  0.00    +0.000 HD
BRANCH  24  26
ATOM     26  C   UNL     1      -1.046  12.281  22.890  0.00  0.00    +0.000 C 
BRANCH  26  27
ATOM     27  C   UNL     1      -2.487  11.868  23.107  0.00  0.00    +0.000 C 
BRANCH  27  28
ATOM     28  C   UNL     1      -3.469  12.761  22.365  0.00  0.00    +0.000 C 
BRANCH  28  29
ATOM     29  N   UNL     1      -4.858  12.532  22.816  0.00  0.00    +0.000 NA
ATOM     30  C   UNL     1      -4.962  12.626  24.279  0.00  0.00    +0.000 C 
BRANCH  29  31
ATOM     31  C   UNL     1      -5.735  13.511  22.141  0.00  0.00    +0.000 C 
BRANCH  31  32
ATOM     32  C   UNL     1      -6.336  13.009  20.846  0.00  0.00    +0.000 A 
ATOM     33  C   UNL     1      -6.616  11.643  20.694  0.00  0.00    +0.000 A 
ATOM     34  C   UNL     1      -7.099  11.152  19.482  0.00  0.00    +0.000 A 
ATOM     35  C   UNL     1      -7.310  12.021  18.414  0.00  0.00    +0.000 A 
ATOM     36  C   UNL     1      -7.054  13.384  18.560  0.00  0.00    +0.000 A 
ATOM     37  C   UNL     1      -6.574  13.878  19.773  0.00  0.00    +0.000 A 
ENDBRANCH  31  32
ENDBRANCH  29  31
ENDBRANCH  28  29
ENDBRANCH  27  28
ENDBRANCH  26  27
ENDBRANCH  24  26
ENDBRANCH   4  22
TORSDOF 9
ENDMDL
MODEL 3
REMARK VINA RESULT:      -6.6      5.517     11.288
REMARK  Name = 
REMARK  12 active torsions:
REMARK  status: ('A' for Active; 'I' for Inactive)
REMARK    1  A    between atoms: C_1  and  C_2
REMARK    2  A    between atoms: C_2  and  C_3
REMARK    3  A    between atoms: C_2  and  C_4
REMARK    4  A    between atoms: C_7  and  N_8
REMARK    5  A    between atoms: C_11  and  C_12
REMARK    6  A    between atoms: N_14  and  C_15
REMARK    7  A    between atoms: C_15  and  C_16
REMARK    8  A    between atoms: C_16  and  C_17
REMARK    9  A    between atoms: C_17  and  N_18
REMARK   10  A    between atoms: N_18  and  C_19
REMARK   11  A    between atoms: N_18  and  C_20
REMARK   12  A    between atoms: C_20  and  C_21
REMARK                            x       y       z     vdW  Elec       q    Type
REMARK                         _______ _______ _______ _____ _____    ______ ____
ROOT
ATOM      1  N   UNL     1       5.537  14.064  17.620  0.00  0.00    +0.000 N 
ATOM      2  C   UNL     1       6.968  14.008  17.679  0.00  0.00    +0.000 A 
ATOM      3  C   UNL     1       7.543  12.826  17.236  0.00  0.00    +0.000 A 
ATOM      4  C   UNL     1       8.848  12.545  17.630  0.00  0.00    +0.000 A 
ATOM      5  C   UNL     1       9.724  13.599  17.839  0.00  0.00    +0.000 A 
ATOM      6  C   UNL     1      11.126  13.428  17.791  0.00  0.00    +0.000 A 
ATOM      7  C   UNL     1      11.971  14.500  18.016  0.00  0.00    +0.000 A 
ATOM      8  C   UNL     1      11.407  15.732  18.312  0.00  0.00    +0.000 A 
ATOM      9  C   UNL     1      10.009  15.888  18.358  0.00  0.00    +0.000 A 
ATOM     10  C   UNL     1       9.125  14.840  18.098  0.00  0.00    +0.000 A 
ATOM     11  N   UNL     1       7.768  15.004  18.117  0.00  0.00    +0.000 NA
ATOM     12  H   UNL     1       5.164  13.117  17.581  0.00  0.00    +0.000 HD
ENDROOT
BRANCH   1  16
ATOM     13  C   UNL     1       2.592  16.567  19.494  0.00  0.00    +0.000 A 
ATOM     14  C   UNL     1       3.516  15.833  20.263  0.00  0.00    +0.000 A 
ATOM     15  C   UNL     1       4.481  15.004  19.670  0.00  0.00    +0.000 A 
ATOM     16  C   UNL     1       4.578  14.870  18.291  0.00  0.00    +0.000 A 
ATOM     17  C   UNL     1       3.697  15.660  17.517  0.00  0.00    +0.000 A 
ATOM     18  C   UNL     1       2.714  16.486  18.104  0.00  0.00    +0.000 A 
BRANCH  13  20
ATOM     19  C   UNL     1       0.151  17.210  19.604  0.00  0.00    +0.000 C 
ATOM     20  C   UNL     1       1.545  17.409  20.210  0.00  0.00    +0.000 C 
ATOM     21  C   UNL     1       1.480  17.226  21.727  0.00  0.00    +0.000 C 
ENDBRANCH  13  20
ENDBRANCH   1  16
BRANCH   4  22
ATOM     22  C   UNL     1       9.099  11.322  18.479  0.00  0.00    +0.000 C 
ATOM     23  O   UNL     1       9.411  11.394  19.662  0.00  0.00    +0.000 OA
ATOM     24  N   UNL     1       8.800  10.114  17.897  0.00  0.00    +0.000 N 
ATOM     25  H   UNL     1       8.445  10.082  16.955  0.00  0.00    +0.000 HD
BRANCH  24  26
ATOM     26  C   UNL     1       8.614   8.925  18.701  0.00  0.00    +0.000 C 
BRANCH  26  27
ATOM     27  C   UNL     1       7.907   7.894  17.847  0.00  0.00    +0.000 C 
BRANCH  27  28
ATOM     28  C   UNL     1       7.807   6.538  18.527  0.00  0.00    +0.000 C 
BRANCH  28  29
ATOM     29  N   UNL     1       6.744   5.705  17.927  0.00  0.00    +0.000 NA
ATOM     30  C   UNL     1       7.316   4.640  17.090  0.00  0.00    +0.000 C 
BRANCH  29  31
ATOM     31  C   UNL     1       5.909   5.157  19.016  0.00  0.00    +0.000 C 
BRANCH  31  32
ATOM     32  C   UNL     1       4.473   4.894  18.616  0.00  0.00    +0.000 A 
ATOM     33  C   UNL     1       4.176   3.829  17.754  0.00  0.00    +0.000 A 
ATOM     34  C   UNL     1       2.870   3.618  17.316  0.00  0.00    +0.000 A 
ATOM     35  C   UNL     1       1.848   4.466  17.739  0.00  0.00    +0.000 A 
ATOM     36  C   UNL     1       2.129   5.517  18.612  0.00  0.00    +0.000 A 
ATOM     37  C   UNL     1       3.435   5.727  19.054  0.00  0.00    +0.000 A 
ENDBRANCH  31  32
ENDBRANCH  29  31
ENDBRANCH  28  29
ENDBRANCH  27  28
ENDBRANCH  26  27
ENDBRANCH  24  26
ENDBRANCH   4  22
TORSDOF 9
ENDMDL
MODEL 4
REMARK VINA RESULT:      -6.6      2.263      4.099
REMARK  Name = 
REMARK  12 active torsions:
REMARK  status: ('A' for Active; 'I' for Inactive)
REMARK    1  A    between atoms: C_1  and  C_2
REMARK    2  A    between atoms: C_2  and  C_3
REMARK    3  A    between atoms: C_2  and  C_4
REMARK    4  A    between atoms: C_7  and  N_8
REMARK    5  A    between atoms: C_11  and  C_12
REMARK    6  A    between atoms: N_14  and  C_15
REMARK    7  A    between atoms: C_15  and  C_16
REMARK    8  A    between atoms: C_16  and  C_17
REMARK    9  A    between atoms: C_17  and  N_18
REMARK   10  A    between atoms: N_18  and  C_19
REMARK   11  A    between atoms: N_18  and  C_20
REMARK   12  A    between atoms: C_20  and  C_21
REMARK                            x       y       z     vdW  Elec       q    Type
REMARK                         _______ _______ _______ _____ _____    ______ ____
ROOT
ATOM      1  N   UNL     1       1.937   8.306  17.840  0.00  0.00    +0.000 N 
ATOM      2  C   UNL     1       1.218   9.047  18.835  0.00  0.00    +0.000 A 
ATOM      3  C   UNL     1       0.465  10.112  18.364  0.00  0.00    +0.000 A 
ATOM      4  C   UNL     1       0.081  11.095  19.272  0.00  0.00    +0.000 A 
ATOM      5  C   UNL     1      -0.145  10.733  20.590  0.00  0.00    +0.000 A 
ATOM      6  C   UNL     1      -0.947  11.515  21.454  0.00  0.00    +0.000 A 
ATOM      7  C   UNL     1      -1.142  11.130  22.768  0.00  0.00    +0.000 A 
ATOM      8  C   UNL     1      -0.515   9.977  23.218  0.00  0.00    +0.000 A 
ATOM      9  C   UNL     1       0.281   9.209  22.347  0.00  0.00    +0.000 A 
ATOM     10  C   UNL     1       0.469   9.544  21.006  0.00  0.00    +0.000 A 
ATOM     11  N   UNL     1       1.221   8.779  20.158  0.00  0.00    +0.000 NA
ATOM     12  H   UNL     1       2.045   8.879  17.005  0.00  0.00    +0.000 HD
ENDROOT
BRANCH   1  16
ATOM     13  C   UNL     1       5.423   5.797  17.935  0.00  0.00    +0.000 A 
ATOM     14  C   UNL     1       4.249   5.434  18.623  0.00  0.00    +0.000 A 
ATOM     15  C   UNL     1       3.102   6.244  18.610  0.00  0.00    +0.000 A 
ATOM     16  C   UNL     1       3.065   7.444  17.912  0.00  0.00    +0.000 A 
ATOM     17  C   UNL     1       4.219   7.774  17.164  0.00  0.00    +0.000 A 
ATOM     18  C   UNL     1       5.381   6.973  17.181  0.00  0.00    +0.000 A 
BRANCH  13  20
ATOM     19  C   UNL     1       7.057   4.355  16.657  0.00  0.00    +0.000 C 
ATOM     20  C   UNL     1       6.642   4.891  18.032  0.00  0.00    +0.000 C 
ATOM     21  C   UNL     1       7.856   5.496  18.738  0.00  0.00    +0.000 C 
ENDBRANCH  13  20
ENDBRANCH   1  16
BRANCH   4  22
ATOM     22  C   UNL     1       0.587  12.503  19.068  0.00  0.00    +0.000 C 
ATOM     23  O   UNL     1      -0.060  13.354  18.467  0.00  0.00    +0.000 OA
ATOM     24  N   UNL     1       1.744  12.830  19.732  0.00  0.00    +0.000 N 
ATOM     25  H   UNL     1       2.207  12.143  20.306  0.00  0.00    +0.000 HD
BRANCH  24  26
ATOM     26  C   UNL     1       2.116  14.212  19.945  0.00  0.00    +0.000 C 
BRANCH  26  27
ATOM     27  C   UNL     1       1.647  14.608  21.330  0.00  0.00    +0.000 C 
BRANCH  27  28
ATOM     28  C   UNL     1       0.521  15.629  21.296  0.00  0.00    +0.000 C 
BRANCH  28  29
ATOM     29  N   UNL     1      -0.214  15.670  22.578  0.00  0.00    +0.000 NA
ATOM     30  C   UNL     1       0.411  16.614  23.516  0.00  0.00    +0.000 C 
BRANCH  29  31
ATOM     31  C   UNL     1      -1.621  16.026  22.299  0.00  0.00    +0.000 C 
BRANCH  31  32
ATOM     32  C   UNL     1      -2.614  14.949  22.677  0.00  0.00    +0.000 A 
ATOM     33  C   UNL     1      -2.682  14.502  24.004  0.00  0.00    +0.000 A 
ATOM     34  C   UNL     1      -3.538  13.459  24.356  0.00  0.00    +0.000 A 
ATOM     35  C   UNL     1      -4.336  12.858  23.386  0.00  0.00    +0.000 A 
ATOM     36  C   UNL     1      -4.292  13.307  22.067  0.00  0.00    +0.000 A 
ATOM     37  C   UNL     1      -3.439  14.353  21.714  0.00  0.00    +0.000 A 
ENDBRANCH  31  32
ENDBRANCH  29  31
ENDBRANCH  28  29
ENDBRANCH  27  28
ENDBRANCH  26  27
ENDBRANCH  24  26
ENDBRANCH   4  22
TORSDOF 9
ENDMDL
MODEL 5
REMARK VINA RESULT:      -6.6      2.199      4.058
REMARK  Name = 
REMARK  12 active torsions:
REMARK  status: ('A' for Active; 'I' for Inactive)
REMARK    1  A    between atoms: C_1  and  C_2
REMARK    2  A    between atoms: C_2  and  C_3
REMARK    3  A    between atoms: C_2  and  C_4
REMARK    4  A    between atoms: C_7  and  N_8
REMARK    5  A    between atoms: C_11  and  C_12
REMARK    6  A    between atoms: N_14  and  C_15
REMARK    7  A    between atoms: C_15  and  C_16
REMARK    8  A    between atoms: C_16  and  C_17
REMARK    9  A    between atoms: C_17  and  N_18
REMARK   10  A    between atoms: N_18  and  C_19
REMARK   11  A    between atoms: N_18  and  C_20
REMARK   12  A    between atoms: C_20  and  C_21
REMARK                            x       y       z     vdW  Elec       q    Type
REMARK                         _______ _______ _______ _____ _____    ______ ____
ROOT
ATOM      1  N   UNL     1       1.850   8.554  17.799  0.00  0.00    +0.000 N 
ATOM      2  C   UNL     1       1.212   9.223  18.894  0.00  0.00    +0.000 A 
ATOM      3  C   UNL     1       0.612  10.436  18.591  0.00  0.00    +0.000 A 
ATOM      4  C   UNL     1       0.339  11.312  19.638  0.00  0.00    +0.000 A 
ATOM      5  C   UNL     1       0.040  10.787  20.885  0.00  0.00    +0.000 A 
ATOM      6  C   UNL     1      -0.672  11.527  21.857  0.00  0.00    +0.000 A 
ATOM      7  C   UNL     1      -0.944  10.977  23.097  0.00  0.00    +0.000 A 
ATOM      8  C   UNL     1      -0.480   9.697  23.365  0.00  0.00    +0.000 A 
ATOM      9  C   UNL     1       0.228   8.972  22.388  0.00  0.00    +0.000 A 
ATOM     10  C   UNL     1       0.487   9.479  21.115  0.00  0.00    +0.000 A 
ATOM     11  N   UNL     1       1.151   8.759  20.161  0.00  0.00    +0.000 NA
ATOM     12  H   UNL     1       2.049   9.227  17.062  0.00  0.00    +0.000 HD
ENDROOT
BRANCH   1  16
ATOM     13  C   UNL     1       4.983   5.628  17.520  0.00  0.00    +0.000 A 
ATOM     14  C   UNL     1       3.739   5.305  18.094  0.00  0.00    +0.000 A 
ATOM     15  C   UNL     1       2.705   6.249  18.201  0.00  0.00    +0.000 A 
ATOM     16  C   UNL     1       2.856   7.551  17.739  0.00  0.00    +0.000 A 
ATOM     17  C   UNL     1       4.079   7.855  17.100  0.00  0.00    +0.000 A 
ATOM     18  C   UNL     1       5.129   6.917  17.000  0.00  0.00    +0.000 A 
BRANCH  13  20
ATOM     19  C   UNL     1       6.327   4.073  16.050  0.00  0.00    +0.000 C 
ATOM     20  C   UNL     1       6.072   4.565  17.480  0.00  0.00    +0.000 C 
ATOM     21  C   UNL     1       7.398   4.957  18.135  0.00  0.00    +0.000 C 
ENDBRANCH  13  20
ENDBRANCH   1  16
BRANCH   4  22
ATOM     22  C   UNL     1       1.027  12.656  19.652  0.00  0.00    +0.000 C 
ATOM     23  O   UNL     1       2.157  12.813  20.103  0.00  0.00    +0.000 OA
ATOM     24  N   UNL     1       0.383  13.669  18.986  0.00  0.00    +0.000 N 
ATOM     25  H   UNL     1      -0.500  13.493  18.532  0.00  0.00    +0.000 HD
BRANCH  24  26
ATOM     26  C   UNL     1       1.090  14.867  18.586  0.00  0.00    +0.000 C 
BRANCH  26  27
ATOM     27  C   UNL     1       0.319  16.058  19.114  0.00  0.00    +0.000 C 
BRANCH  27  28
ATOM     28  C   UNL     1       0.689  16.405  20.548  0.00  0.00    +0.000 C 
BRANCH  28  29
ATOM     29  N   UNL     1      -0.057  15.577  21.518  0.00  0.00    +0.000 NA
ATOM     30  C   UNL     1       0.539  15.666  22.859  0.00  0.00    +0.000 C 
BRANCH  29  31
ATOM     31  C   UNL     1      -1.469  16.013  21.516  0.00  0.00    +0.000 C 
BRANCH  31  32
ATOM     32  C   UNL     1      -2.461  14.882  21.678  0.00  0.00    +0.000 A 
ATOM     33  C   UNL     1      -2.911  14.530  22.959  0.00  0.00    +0.000 A 
ATOM     34  C   UNL     1      -3.767  13.444  23.134  0.00  0.00    +0.000 A 
ATOM     35  C   UNL     1      -4.184  12.703  22.031  0.00  0.00    +0.000 A 
ATOM     36  C   UNL     1      -3.759  13.055  20.751  0.00  0.00    +0.000 A 
ATOM     37  C   UNL     1      -2.906  14.144  20.573  0.00  0.00    +0.000 A 
ENDBRANCH  31  32
ENDBRANCH  29  31
ENDBRANCH  28  29
ENDBRANCH  27  28
ENDBRANCH  26  27
ENDBRANCH  24  26
ENDBRANCH   4  22
TORSDOF 9
ENDMDL
MODEL 6
REMARK VINA RESULT:      -6.5      2.311      4.419
REMARK  Name = 
REMARK  12 active torsions:
REMARK  status: ('A' for Active; 'I' for Inactive)
REMARK    1  A    between atoms: C_1  and  C_2
REMARK    2  A    between atoms: C_2  and  C_3
REMARK    3  A    between atoms: C_2  and  C_4
REMARK    4  A    between atoms: C_7  and  N_8
REMARK    5  A    between atoms: C_11  and  C_12
REMARK    6  A    between atoms: N_14  and  C_15
REMARK    7  A    between atoms: C_15  and  C_16
REMARK    8  A    between atoms: C_16  and  C_17
REMARK    9  A    between atoms: C_17  and  N_18
REMARK   10  A    between atoms: N_18  and  C_19
REMARK   11  A    between atoms: N_18  and  C_20
REMARK   12  A    between atoms: C_20  and  C_21
REMARK                            x       y       z     vdW  Elec       q    Type
REMARK                         _______ _______ _______ _____ _____    ______ ____
ROOT
ATOM      1  N   UNL     1       2.963   8.879  17.718  0.00  0.00    +0.000 N 
ATOM      2  C   UNL     1       1.865   9.757  17.997  0.00  0.00    +0.000 A 
ATOM      3  C   UNL     1       2.197  11.088  18.200  0.00  0.00    +0.000 A 
ATOM      4  C   UNL     1       1.276  11.900  18.857  0.00  0.00    +0.000 A 
ATOM      5  C   UNL     1      -0.075  11.633  18.707  0.00  0.00    +0.000 A 
ATOM      6  C   UNL     1      -1.063  12.617  18.937  0.00  0.00    +0.000 A 
ATOM      7  C   UNL     1      -2.404  12.313  18.789  0.00  0.00    +0.000 A 
ATOM      8  C   UNL     1      -2.750  11.017  18.436  0.00  0.00    +0.000 A 
ATOM      9  C   UNL     1      -1.756  10.046  18.211  0.00  0.00    +0.000 A 
ATOM     10  C   UNL     1      -0.393  10.326  18.312  0.00  0.00    +0.000 A 
ATOM     11  N   UNL     1       0.569   9.386  18.065  0.00  0.00    +0.000 NA
ATOM     12  H   UNL     1       3.828   9.305  18.043  0.00  0.00    +0.000 HD
ENDROOT
BRANCH   1  16
ATOM     13  C   UNL     1       3.558   4.629  17.929  0.00  0.00    +0.000 A 
ATOM     14  C   UNL     1       2.473   5.243  18.584  0.00  0.00    +0.000 A 
ATOM     15  C   UNL     1       2.266   6.631  18.534  0.00  0.00    +0.000 A 
ATOM     16  C   UNL     1       3.119   7.470  17.827  0.00  0.00    +0.000 A 
ATOM     17  C   UNL     1       4.166   6.846  17.112  0.00  0.00    +0.000 A 
ATOM     18  C   UNL     1       4.390   5.454  17.167  0.00  0.00    +0.000 A 
BRANCH  13  20
ATOM     19  C   UNL     1       4.246   2.744  19.464  0.00  0.00    +0.000 C 
ATOM     20  C   UNL     1       3.743   3.125  18.066  0.00  0.00    +0.000 C 
ATOM     21  C   UNL     1       2.521   2.277  17.709  0.00  0.00    +0.000 C 
ENDBRANCH  13  20
ENDBRANCH   1  16
BRANCH   4  22
ATOM     22  C   UNL     1       1.669  12.513  20.180  0.00  0.00    +0.000 C 
ATOM     23  O   UNL     1       1.569  11.907  21.241  0.00  0.00    +0.000 OA
ATOM     24  N   UNL     1       2.299  13.732  20.116  0.00  0.00    +0.000 N 
ATOM     25  H   UNL     1       2.465  14.167  19.223  0.00  0.00    +0.000 HD
BRANCH  24  26
ATOM     26  C   UNL     1       3.066  14.234  21.236  0.00  0.00    +0.000 C 
BRANCH  26  27
ATOM     27  C   UNL     1       2.908  15.740  21.267  0.00  0.00    +0.000 C 
BRANCH  27  28
ATOM     28  C   UNL     1       1.488  16.185  20.952  0.00  0.00    +0.000 C 
BRANCH  28  29
ATOM     29  N   UNL     1       0.586  15.983  22.106  0.00  0.00    +0.000 NA
ATOM     30  C   UNL     1       0.741  17.060  23.094  0.00  0.00    +0.000 C 
BRANCH  29  31
ATOM     31  C   UNL     1      -0.801  15.894  21.605  0.00  0.00    +0.000 C 
BRANCH  31  32
ATOM     32  C   UNL     1      -1.531  14.641  22.038  0.00  0.00    +0.000 A 
ATOM     33  C   UNL     1      -0.827  13.612  22.679  0.00  0.00    +0.000 A 
ATOM     34  C   UNL     1      -1.468  12.421  23.018  0.00  0.00    +0.000 A 
ATOM     35  C   UNL     1      -2.818  12.250  22.722  0.00  0.00    +0.000 A 
ATOM     36  C   UNL     1      -3.534  13.274  22.102  0.00  0.00    +0.000 A 
ATOM     37  C   UNL     1      -2.895  14.467  21.766  0.00  0.00    +0.000 A 
ENDBRANCH  31  32
ENDBRANCH  29  31
ENDBRANCH  28  29
ENDBRANCH  27  28
ENDBRANCH  26  27
ENDBRANCH  24  26
ENDBRANCH   4  22
TORSDOF 9
ENDMDL
MODEL 7
REMARK VINA RESULT:      -6.5      0.767      1.186
REMARK  Name = 
REMARK  12 active torsions:
REMARK  status: ('A' for Active; 'I' for Inactive)
REMARK    1  A    between atoms: C_1  and  C_2
REMARK    2  A    between atoms: C_2  and  C_3
REMARK    3  A    between atoms: C_2  and  C_4
REMARK    4  A    between atoms: C_7  and  N_8
REMARK    5  A    between atoms: C_11  and  C_12
REMARK    6  A    between atoms: N_14  and  C_15
REMARK    7  A    between atoms: C_15  and  C_16
REMARK    8  A    between atoms: C_16  and  C_17
REMARK    9  A    between atoms: C_17  and  N_18
REMARK   10  A    between atoms: N_18  and  C_19
REMARK   11  A    between atoms: N_18  and  C_20
REMARK   12  A    between atoms: C_20  and  C_21
REMARK                            x       y       z     vdW  Elec       q    Type
REMARK                         _______ _______ _______ _____ _____    ______ ____
ROOT
ATOM      1  N   UNL     1       1.096   8.940  19.700  0.00  0.00    +0.000 N 
ATOM      2  C   UNL     1       0.835  10.341  19.546  0.00  0.00    +0.000 A 
ATOM      3  C   UNL     1      -0.408  10.773  19.983  0.00  0.00    +0.000 A 
ATOM      4  C   UNL     1      -0.881  11.994  19.511  0.00  0.00    +0.000 A 
ATOM      5  C   UNL     1       0.032  12.992  19.212  0.00  0.00    +0.000 A 
ATOM      6  C   UNL     1      -0.336  14.357  19.170  0.00  0.00    +0.000 A 
ATOM      7  C   UNL     1       0.599  15.326  18.857  0.00  0.00    +0.000 A 
ATOM      8  C   UNL     1       1.893  14.923  18.563  0.00  0.00    +0.000 A 
ATOM      9  C   UNL     1       2.246  13.561  18.607  0.00  0.00    +0.000 A 
ATOM     10  C   UNL     1       1.341  12.559  18.958  0.00  0.00    +0.000 A 
ATOM     11  N   UNL     1       1.697  11.241  19.026  0.00  0.00    +0.000 NA
ATOM     12  H   UNL     1       0.214   8.440  19.793  0.00  0.00    +0.000 HD
ENDROOT
BRANCH   1  16
ATOM     13  C   UNL     1       3.881   6.180  17.945  0.00  0.00    +0.000 A 
ATOM     14  C   UNL     1       3.579   7.403  17.317  0.00  0.00    +0.000 A 
ATOM     15  C   UNL     1       2.666   8.315  17.871  0.00  0.00    +0.000 A 
ATOM     16  C   UNL     1       2.018   8.059  19.072  0.00  0.00    +0.000 A 
ATOM     17  C   UNL     1       2.373   6.863  19.738  0.00  0.00    +0.000 A 
ATOM     18  C   UNL     1       3.280   5.934  19.183  0.00  0.00    +0.000 A 
BRANCH  13  20
ATOM     19  C   UNL     1       5.286   5.746  15.890  0.00  0.00    +0.000 C 
ATOM     20  C   UNL     1       4.846   5.222  17.262  0.00  0.00    +0.000 C 
ATOM     21  C   UNL     1       6.077   4.833  18.084  0.00  0.00    +0.000 C 
ENDBRANCH  13  20
ENDBRANCH   1  16
BRANCH   4  22
ATOM     22  C   UNL     1      -2.144  12.008  18.684  0.00  0.00    +0.000 C 
ATOM     23  O   UNL     1      -2.178  11.602  17.527  0.00  0.00    +0.000 OA
ATOM     24  N   UNL     1      -3.296  12.351  19.349  0.00  0.00    +0.000 N 
ATOM     25  H   UNL     1      -3.262  12.582  20.329  0.00  0.00    +0.000 HD
BRANCH  24  26
ATOM     26  C   UNL     1      -4.597  12.028  18.802  0.00  0.00    +0.000 C 
BRANCH  26  27
ATOM     27  C   UNL     1      -5.635  12.791  19.597  0.00  0.00    +0.000 C 
BRANCH  27  28
ATOM     28  C   UNL     1      -5.014  13.738  20.612  0.00  0.00    +0.000 C 
BRANCH  28  29
ATOM     29  N   UNL     1      -5.903  13.949  21.774  0.00  0.00    +0.000 NA
ATOM     30  C   UNL     1      -6.634  12.719  22.111  0.00  0.00    +0.000 C 
BRANCH  29  31
ATOM     31  C   UNL     1      -5.085  14.429  22.907  0.00  0.00    +0.000 C 
BRANCH  31  32
ATOM     32  C   UNL     1      -3.706  13.810  22.975  0.00  0.00    +0.000 A 
ATOM     33  C   UNL     1      -2.576  14.603  22.728  0.00  0.00    +0.000 A 
ATOM     34  C   UNL     1      -1.303  14.035  22.713  0.00  0.00    +0.000 A 
ATOM     35  C   UNL     1      -1.148  12.670  22.948  0.00  0.00    +0.000 A 
ATOM     36  C   UNL     1      -2.263  11.875  23.213  0.00  0.00    +0.000 A 
ATOM     37  C   UNL     1      -3.536  12.443  23.233  0.00  0.00    +0.000 A 
ENDBRANCH  31  32
ENDBRANCH  29  31
ENDBRANCH  28  29
ENDBRANCH  27  28
ENDBRANCH  26  27
ENDBRANCH  24  26
ENDBRANCH   4  22
TORSDOF 9
ENDMDL
MODEL 8
REMARK VINA RESULT:      -6.5      1.612      1.973
REMARK  Name = 
REMARK  12 active torsions:
REMARK  status: ('A' for Active; 'I' for Inactive)
REMARK    1  A    between atoms: C_1  and  C_2
REMARK    2  A    between atoms: C_2  and  C_3
REMARK    3  A    between atoms: C_2  and  C_4
REMARK    4  A    between atoms: C_7  and  N_8
REMARK    5  A    between atoms: C_11  and  C_12
REMARK    6  A    between atoms: N_14  and  C_15
REMARK    7  A    between atoms: C_15  and  C_16
REMARK    8  A    between atoms: C_16  and  C_17
REMARK    9  A    between atoms: C_17  and  N_18
REMARK   10  A    between atoms: N_18  and  C_19
REMARK   11  A    between atoms: N_18  and  C_20
REMARK   12  A    between atoms: C_20  and  C_21
REMARK                            x       y       z     vdW  Elec       q    Type
REMARK                         _______ _______ _______ _____ _____    ______ ____
ROOT
ATOM      1  N   UNL     1       0.743   9.358  20.282  0.00  0.00    +0.000 N 
ATOM      2  C   UNL     1       0.431  10.748  20.129  0.00  0.00    +0.000 A 
ATOM      3  C   UNL     1      -0.747  11.170  20.726  0.00  0.00    +0.000 A 
ATOM      4  C   UNL     1      -1.309  12.368  20.292  0.00  0.00    +0.000 A 
ATOM      5  C   UNL     1      -0.469  13.373  19.840  0.00  0.00    +0.000 A 
ATOM      6  C   UNL     1      -0.870  14.729  19.814  0.00  0.00    +0.000 A 
ATOM      7  C   UNL     1      -0.010  15.706  19.346  0.00  0.00    +0.000 A 
ATOM      8  C   UNL     1       1.239  15.317  18.883  0.00  0.00    +0.000 A 
ATOM      9  C   UNL     1       1.625  13.964  18.914  0.00  0.00    +0.000 A 
ATOM     10  C   UNL     1       0.801  12.956  19.415  0.00  0.00    +0.000 A 
ATOM     11  N   UNL     1       1.192  11.648  19.468  0.00  0.00    +0.000 NA
ATOM     12  H   UNL     1      -0.107   8.845  20.512  0.00  0.00    +0.000 HD
ENDROOT
BRANCH   1  16
ATOM     13  C   UNL     1       3.309   6.594  18.225  0.00  0.00    +0.000 A 
ATOM     14  C   UNL     1       2.927   7.811  17.629  0.00  0.00    +0.000 A 
ATOM     15  C   UNL     1       2.084   8.724  18.282  0.00  0.00    +0.000 A 
ATOM     16  C   UNL     1       1.587   8.475  19.555  0.00  0.00    +0.000 A 
ATOM     17  C   UNL     1       2.026   7.287  20.182  0.00  0.00    +0.000 A 
ATOM     18  C   UNL     1       2.864   6.357  19.529  0.00  0.00    +0.000 A 
BRANCH  13  20
ATOM     19  C   UNL     1       5.613   5.579  18.007  0.00  0.00    +0.000 C 
ATOM     20  C   UNL     1       4.190   5.635  17.438  0.00  0.00    +0.000 C 
ATOM     21  C   UNL     1       3.641   4.215  17.285  0.00  0.00    +0.000 C 
ENDBRANCH  13  20
ENDBRANCH   1  16
BRANCH   4  22
ATOM     22  C   UNL     1      -2.676  12.334  19.651  0.00  0.00    +0.000 C 
ATOM     23  O   UNL     1      -2.880  11.806  18.563  0.00  0.00    +0.000 OA
ATOM     24  N   UNL     1      -3.715  12.786  20.426  0.00  0.00    +0.000 N 
ATOM     25  H   UNL     1      -3.540  13.121  21.360  0.00  0.00    +0.000 HD
BRANCH  24  26
ATOM     26  C   UNL     1      -5.086  12.449  20.105  0.00  0.00    +0.000 C 
BRANCH  26  27
ATOM     27  C   UNL     1      -5.881  12.465  21.394  0.00  0.00    +0.000 C 
BRANCH  27  28
ATOM     28  C   UNL     1      -5.643  13.726  22.211  0.00  0.00    +0.000 C 
BRANCH  28  29
ATOM     29  N   UNL     1      -5.821  13.477  23.657  0.00  0.00    +0.000 NA
ATOM     30  C   UNL     1      -7.015  12.657  23.910  0.00  0.00    +0.000 C 
BRANCH  29  31
ATOM     31  C   UNL     1      -4.596  12.836  24.176  0.00  0.00    +0.000 C 
BRANCH  31  32
ATOM     32  C   UNL     1      -3.392  13.751  24.213  0.00  0.00    +0.000 A 
ATOM     33  C   UNL     1      -2.230  13.402  23.509  0.00  0.00    +0.000 A 
ATOM     34  C   UNL     1      -1.087  14.194  23.593  0.00  0.00    +0.000 A 
ATOM     35  C   UNL     1      -1.095  15.346  24.378  0.00  0.00    +0.000 A 
ATOM     36  C   UNL     1      -2.250  15.714  25.067  0.00  0.00    +0.000 A 
ATOM     37  C   UNL     1      -3.396  14.924  24.981  0.00  0.00    +0.000 A 
ENDBRANCH  31  32
ENDBRANCH  29  31
ENDBRANCH  28  29
ENDBRANCH  27  28
ENDBRANCH  26  27
ENDBRANCH  24  26
ENDBRANCH   4  22
TORSDOF 9
ENDMDL
MODEL 9
REMARK VINA RESULT:      -6.5      2.098      4.118
REMARK  Name = 
REMARK  12 active torsions:
REMARK  status: ('A' for Active; 'I' for Inactive)
REMARK    1  A    between atoms: C_1  and  C_2
REMARK    2  A    between atoms: C_2  and  C_3
REMARK    3  A    between atoms: C_2  and  C_4
REMARK    4  A    between atoms: C_7  and  N_8
REMARK    5  A    between atoms: C_11  and  C_12
REMARK    6  A    between atoms: N_14  and  C_15
REMARK    7  A    between atoms: C_15  and  C_16
REMARK    8  A    between atoms: C_16  and  C_17
REMARK    9  A    between atoms: C_17  and  N_18
REMARK   10  A    between atoms: N_18  and  C_19
REMARK   11  A    between atoms: N_18  and  C_20
REMARK   12  A    between atoms: C_20  and  C_21
REMARK                            x       y       z     vdW  Elec       q    Type
REMARK                         _______ _______ _______ _____ _____    ______ ____
ROOT
ATOM      1  N   UNL     1       2.457   8.620  18.339  0.00  0.00    +0.000 N 
ATOM      2  C   UNL     1       1.300   9.464  18.300  0.00  0.00    +0.000 A 
ATOM      3  C   UNL     1       1.524  10.807  18.565  0.00  0.00    +0.000 A 
ATOM      4  C   UNL     1       0.437  11.591  18.939  0.00  0.00    +0.000 A 
ATOM      5  C   UNL     1      -0.816  11.279  18.436  0.00  0.00    +0.000 A 
ATOM      6  C   UNL     1      -1.859  12.231  18.378  0.00  0.00    +0.000 A 
ATOM      7  C   UNL     1      -3.101  11.881  17.881  0.00  0.00    +0.000 A 
ATOM      8  C   UNL     1      -3.300  10.572  17.467  0.00  0.00    +0.000 A 
ATOM      9  C   UNL     1      -2.253   9.634  17.532  0.00  0.00    +0.000 A 
ATOM     10  C   UNL     1      -0.976   9.959  17.990  0.00  0.00    +0.000 A 
ATOM     11  N   UNL     1       0.044   9.050  18.024  0.00  0.00    +0.000 NA
ATOM     12  H   UNL     1       3.191   9.078  18.878  0.00  0.00    +0.000 HD
ENDROOT
BRANCH   1  16
ATOM     13  C   UNL     1       2.894   4.399  19.008  0.00  0.00    +0.000 A 
ATOM     14  C   UNL     1       3.393   5.004  17.838  0.00  0.00    +0.000 A 
ATOM     15  C   UNL     1       3.253   6.380  17.598  0.00  0.00    +0.000 A 
ATOM     16  C   UNL     1       2.621   7.218  18.507  0.00  0.00    +0.000 A 
ATOM     17  C   UNL     1       2.183   6.625  19.713  0.00  0.00    +0.000 A 
ATOM     18  C   UNL     1       2.307   5.240  19.958  0.00  0.00    +0.000 A 
BRANCH  13  20
ATOM     19  C   UNL     1       3.101   2.177  17.825  0.00  0.00    +0.000 C 
ATOM     20  C   UNL     1       3.043   2.894  19.179  0.00  0.00    +0.000 C 
ATOM     21  C   UNL     1       4.216   2.445  20.052  0.00  0.00    +0.000 C 
ENDBRANCH  13  20
ENDBRANCH   1  16
BRANCH   4  22
ATOM     22  C   UNL     1       0.442  12.225  20.309  0.00  0.00    +0.000 C 
ATOM     23  O   UNL     1       0.810  13.379  20.499  0.00  0.00    +0.000 OA
ATOM     24  N   UNL     1      -0.141  11.492  21.314  0.00  0.00    +0.000 N 
ATOM     25  H   UNL     1      -0.532  10.585  21.115  0.00  0.00    +0.000 HD
BRANCH  24  26
ATOM     26  C   UNL     1      -0.555  12.120  22.551  0.00  0.00    +0.000 C 
BRANCH  26  27
ATOM     27  C   UNL     1      -2.044  11.891  22.710  0.00  0.00    +0.000 C 
BRANCH  27  28
ATOM     28  C   UNL     1      -2.875  13.040  22.159  0.00  0.00    +0.000 C 
BRANCH  28  29
ATOM     29  N   UNL     1      -4.113  13.238  22.941  0.00  0.00    +0.000 NA
ATOM     30  C   UNL     1      -3.888  14.162  24.062  0.00  0.00    +0.000 C 
BRANCH  29  31
ATOM     31  C   UNL     1      -5.167  13.729  22.030  0.00  0.00    +0.000 C 
BRANCH  31  32
ATOM     32  C   UNL     1      -6.011  12.632  21.418  0.00  0.00    +0.000 A 
ATOM     33  C   UNL     1      -5.732  12.182  20.120  0.00  0.00    +0.000 A 
ATOM     34  C   UNL     1      -6.544  11.226  19.513  0.00  0.00    +0.000 A 
ATOM     35  C   UNL     1      -7.640  10.708  20.199  0.00  0.00    +0.000 A 
ATOM     36  C   UNL     1      -7.916  11.133  21.498  0.00  0.00    +0.000 A 
ATOM     37  C   UNL     1      -7.102  12.087  22.108  0.00  0.00    +0.000 A 
ENDBRANCH  31  32
ENDBRANCH  29  31
ENDBRANCH  28  29
ENDBRANCH  27  28
ENDBRANCH  26  27
ENDBRANCH  24  26
ENDBRANCH   4  22
TORSDOF 9
ENDMDL
