MODEL 1
REMARK VINA RESULT:      -6.8      0.000      0.000
REMARK  Name = 
REMARK  8 active torsions:
REMARK  status: ('A' for Active; 'I' for Inactive)
REMARK    1  A    between atoms: C_2  and  C_4
REMARK    2  A    between atoms: C_4  and  O_5
REMARK    3  A    between atoms: O_5  and  C_6
REMARK    4  A    between atoms: C_9  and  S_10
REMARK    5  A    between atoms: S_10  and  N_13
REMARK    6  A    between atoms: N_13  and  C_14
REMARK    7  A    between atoms: N_17  and  C_18
REMARK    8  A    between atoms: C_18  and  C_19
REMARK                            x       y       z     vdW  Elec       q    Type
REMARK                         _______ _______ _______ _____ _____    ______ ____
ROOT
ATOM      1  S   UNL     1       0.462  10.465  19.758  0.00  0.00    +0.000 S 
ATOM      2  O   UNL     1       0.259  10.455  21.190  0.00  0.00    +0.000 OA
ATOM      3  O   UNL     1       1.007  11.623  19.085  0.00  0.00    +0.000 OA
ENDROOT
BRANCH   1   7
ATOM      4  C   UNL     1       2.873   6.770  18.632  0.00  0.00    +0.000 A 
ATOM      5  C   UNL     1       2.308   6.882  19.905  0.00  0.00    +0.000 A 
ATOM      6  C   UNL     1       1.573   8.017  20.242  0.00  0.00    +0.000 A 
ATOM      7  C   UNL     1       1.449   9.062  19.324  0.00  0.00    +0.000 A 
ATOM      8  C   UNL     1       2.044   8.979  18.065  0.00  0.00    +0.000 A 
ATOM      9  C   UNL     1       2.764   7.831  17.726  0.00  0.00    +0.000 A 
BRANCH   4  10
ATOM     10  O   UNL     1       3.542   5.666  18.176  0.00  0.00    +0.000 OA
BRANCH  10  11
ATOM     11  C   UNL     1       4.959   5.822  18.083  0.00  0.00    +0.000 C 
BRANCH  11  13
ATOM     12  N   UNL     1       6.896   5.316  19.495  0.00  0.00    +0.000 N 
ATOM     13  C   UNL     1       5.696   4.873  19.018  0.00  0.00    +0.000 C 
ATOM     14  O   UNL     1       5.258   3.773  19.338  0.00  0.00    +0.000 OA
ATOM     15  H   UNL     1       7.444   4.703  20.084  0.00  0.00    +0.000 HD
ATOM     16  H   UNL     1       7.283   6.198  19.180  0.00  0.00    +0.000 HD
ENDBRANCH  11  13
ENDBRANCH  10  11
ENDBRANCH   4  10
ENDBRANCH   1   7
BRANCH   1  17
ATOM     17  N   UNL     1      -1.023  10.086  19.082  0.00  0.00    +0.000 NA
ATOM     18  H   UNL     1      -1.646   9.574  19.706  0.00  0.00    +0.000 HD
BRANCH  17  19
ATOM     19  C   UNL     1      -1.549  10.842  17.946  0.00  0.00    +0.000 C 
ATOM     20  C   UNL     1      -2.104   9.914  16.879  0.00  0.00    +0.000 C 
ATOM     21  C   UNL     1      -3.071  10.830  16.152  0.00  0.00    +0.000 C 
ATOM     22  N   UNL     1      -3.752  11.585  17.218  0.00  0.00    +0.000 NA
ATOM     23  C   UNL     1      -2.737  11.750  18.288  0.00  0.00    +0.000 C 
BRANCH  22  24
ATOM     24  C   UNL     1      -4.937  10.853  17.701  0.00  0.00    +0.000 C 
BRANCH  24  25
ATOM     25  C   UNL     1      -6.027  11.808  18.110  0.00  0.00    +0.000 A 
ATOM     26  C   UNL     1      -6.566  11.891  19.440  0.00  0.00    +0.000 A 
ATOM     27  C   UNL     1      -7.556  12.841  19.555  0.00  0.00    +0.000 A 
ATOM     28  S   UNL     1      -7.847  13.642  18.075  0.00  0.00    +0.000 S 
ATOM     29  C   UNL     1      -6.647  12.723  17.278  0.00  0.00    +0.000 A 
ENDBRANCH  24  25
ENDBRANCH  22  24
ENDBRANCH  17  19
ENDBRANCH   1  17
TORSDOF 8
ENDMDL
MODEL 2
REMARK VINA RESULT:      -6.8      0.951      1.184
REMARK  Name = 
REMARK  8 active torsions:
REMARK  status: ('A' for Active; 'I' for Inactive)
REMARK    1  A    between atoms: C_2  and  C_4
REMARK    2  A    between atoms: C_4  and  O_5
REMARK    3  A    between atoms: O_5  and  C_6
REMARK    4  A    between atoms: C_9  and  S_10
REMARK    5  A    between atoms: S_10  and  N_13
REMARK    6  A    between atoms: N_13  and  C_14
REMARK    7  A    between atoms: N_17  and  C_18
REMARK    8  A    between atoms: C_18  and  C_19
REMARK                            x       y       z     vdW  Elec       q    Type
REMARK                         _______ _______ _______ _____ _____    ______ ____
ROOT
ATOM      1  S   UNL     1       0.491  10.421  20.237  0.00  0.00    +0.000 S 
ATOM      2  O   UNL     1       0.309  10.165  21.650  0.00  0.00    +0.000 OA
ATOM      3  O   UNL     1       1.049  11.668  19.765  0.00  0.00    +0.000 OA
ENDROOT
BRANCH   1   7
ATOM      4  C   UNL     1       2.810   6.931  18.457  0.00  0.00    +0.000 A 
ATOM      5  C   UNL     1       2.365   6.879  19.780  0.00  0.00    +0.000 A 
ATOM      6  C   UNL     1       1.657   7.952  20.318  0.00  0.00    +0.000 A 
ATOM      7  C   UNL     1       1.442   9.098  19.548  0.00  0.00    +0.000 A 
ATOM      8  C   UNL     1       1.919   9.177  18.239  0.00  0.00    +0.000 A 
ATOM      9  C   UNL     1       2.611   8.090  17.700  0.00  0.00    +0.000 A 
BRANCH   4  10
ATOM     10  O   UNL     1       3.441   5.901  17.812  0.00  0.00    +0.000 OA
BRANCH  10  11
ATOM     11  C   UNL     1       4.490   5.281  18.558  0.00  0.00    +0.000 C 
BRANCH  11  13
ATOM     12  N   UNL     1       5.273   3.092  19.328  0.00  0.00    +0.000 N 
ATOM     13  C   UNL     1       4.284   3.778  18.686  0.00  0.00    +0.000 C 
ATOM     14  O   UNL     1       3.297   3.197  18.246  0.00  0.00    +0.000 OA
ATOM     15  H   UNL     1       5.203   2.086  19.398  0.00  0.00    +0.000 HD
ATOM     16  H   UNL     1       6.115   3.565  19.635  0.00  0.00    +0.000 HD
ENDBRANCH  11  13
ENDBRANCH  10  11
ENDBRANCH   4  10
ENDBRANCH   1   7
BRANCH   1  17
ATOM     17  N   UNL     1      -1.012  10.191  19.534  0.00  0.00    +0.000 NA
ATOM     18  H   UNL     1      -1.727   9.857  20.179  0.00  0.00    +0.000 HD
BRANCH  17  19
ATOM     19  C   UNL     1      -1.376  10.876  18.294  0.00  0.00    +0.000 C 
ATOM     20  C   UNL     1      -1.774   9.884  17.215  0.00  0.00    +0.000 C 
ATOM     21  C   UNL     1      -2.632  10.746  16.310  0.00  0.00    +0.000 C 
ATOM     22  N   UNL     1      -3.458  11.552  17.225  0.00  0.00    +0.000 NA
ATOM     23  C   UNL     1      -2.603  11.789  18.414  0.00  0.00    +0.000 C 
BRANCH  22  24
ATOM     24  C   UNL     1      -4.697  10.836  17.579  0.00  0.00    +0.000 C 
BRANCH  24  25
ATOM     25  C   UNL     1      -5.765  11.799  18.022  0.00  0.00    +0.000 A 
ATOM     26  C   UNL     1      -6.352  12.797  17.169  0.00  0.00    +0.000 A 
ATOM     27  C   UNL     1      -7.304  13.556  17.813  0.00  0.00    +0.000 A 
ATOM     28  S   UNL     1      -7.507  13.078  19.439  0.00  0.00    +0.000 S 
ATOM     29  C   UNL     1      -6.324  11.854  19.286  0.00  0.00    +0.000 A 
ENDBRANCH  24  25
ENDBRANCH  22  24
ENDBRANCH  17  19
ENDBRANCH   1  17
TORSDOF 8
ENDMDL
MODEL 3
REMARK VINA RESULT:      -6.7      1.739      1.832
REMARK  Name = 
REMARK  8 active torsions:
REMARK  status: ('A' for Active; 'I' for Inactive)
REMARK    1  A    between atoms: C_2  and  C_4
REMARK    2  A    between atoms: C_4  and  O_5
REMARK    3  A    between atoms: O_5  and  C_6
REMARK    4  A    between atoms: C_9  and  S_10
REMARK    5  A    between atoms: S_10  and  N_13
REMARK    6  A    between atoms: N_13  and  C_14
REMARK    7  A    between atoms: N_17  and  C_18
REMARK    8  A    between atoms: C_18  and  C_19
REMARK                            x       y       z     vdW  Elec       q    Type
REMARK                         _______ _______ _______ _____ _____    ______ ____
ROOT
ATOM      1  S   UNL     1       0.763  10.289  20.080  0.00  0.00    +0.000 S 
ATOM      2  O   UNL     1       0.657  10.321  21.523  0.00  0.00    +0.000 OA
ATOM      3  O   UNL     1       1.415  11.353  19.351  0.00  0.00    +0.000 OA
ENDROOT
BRANCH   1   7
ATOM      4  C   UNL     1       2.560   6.285  18.869  0.00  0.00    +0.000 A 
ATOM      5  C   UNL     1       2.108   6.488  20.175  0.00  0.00    +0.000 A 
ATOM      6  C   UNL     1       1.561   7.716  20.539  0.00  0.00    +0.000 A 
ATOM      7  C   UNL     1       1.515   8.759  19.609  0.00  0.00    +0.000 A 
ATOM      8  C   UNL     1       2.003   8.580  18.314  0.00  0.00    +0.000 A 
ATOM      9  C   UNL     1       2.533   7.340  17.951  0.00  0.00    +0.000 A 
BRANCH   4  10
ATOM     10  O   UNL     1       3.038   5.094  18.392  0.00  0.00    +0.000 OA
BRANCH  10  11
ATOM     11  C   UNL     1       2.928   3.998  19.302  0.00  0.00    +0.000 C 
BRANCH  11  13
ATOM     12  N   UNL     1       2.359   2.004  17.999  0.00  0.00    +0.000 N 
ATOM     13  C   UNL     1       1.899   2.976  18.839  0.00  0.00    +0.000 C 
ATOM     14  O   UNL     1       0.723   3.005  19.186  0.00  0.00    +0.000 OA
ATOM     15  H   UNL     1       1.703   1.329  17.629  0.00  0.00    +0.000 HD
ATOM     16  H   UNL     1       3.316   2.019  17.666  0.00  0.00    +0.000 HD
ENDBRANCH  11  13
ENDBRANCH  10  11
ENDBRANCH   4  10
ENDBRANCH   1   7
BRANCH   1  17
ATOM     17  N   UNL     1      -0.803  10.113  19.511  0.00  0.00    +0.000 NA
ATOM     18  H   UNL     1      -1.459   9.749  20.202  0.00  0.00    +0.000 HD
BRANCH  17  19
ATOM     19  C   UNL     1      -1.273  10.869  18.351  0.00  0.00    +0.000 C 
ATOM     20  C   UNL     1      -1.699   9.941  17.227  0.00  0.00    +0.000 C 
ATOM     21  C   UNL     1      -2.647  10.828  16.443  0.00  0.00    +0.000 C 
ATOM     22  N   UNL     1      -3.444  11.529  17.465  0.00  0.00    +0.000 NA
ATOM     23  C   UNL     1      -2.525  11.716  18.614  0.00  0.00    +0.000 C 
BRANCH  22  24
ATOM     24  C   UNL     1      -4.629  10.735  17.839  0.00  0.00    +0.000 C 
BRANCH  24  25
ATOM     25  C   UNL     1      -5.757  11.629  18.276  0.00  0.00    +0.000 A 
ATOM     26  C   UNL     1      -6.228  11.726  19.631  0.00  0.00    +0.000 A 
ATOM     27  C   UNL     1      -7.273  12.612  19.770  0.00  0.00    +0.000 A 
ATOM     28  S   UNL     1      -7.698  13.336  18.283  0.00  0.00    +0.000 S 
ATOM     29  C   UNL     1      -6.482  12.469  17.450  0.00  0.00    +0.000 A 
ENDBRANCH  24  25
ENDBRANCH  22  24
ENDBRANCH  17  19
ENDBRANCH   1  17
TORSDOF 8
ENDMDL
MODEL 4
REMARK VINA RESULT:      -6.4      1.741      2.164
REMARK  Name = 
REMARK  8 active torsions:
REMARK  status: ('A' for Active; 'I' for Inactive)
REMARK    1  A    between atoms: C_2  and  C_4
REMARK    2  A    between atoms: C_4  and  O_5
REMARK    3  A    between atoms: O_5  and  C_6
REMARK    4  A    between atoms: C_9  and  S_10
REMARK    5  A    between atoms: S_10  and  N_13
REMARK    6  A    between atoms: N_13  and  C_14
REMARK    7  A    between atoms: N_17  and  C_18
REMARK    8  A    between atoms: C_18  and  C_19
REMARK                            x       y       z     vdW  Elec       q    Type
REMARK                         _______ _______ _______ _____ _____    ______ ____
ROOT
ATOM      1  S   UNL     1       0.710  10.487  19.488  0.00  0.00    +0.000 S 
ATOM      2  O   UNL     1       0.649  10.961  20.854  0.00  0.00    +0.000 OA
ATOM      3  O   UNL     1       1.353  11.262  18.451  0.00  0.00    +0.000 OA
ENDROOT
BRANCH   1   7
ATOM      4  C   UNL     1       2.694   6.388  19.495  0.00  0.00    +0.000 A 
ATOM      5  C   UNL     1       2.720   7.182  18.345  0.00  0.00    +0.000 A 
ATOM      6  C   UNL     1       2.109   8.434  18.351  0.00  0.00    +0.000 A 
ATOM      7  C   UNL     1       1.427   8.869  19.490  0.00  0.00    +0.000 A 
ATOM      8  C   UNL     1       1.358   8.067  20.629  0.00  0.00    +0.000 A 
ATOM      9  C   UNL     1       1.989   6.820  20.623  0.00  0.00    +0.000 A 
BRANCH   4  10
ATOM     10  O   UNL     1       3.330   5.183  19.617  0.00  0.00    +0.000 OA
BRANCH  10  11
ATOM     11  C   UNL     1       2.637   4.078  19.032  0.00  0.00    +0.000 C 
BRANCH  11  13
ATOM     12  N   UNL     1       2.708   2.789  21.114  0.00  0.00    +0.000 N 
ATOM     13  C   UNL     1       1.932   3.231  20.082  0.00  0.00    +0.000 C 
ATOM     14  O   UNL     1       0.740   2.949  20.025  0.00  0.00    +0.000 OA
ATOM     15  H   UNL     1       2.295   2.186  21.812  0.00  0.00    +0.000 HD
ATOM     16  H   UNL     1       3.705   2.972  21.125  0.00  0.00    +0.000 HD
ENDBRANCH  11  13
ENDBRANCH  10  11
ENDBRANCH   4  10
ENDBRANCH   1   7
BRANCH   1  17
ATOM     17  N   UNL     1      -0.875  10.179  19.040  0.00  0.00    +0.000 NA
ATOM     18  H   UNL     1      -1.439   9.749  19.772  0.00  0.00    +0.000 HD
BRANCH  17  19
ATOM     19  C   UNL     1      -1.501  10.907  17.937  0.00  0.00    +0.000 C 
ATOM     20  C   UNL     1      -2.079   9.952  16.907  0.00  0.00    +0.000 C 
ATOM     21  C   UNL     1      -3.126  10.822  16.239  0.00  0.00    +0.000 C 
ATOM     22  N   UNL     1      -3.773  11.552  17.343  0.00  0.00    +0.000 NA
ATOM     23  C   UNL     1      -2.704  11.765  18.349  0.00  0.00    +0.000 C 
BRANCH  22  24
ATOM     24  C   UNL     1      -4.895  10.773  17.898  0.00  0.00    +0.000 C 
BRANCH  24  25
ATOM     25  C   UNL     1      -5.954  11.682  18.459  0.00  0.00    +0.000 A 
ATOM     26  C   UNL     1      -6.895  12.414  17.655  0.00  0.00    +0.000 A 
ATOM     27  C   UNL     1      -7.758  13.179  18.408  0.00  0.00    +0.000 A 
ATOM     28  S   UNL     1      -7.453  13.025  20.081  0.00  0.00    +0.000 S 
ATOM     29  C   UNL     1      -6.168  11.933  19.803  0.00  0.00    +0.000 A 
ENDBRANCH  24  25
ENDBRANCH  22  24
ENDBRANCH  17  19
ENDBRANCH   1  17
TORSDOF 8
ENDMDL
MODEL 5
REMARK VINA RESULT:      -6.3      4.355      5.815
REMARK  Name = 
REMARK  8 active torsions:
REMARK  status: ('A' for Active; 'I' for Inactive)
REMARK    1  A    between atoms: C_2  and  C_4
REMARK    2  A    between atoms: C_4  and  O_5
REMARK    3  A    between atoms: O_5  and  C_6
REMARK    4  A    between atoms: C_9  and  S_10
REMARK    5  A    between atoms: S_10  and  N_13
REMARK    6  A    between atoms: N_13  and  C_14
REMARK    7  A    between atoms: N_17  and  C_18
REMARK    8  A    between atoms: C_18  and  C_19
REMARK                            x       y       z     vdW  Elec       q    Type
REMARK                         _______ _______ _______ _____ _____    ______ ____
ROOT
ATOM      1  S   UNL     1       1.711   4.044  20.762  0.00  0.00    +0.000 S 
ATOM      2  O   UNL     1       0.642   3.071  20.702  0.00  0.00    +0.000 OA
ATOM      3  O   UNL     1       2.554   4.162  21.931  0.00  0.00    +0.000 OA
ENDROOT
BRANCH   1   7
ATOM      4  C   UNL     1       4.347   3.587  17.078  0.00  0.00    +0.000 A 
ATOM      5  C   UNL     1       2.964   3.418  16.980  0.00  0.00    +0.000 A 
ATOM      6  C   UNL     1       2.164   3.558  18.112  0.00  0.00    +0.000 A 
ATOM      7  C   UNL     1       2.755   3.814  19.352  0.00  0.00    +0.000 A 
ATOM      8  C   UNL     1       4.139   3.942  19.469  0.00  0.00    +0.000 A 
ATOM      9  C   UNL     1       4.934   3.820  18.327  0.00  0.00    +0.000 A 
BRANCH   4  10
ATOM     10  O   UNL     1       5.209   3.550  16.015  0.00  0.00    +0.000 OA
BRANCH  10  11
ATOM     11  C   UNL     1       5.634   4.831  15.545  0.00  0.00    +0.000 C 
BRANCH  11  13
ATOM     12  N   UNL     1       7.634   5.439  14.269  0.00  0.00    +0.000 N 
ATOM     13  C   UNL     1       7.149   4.920  15.435  0.00  0.00    +0.000 C 
ATOM     14  O   UNL     1       7.909   4.554  16.326  0.00  0.00    +0.000 OA
ATOM     15  H   UNL     1       8.635   5.477  14.131  0.00  0.00    +0.000 HD
ATOM     16  H   UNL     1       7.007   5.683  13.512  0.00  0.00    +0.000 HD
ENDBRANCH  11  13
ENDBRANCH  10  11
ENDBRANCH   4  10
ENDBRANCH   1   7
BRANCH   1  17
ATOM     17  N   UNL     1       0.998   5.527  20.447  0.00  0.00    +0.000 NA
ATOM     18  H   UNL     1       0.028   5.596  20.751  0.00  0.00    +0.000 HD
BRANCH  17  19
ATOM     19  C   UNL     1       1.811   6.725  20.242  0.00  0.00    +0.000 C 
ATOM     20  C   UNL     1       1.682   7.239  18.819  0.00  0.00    +0.000 C 
ATOM     21  C   UNL     1       2.068   8.697  18.986  0.00  0.00    +0.000 C 
ATOM     22  N   UNL     1       1.401   9.126  20.227  0.00  0.00    +0.000 NA
ATOM     23  C   UNL     1       1.392   7.926  21.099  0.00  0.00    +0.000 C 
BRANCH  22  24
ATOM     24  C   UNL     1       0.035   9.606  19.947  0.00  0.00    +0.000 C 
BRANCH  24  25
ATOM     25  C   UNL     1       0.035  11.081  19.649  0.00  0.00    +0.000 A 
ATOM     26  C   UNL     1       0.757  12.057  20.420  0.00  0.00    +0.000 A 
ATOM     27  C   UNL     1       0.591  13.339  19.946  0.00  0.00    +0.000 A 
ATOM     28  S   UNL     1      -0.424  13.385  18.574  0.00  0.00    +0.000 S 
ATOM     29  C   UNL     1      -0.643  11.690  18.609  0.00  0.00    +0.000 A 
ENDBRANCH  24  25
ENDBRANCH  22  24
ENDBRANCH  17  19
ENDBRANCH   1  17
TORSDOF 8
ENDMDL
MODEL 6
REMARK VINA RESULT:      -6.3      3.333      3.835
REMARK  Name = 
REMARK  8 active torsions:
REMARK  status: ('A' for Active; 'I' for Inactive)
REMARK    1  A    between atoms: C_2  and  C_4
REMARK    2  A    between atoms: C_4  and  O_5
REMARK    3  A    between atoms: O_5  and  C_6
REMARK    4  A    between atoms: C_9  and  S_10
REMARK    5  A    between atoms: S_10  and  N_13
REMARK    6  A    between atoms: N_13  and  C_14
REMARK    7  A    between atoms: N_17  and  C_18
REMARK    8  A    between atoms: C_18  and  C_19
REMARK                            x       y       z     vdW  Elec       q    Type
REMARK                         _______ _______ _______ _____ _____    ______ ____
ROOT
ATOM      1  S   UNL     1       0.559   8.884  21.527  0.00  0.00    +0.000 S 
ATOM      2  O   UNL     1      -0.671   8.215  21.893  0.00  0.00    +0.000 OA
ATOM      3  O   UNL     1       1.488   9.352  22.531  0.00  0.00    +0.000 OA
ENDROOT
BRANCH   1   7
ATOM      4  C   UNL     1       2.965   6.292  18.659  0.00  0.00    +0.000 A 
ATOM      5  C   UNL     1       2.652   7.611  18.323  0.00  0.00    +0.000 A 
ATOM      6  C   UNL     1       1.914   8.398  19.204  0.00  0.00    +0.000 A 
ATOM      7  C   UNL     1       1.444   7.846  20.400  0.00  0.00    +0.000 A 
ATOM      8  C   UNL     1       1.715   6.517  20.726  0.00  0.00    +0.000 A 
ATOM      9  C   UNL     1       2.471   5.740  19.846  0.00  0.00    +0.000 A 
BRANCH   4  10
ATOM     10  O   UNL     1       3.750   5.465  17.901  0.00  0.00    +0.000 OA
BRANCH  10  11
ATOM     11  C   UNL     1       5.149   5.753  17.956  0.00  0.00    +0.000 C 
BRANCH  11  13
ATOM     12  N   UNL     1       5.508   3.576  19.019  0.00  0.00    +0.000 N 
ATOM     13  C   UNL     1       5.864   4.893  18.988  0.00  0.00    +0.000 C 
ATOM     14  O   UNL     1       6.713   5.334  19.756  0.00  0.00    +0.000 OA
ATOM     15  H   UNL     1       5.923   2.974  19.718  0.00  0.00    +0.000 HD
ATOM     16  H   UNL     1       4.763   3.228  18.427  0.00  0.00    +0.000 HD
ENDBRANCH  11  13
ENDBRANCH  10  11
ENDBRANCH   4  10
ENDBRANCH   1   7
BRANCH   1  17
ATOM     17  N   UNL     1       0.107  10.171  20.554  0.00  0.00    +0.000 NA
ATOM     18  H   UNL     1      -0.683   9.973  19.941  0.00  0.00    +0.000 HD
BRANCH  17  19
ATOM     19  C   UNL     1       0.458  11.545  20.912  0.00  0.00    +0.000 C 
ATOM     20  C   UNL     1       0.400  12.460  19.701  0.00  0.00    +0.000 C 
ATOM     21  C   UNL     1       0.202  13.815  20.353  0.00  0.00    +0.000 C 
ATOM     22  N   UNL     1      -0.778  13.580  21.427  0.00  0.00    +0.000 NA
ATOM     23  C   UNL     1      -0.506  12.203  21.908  0.00  0.00    +0.000 C 
BRANCH  22  24
ATOM     24  C   UNL     1      -2.155  13.716  20.918  0.00  0.00    +0.000 C 
BRANCH  24  25
ATOM     25  C   UNL     1      -3.147  13.718  22.049  0.00  0.00    +0.000 A 
ATOM     26  C   UNL     1      -3.136  14.669  23.127  0.00  0.00    +0.000 A 
ATOM     27  C   UNL     1      -4.146  14.455  24.038  0.00  0.00    +0.000 A 
ATOM     28  S   UNL     1      -5.117  13.117  23.610  0.00  0.00    +0.000 S 
ATOM     29  C   UNL     1      -4.191  12.824  22.203  0.00  0.00    +0.000 A 
ENDBRANCH  24  25
ENDBRANCH  22  24
ENDBRANCH  17  19
ENDBRANCH   1  17
TORSDOF 8
ENDMDL
MODEL 7
REMARK VINA RESULT:      -6.2      4.759      5.806
REMARK  Name = 
REMARK  8 active torsions:
REMARK  status: ('A' for Active; 'I' for Inactive)
REMARK    1  A    between atoms: C_2  and  C_4
REMARK    2  A    between atoms: C_4  and  O_5
REMARK    3  A    between atoms: O_5  and  C_6
REMARK    4  A    between atoms: C_9  and  S_10
REMARK    5  A    between atoms: S_10  and  N_13
REMARK    6  A    between atoms: N_13  and  C_14
REMARK    7  A    between atoms: N_17  and  C_18
REMARK    8  A    between atoms: C_18  and  C_19
REMARK                            x       y       z     vdW  Elec       q    Type
REMARK                         _______ _______ _______ _____ _____    ______ ____
ROOT
ATOM      1  S   UNL     1       1.670   3.942  20.689  0.00  0.00    +0.000 S 
ATOM      2  O   UNL     1       0.593   2.989  20.531  0.00  0.00    +0.000 OA
ATOM      3  O   UNL     1       2.477   3.972  21.888  0.00  0.00    +0.000 OA
ENDROOT
BRANCH   1   7
ATOM      4  C   UNL     1       4.411   3.693  17.062  0.00  0.00    +0.000 A 
ATOM      5  C   UNL     1       3.036   3.496  16.921  0.00  0.00    +0.000 A 
ATOM      6  C   UNL     1       2.204   3.572  18.035  0.00  0.00    +0.000 A 
ATOM      7  C   UNL     1       2.755   3.793  19.300  0.00  0.00    +0.000 A 
ATOM      8  C   UNL     1       4.133   3.950  19.459  0.00  0.00    +0.000 A 
ATOM      9  C   UNL     1       4.959   3.891  18.334  0.00  0.00    +0.000 A 
BRANCH   4  10
ATOM     10  O   UNL     1       5.301   3.719  16.022  0.00  0.00    +0.000 OA
BRANCH  10  11
ATOM     11  C   UNL     1       5.772   5.022  15.670  0.00  0.00    +0.000 C 
BRANCH  11  13
ATOM     12  N   UNL     1       7.457   6.619  16.450  0.00  0.00    +0.000 N 
ATOM     13  C   UNL     1       7.149   5.304  16.255  0.00  0.00    +0.000 C 
ATOM     14  O   UNL     1       7.949   4.419  16.541  0.00  0.00    +0.000 OA
ATOM     15  H   UNL     1       8.377   6.858  16.794  0.00  0.00    +0.000 HD
ATOM     16  H   UNL     1       6.819   7.348  16.155  0.00  0.00    +0.000 HD
ENDBRANCH  11  13
ENDBRANCH  10  11
ENDBRANCH   4  10
ENDBRANCH   1   7
BRANCH   1  17
ATOM     17  N   UNL     1       0.984   5.452  20.452  0.00  0.00    +0.000 NA
ATOM     18  H   UNL     1       0.030   5.536  20.802  0.00  0.00    +0.000 HD
BRANCH  17  19
ATOM     19  C   UNL     1       1.819   6.635  20.248  0.00  0.00    +0.000 C 
ATOM     20  C   UNL     1       1.679   7.168  18.833  0.00  0.00    +0.000 C 
ATOM     21  C   UNL     1       2.098   8.615  19.010  0.00  0.00    +0.000 C 
ATOM     22  N   UNL     1       1.459   9.044  20.266  0.00  0.00    +0.000 NA
ATOM     23  C   UNL     1       1.437   7.835  21.125  0.00  0.00    +0.000 C 
BRANCH  22  24
ATOM     24  C   UNL     1       0.099   9.556  20.012  0.00  0.00    +0.000 C 
BRANCH  24  25
ATOM     25  C   UNL     1      -0.232  10.686  20.947  0.00  0.00    +0.000 A 
ATOM     26  C   UNL     1      -0.835  10.510  22.241  0.00  0.00    +0.000 A 
ATOM     27  C   UNL     1      -1.040  11.701  22.900  0.00  0.00    +0.000 A 
ATOM     28  S   UNL     1      -0.510  13.039  21.980  0.00  0.00    +0.000 S 
ATOM     29  C   UNL     1      -0.003  12.028  20.699  0.00  0.00    +0.000 A 
ENDBRANCH  24  25
ENDBRANCH  22  24
ENDBRANCH  17  19
ENDBRANCH   1  17
TORSDOF 8
ENDMDL
MODEL 8
REMARK VINA RESULT:      -6.2      3.265      9.590
REMARK  Name = 
REMARK  8 active torsions:
REMARK  status: ('A' for Active; 'I' for Inactive)
REMARK    1  A    between atoms: C_2  and  C_4
REMARK    2  A    between atoms: C_4  and  O_5
REMARK    3  A    between atoms: O_5  and  C_6
REMARK    4  A    between atoms: C_9  and  S_10
REMARK    5  A    between atoms: S_10  and  N_13
REMARK    6  A    between atoms: N_13  and  C_14
REMARK    7  A    between atoms: N_17  and  C_18
REMARK    8  A    between atoms: C_18  and  C_19
REMARK                            x       y       z     vdW  Elec       q    Type
REMARK                         _______ _______ _______ _____ _____    ______ ____
ROOT
ATOM      1  S   UNL     1      -0.222  11.109  19.454  0.00  0.00    +0.000 S 
ATOM      2  O   UNL     1       0.399  12.353  19.053  0.00  0.00    +0.000 OA
ATOM      3  O   UNL     1      -0.228  10.683  20.836  0.00  0.00    +0.000 OA
ENDROOT
BRANCH   1   7
ATOM      4  C   UNL     1      -4.548  10.977  18.041  0.00  0.00    +0.000 A 
ATOM      5  C   UNL     1      -3.632  10.021  17.596  0.00  0.00    +0.000 A 
ATOM      6  C   UNL     1      -2.310  10.069  18.031  0.00  0.00    +0.000 A 
ATOM      7  C   UNL     1      -1.892  11.105  18.871  0.00  0.00    +0.000 A 
ATOM      8  C   UNL     1      -2.789  12.090  19.288  0.00  0.00    +0.000 A 
ATOM      9  C   UNL     1      -4.118  12.024  18.862  0.00  0.00    +0.000 A 
BRANCH   4  10
ATOM     10  O   UNL     1      -5.883  10.970  17.737  0.00  0.00    +0.000 OA
BRANCH  10  11
ATOM     11  C   UNL     1      -6.740  11.401  18.796  0.00  0.00    +0.000 C 
BRANCH  11  13
ATOM     12  N   UNL     1      -7.373   9.063  19.163  0.00  0.00    +0.000 N 
ATOM     13  C   UNL     1      -7.084  10.263  19.746  0.00  0.00    +0.000 C 
ATOM     14  O   UNL     1      -7.106  10.392  20.966  0.00  0.00    +0.000 OA
ATOM     15  H   UNL     1      -7.651   8.289  19.750  0.00  0.00    +0.000 HD
ATOM     16  H   UNL     1      -7.414   8.977  18.154  0.00  0.00    +0.000 HD
ENDBRANCH  11  13
ENDBRANCH  10  11
ENDBRANCH   4  10
ENDBRANCH   1   7
BRANCH   1  17
ATOM     17  N   UNL     1       0.492   9.918  18.516  0.00  0.00    +0.000 NA
ATOM     18  H   UNL     1       0.298  10.003  17.518  0.00  0.00    +0.000 HD
BRANCH  17  19
ATOM     19  C   UNL     1       1.655   9.175  18.998  0.00  0.00    +0.000 C 
ATOM     20  C   UNL     1       1.262   8.177  20.073  0.00  0.00    +0.000 C 
ATOM     21  C   UNL     1       2.398   7.176  19.989  0.00  0.00    +0.000 C 
ATOM     22  N   UNL     1       2.636   6.992  18.547  0.00  0.00    +0.000 NA
ATOM     23  C   UNL     1       2.337   8.308  17.932  0.00  0.00    +0.000 C 
BRANCH  22  24
ATOM     24  C   UNL     1       1.770   5.928  18.006  0.00  0.00    +0.000 C 
BRANCH  24  25
ATOM     25  C   UNL     1       2.504   4.616  17.950  0.00  0.00    +0.000 A 
ATOM     26  C   UNL     1       3.771   4.430  17.296  0.00  0.00    +0.000 A 
ATOM     27  C   UNL     1       4.231   3.135  17.382  0.00  0.00    +0.000 A 
ATOM     28  S   UNL     1       3.154   2.133  18.249  0.00  0.00    +0.000 S 
ATOM     29  C   UNL     1       2.072   3.429  18.513  0.00  0.00    +0.000 A 
ENDBRANCH  24  25
ENDBRANCH  22  24
ENDBRANCH  17  19
ENDBRANCH   1  17
TORSDOF 8
ENDMDL
MODEL 9
REMARK VINA RESULT:      -6.2      4.129      5.938
REMARK  Name = 
REMARK  8 active torsions:
REMARK  status: ('A' for Active; 'I' for Inactive)
REMARK    1  A    between atoms: C_2  and  C_4
REMARK    2  A    between atoms: C_4  and  O_5
REMARK    3  A    between atoms: O_5  and  C_6
REMARK    4  A    between atoms: C_9  and  S_10
REMARK    5  A    between atoms: S_10  and  N_13
REMARK    6  A    between atoms: N_13  and  C_14
REMARK    7  A    between atoms: N_17  and  C_18
REMARK    8  A    between atoms: C_18  and  C_19
REMARK                            x       y       z     vdW  Elec       q    Type
REMARK                         _______ _______ _______ _____ _____    ______ ____
ROOT
ATOM      1  S   UNL     1       2.932   5.301  18.966  0.00  0.00    +0.000 S 
ATOM      2  O   UNL     1       2.079   4.136  19.059  0.00  0.00    +0.000 OA
ATOM      3  O   UNL     1       3.728   5.742  20.089  0.00  0.00    +0.000 OA
ENDROOT
BRANCH   1   7
ATOM      4  C   UNL     1       5.583   4.719  15.309  0.00  0.00    +0.000 A 
ATOM      5  C   UNL     1       5.120   3.614  16.027  0.00  0.00    +0.000 A 
ATOM      6  C   UNL     1       4.310   3.800  17.146  0.00  0.00    +0.000 A 
ATOM      7  C   UNL     1       4.008   5.094  17.577  0.00  0.00    +0.000 A 
ATOM      8  C   UNL     1       4.501   6.206  16.892  0.00  0.00    +0.000 A 
ATOM      9  C   UNL     1       5.296   6.012  15.761  0.00  0.00    +0.000 A 
BRANCH   4  10
ATOM     10  O   UNL     1       6.314   4.641  14.154  0.00  0.00    +0.000 OA
BRANCH  10  11
ATOM     11  C   UNL     1       5.838   3.681  13.210  0.00  0.00    +0.000 C 
BRANCH  11  13
ATOM     12  N   UNL     1       6.903   2.215  11.560  0.00  0.00    +0.000 N 
ATOM     13  C   UNL     1       6.817   3.482  12.061  0.00  0.00    +0.000 C 
ATOM     14  O   UNL     1       7.497   4.391  11.596  0.00  0.00    +0.000 OA
ATOM     15  H   UNL     1       7.571   2.025  10.827  0.00  0.00    +0.000 HD
ATOM     16  H   UNL     1       6.385   1.455  11.987  0.00  0.00    +0.000 HD
ENDBRANCH  11  13
ENDBRANCH  10  11
ENDBRANCH   4  10
ENDBRANCH   1   7
BRANCH   1  17
ATOM     17  N   UNL     1       1.939   6.556  18.470  0.00  0.00    +0.000 NA
ATOM     18  H   UNL     1       0.981   6.274  18.266  0.00  0.00    +0.000 HD
BRANCH  17  19
ATOM     19  C   UNL     1       2.263   7.945  18.794  0.00  0.00    +0.000 C 
ATOM     20  C   UNL     1       1.621   8.903  17.805  0.00  0.00    +0.000 C 
ATOM     21  C   UNL     1       1.569  10.185  18.614  0.00  0.00    +0.000 C 
ATOM     22  N   UNL     1       1.146   9.767  19.962  0.00  0.00    +0.000 NA
ATOM     23  C   UNL     1       1.730   8.418  20.153  0.00  0.00    +0.000 C 
BRANCH  22  24
ATOM     24  C   UNL     1      -0.325   9.742  20.063  0.00  0.00    +0.000 C 
BRANCH  24  25
ATOM     25  C   UNL     1      -0.823  10.876  20.918  0.00  0.00    +0.000 A 
ATOM     26  C   UNL     1      -0.828  10.858  22.355  0.00  0.00    +0.000 A 
ATOM     27  C   UNL     1      -1.338  12.014  22.902  0.00  0.00    +0.000 A 
ATOM     28  S   UNL     1      -1.811  13.132  21.701  0.00  0.00    +0.000 S 
ATOM     29  C   UNL     1      -1.333  12.073  20.447  0.00  0.00    +0.000 A 
ENDBRANCH  24  25
ENDBRANCH  22  24
ENDBRANCH  17  19
ENDBRANCH   1  17
TORSDOF 8
ENDMDL
