MODEL 1
REMARK VINA RESULT:      -7.7      0.000      0.000
REMARK  Name = 
REMARK  9 active torsions:
REMARK  status: ('A' for Active; 'I' for Inactive)
REMARK    1  A    between atoms: C_1  and  C_2
REMARK    2  A    between atoms: C_2  and  N_3
REMARK    3  A    between atoms: C_9  and  C_10
REMARK    4  A    between atoms: C_13  and  N_14
REMARK    5  A    between atoms: N_14  and  C_15
REMARK    6  A    between atoms: C_15  and  N_17
REMARK    7  A    between atoms: N_17  and  C_18
REMARK    8  A    between atoms: N_17  and  C_19
REMARK    9  A    between atoms: C_19  and  C_20
REMARK                            x       y       z     vdW  Elec       q    Type
REMARK                         _______ _______ _______ _____ _____    ______ ____
ROOT
ATOM      1  N   UNL     1       2.293   2.983  18.793  0.00  0.00    +0.000 NA
ATOM      2  C   UNL     1       2.043   3.526  20.157  0.00  0.00    +0.000 C 
ATOM      3  C   UNL     1       2.673   4.910  20.437  0.00  0.00    +0.000 C 
ATOM      4  N   UNL     1       2.295   5.862  19.395  0.00  0.00    +0.000 N 
ATOM      5  C   UNL     1       1.857   7.122  19.742  0.00  0.00    +0.000 A 
ATOM      6  C   UNL     1       2.019   8.189  18.866  0.00  0.00    +0.000 A 
ATOM      7  C   UNL     1       1.556   9.461  19.190  0.00  0.00    +0.000 A 
ATOM      8  C   UNL     1       1.724  10.578  18.204  0.00  0.00    +0.000 C 
ATOM      9  C   UNL     1       0.922   9.644  20.423  0.00  0.00    +0.000 A 
ATOM     10  C   UNL     1       0.421  10.892  20.817  0.00  0.00    +0.000 A 
ATOM     11  C   UNL     1      -0.289  11.064  21.992  0.00  0.00    +0.000 A 
ATOM     12  C   UNL     1      -0.408   9.977  22.855  0.00  0.00    +0.000 A 
ATOM     13  C   UNL     1       0.115   8.723  22.483  0.00  0.00    +0.000 A 
ATOM     14  C   UNL     1       0.775   8.525  21.271  0.00  0.00    +0.000 A 
ATOM     15  N   UNL     1       1.249   7.302  20.941  0.00  0.00    +0.000 NA
ATOM     16  C   UNL     1       2.432   5.420  18.005  0.00  0.00    +0.000 C 
ATOM     17  C   UNL     1       1.849   4.002  17.817  0.00  0.00    +0.000 C 
ENDROOT
BRANCH   1  19
ATOM     18  C   UNL     1       4.367   2.138  19.945  0.00  0.00    +0.000 C 
ATOM     19  C   UNL     1       3.700   2.584  18.648  0.00  0.00    +0.000 C 
ENDBRANCH   1  19
BRANCH  11  20
ATOM     20  N   UNL     1      -0.850  12.309  22.352  0.00  0.00    +0.000 N 
ATOM     21  H   UNL     1      -0.266  12.852  22.972  0.00  0.00    +0.000 HD
BRANCH  20  22
ATOM     22  C   UNL     1      -2.183  12.738  22.300  0.00  0.00    +0.000 C 
ATOM     23  S   UNL     1      -3.331  12.549  23.521  0.00  0.00    +0.000 S 
BRANCH  22  24
ATOM     24  N   UNL     1      -2.474  13.437  21.109  0.00  0.00    +0.000 N 
ATOM     25  C   UNL     1      -1.704  14.601  20.663  0.00  0.00    +0.000 C 
BRANCH  24  26
ATOM     26  C   UNL     1      -3.635  13.109  20.276  0.00  0.00    +0.000 C 
BRANCH  26  27
ATOM     27  C   UNL     1      -3.392  12.075  19.199  0.00  0.00    +0.000 A 
ATOM     28  C   UNL     1      -2.111  11.646  18.817  0.00  0.00    +0.000 A 
ATOM     29  C   UNL     1      -1.951  10.650  17.854  0.00  0.00    +0.000 A 
ATOM     30  C   UNL     1      -3.067  10.084  17.244  0.00  0.00    +0.000 A 
ATOM     31  C   UNL     1      -4.344  10.509  17.600  0.00  0.00    +0.000 A 
ATOM     32  C   UNL     1      -4.507  11.494  18.573  0.00  0.00    +0.000 A 
ENDBRANCH  26  27
ENDBRANCH  24  26
ENDBRANCH  22  24
ENDBRANCH  20  22
ENDBRANCH  11  20
TORSDOF 6
ENDMDL
MODEL 2
REMARK VINA RESULT:      -7.5      0.919      1.068
REMARK  Name = 
REMARK  9 active torsions:
REMARK  status: ('A' for Active; 'I' for Inactive)
REMARK    1  A    between atoms: C_1  and  C_2
REMARK    2  A    between atoms: C_2  and  N_3
REMARK    3  A    between atoms: C_9  and  C_10
REMARK    4  A    between atoms: C_13  and  N_14
REMARK    5  A    between atoms: N_14  and  C_15
REMARK    6  A    between atoms: C_15  and  N_17
REMARK    7  A    between atoms: N_17  and  C_18
REMARK    8  A    between atoms: N_17  and  C_19
REMARK    9  A    between atoms: C_19  and  C_20
REMARK                            x       y       z     vdW  Elec       q    Type
REMARK                         _______ _______ _______ _____ _____    ______ ____
ROOT
ATOM      1  N   UNL     1       2.351   3.476  18.776  0.00  0.00    +0.000 NA
ATOM      2  C   UNL     1       2.080   3.945  20.163  0.00  0.00    +0.000 C 
ATOM      3  C   UNL     1       2.653   5.339  20.507  0.00  0.00    +0.000 C 
ATOM      4  N   UNL     1       2.234   6.321  19.509  0.00  0.00    +0.000 N 
ATOM      5  C   UNL     1       1.745   7.545  19.914  0.00  0.00    +0.000 A 
ATOM      6  C   UNL     1       1.862   8.657  19.087  0.00  0.00    +0.000 A 
ATOM      7  C   UNL     1       1.347   9.892  19.470  0.00  0.00    +0.000 A 
ATOM      8  C   UNL     1       1.468  11.060  18.536  0.00  0.00    +0.000 C 
ATOM      9  C   UNL     1       0.708   9.992  20.710  0.00  0.00    +0.000 A 
ATOM     10  C   UNL     1       0.156  11.199  21.160  0.00  0.00    +0.000 A 
ATOM     11  C   UNL     1      -0.559  11.287  22.341  0.00  0.00    +0.000 A 
ATOM     12  C   UNL     1      -0.632  10.158  23.153  0.00  0.00    +0.000 A 
ATOM     13  C   UNL     1      -0.058   8.945  22.725  0.00  0.00    +0.000 A 
ATOM     14  C   UNL     1       0.607   8.831  21.505  0.00  0.00    +0.000 A 
ATOM     15  N   UNL     1       1.132   7.645  21.120  0.00  0.00    +0.000 NA
ATOM     16  C   UNL     1       2.388   5.950  18.101  0.00  0.00    +0.000 C 
ATOM     17  C   UNL     1       1.864   4.519  17.848  0.00  0.00    +0.000 C 
ENDROOT
BRANCH   1  19
ATOM     18  C   UNL     1       4.316   2.168  19.654  0.00  0.00    +0.000 C 
ATOM     19  C   UNL     1       3.773   3.142  18.614  0.00  0.00    +0.000 C 
ENDBRANCH   1  19
BRANCH  11  20
ATOM     20  N   UNL     1      -1.171  12.490  22.757  0.00  0.00    +0.000 N 
ATOM     21  H   UNL     1      -1.488  12.472  23.716  0.00  0.00    +0.000 HD
BRANCH  20  22
ATOM     22  C   UNL     1      -1.725  13.524  21.990  0.00  0.00    +0.000 C 
ATOM     23  S   UNL     1      -0.939  14.943  21.528  0.00  0.00    +0.000 S 
BRANCH  22  24
ATOM     24  N   UNL     1      -3.035  13.226  21.558  0.00  0.00    +0.000 N 
ATOM     25  C   UNL     1      -4.022  12.561  22.413  0.00  0.00    +0.000 C 
BRANCH  24  26
ATOM     26  C   UNL     1      -3.478  13.475  20.182  0.00  0.00    +0.000 C 
BRANCH  26  27
ATOM     27  C   UNL     1      -3.430  12.278  19.258  0.00  0.00    +0.000 A 
ATOM     28  C   UNL     1      -2.237  11.644  18.878  0.00  0.00    +0.000 A 
ATOM     29  C   UNL     1      -2.259  10.511  18.064  0.00  0.00    +0.000 A 
ATOM     30  C   UNL     1      -3.472  10.008  17.603  0.00  0.00    +0.000 A 
ATOM     31  C   UNL     1      -4.665  10.634  17.958  0.00  0.00    +0.000 A 
ATOM     32  C   UNL     1      -4.646  11.758  18.783  0.00  0.00    +0.000 A 
ENDBRANCH  26  27
ENDBRANCH  24  26
ENDBRANCH  22  24
ENDBRANCH  20  22
ENDBRANCH  11  20
TORSDOF 6
ENDMDL
MODEL 3
REMARK VINA RESULT:      -7.3      1.831      3.114
REMARK  Name = 
REMARK  9 active torsions:
REMARK  status: ('A' for Active; 'I' for Inactive)
REMARK    1  A    between atoms: C_1  and  C_2
REMARK    2  A    between atoms: C_2  and  N_3
REMARK    3  A    between atoms: C_9  and  C_10
REMARK    4  A    between atoms: C_13  and  N_14
REMARK    5  A    between atoms: N_14  and  C_15
REMARK    6  A    between atoms: C_15  and  N_17
REMARK    7  A    between atoms: N_17  and  C_18
REMARK    8  A    between atoms: N_17  and  C_19
REMARK    9  A    between atoms: C_19  and  C_20
REMARK                            x       y       z     vdW  Elec       q    Type
REMARK                         _______ _______ _______ _____ _____    ______ ____
ROOT
ATOM      1  N   UNL     1       1.904   2.774  19.523  0.00  0.00    +0.000 NA
ATOM      2  C   UNL     1       1.661   3.512  20.792  0.00  0.00    +0.000 C 
ATOM      3  C   UNL     1       2.392   4.869  20.912  0.00  0.00    +0.000 C 
ATOM      4  N   UNL     1       2.121   5.698  19.739  0.00  0.00    +0.000 N 
ATOM      5  C   UNL     1       1.777   7.023  19.900  0.00  0.00    +0.000 A 
ATOM      6  C   UNL     1       2.049   7.947  18.898  0.00  0.00    +0.000 A 
ATOM      7  C   UNL     1       1.682   9.283  19.034  0.00  0.00    +0.000 A 
ATOM      8  C   UNL     1       1.966  10.241  17.916  0.00  0.00    +0.000 C 
ATOM      9  C   UNL     1       1.031   9.678  20.207  0.00  0.00    +0.000 A 
ATOM     10  C   UNL     1       0.621  11.002  20.413  0.00  0.00    +0.000 A 
ATOM     11  C   UNL     1      -0.104  11.384  21.528  0.00  0.00    +0.000 A 
ATOM     12  C   UNL     1      -0.335  10.435  22.521  0.00  0.00    +0.000 A 
ATOM     13  C   UNL     1       0.095   9.106  22.338  0.00  0.00    +0.000 A 
ATOM     14  C   UNL     1       0.770   8.698  21.189  0.00  0.00    +0.000 A 
ATOM     15  N   UNL     1       1.153   7.409  21.041  0.00  0.00    +0.000 NA
ATOM     16  C   UNL     1       2.261   5.064  18.426  0.00  0.00    +0.000 C 
ATOM     17  C   UNL     1       1.570   3.682  18.405  0.00  0.00    +0.000 C 
ENDROOT
BRANCH   1  19
ATOM     18  C   UNL     1       3.639   1.520  18.197  0.00  0.00    +0.000 C 
ATOM     19  C   UNL     1       3.277   2.252  19.485  0.00  0.00    +0.000 C 
ENDBRANCH   1  19
BRANCH  11  20
ATOM     20  N   UNL     1      -0.573  12.705  21.699  0.00  0.00    +0.000 N 
ATOM     21  H   UNL     1      -0.764  12.946  22.661  0.00  0.00    +0.000 HD
BRANCH  20  22
ATOM     22  C   UNL     1      -1.149  13.578  20.766  0.00  0.00    +0.000 C 
ATOM     23  S   UNL     1      -0.311  14.623  19.740  0.00  0.00    +0.000 S 
BRANCH  22  24
ATOM     24  N   UNL     1      -2.553  13.447  20.706  0.00  0.00    +0.000 N 
ATOM     25  C   UNL     1      -3.224  12.483  19.830  0.00  0.00    +0.000 C 
BRANCH  24  26
ATOM     26  C   UNL     1      -3.451  14.338  21.447  0.00  0.00    +0.000 C 
BRANCH  26  27
ATOM     27  C   UNL     1      -4.274  13.677  22.531  0.00  0.00    +0.000 A 
ATOM     28  C   UNL     1      -5.675  13.592  22.491  0.00  0.00    +0.000 A 
ATOM     29  C   UNL     1      -6.377  12.924  23.494  0.00  0.00    +0.000 A 
ATOM     30  C   UNL     1      -5.691  12.350  24.561  0.00  0.00    +0.000 A 
ATOM     31  C   UNL     1      -4.302  12.439  24.623  0.00  0.00    +0.000 A 
ATOM     32  C   UNL     1      -3.598  13.094  23.614  0.00  0.00    +0.000 A 
ENDBRANCH  26  27
ENDBRANCH  24  26
ENDBRANCH  22  24
ENDBRANCH  20  22
ENDBRANCH  11  20
TORSDOF 6
ENDMDL
MODEL 4
REMARK VINA RESULT:      -7.0      1.998      3.349
REMARK  Name = 
REMARK  9 active torsions:
REMARK  status: ('A' for Active; 'I' for Inactive)
REMARK    1  A    between atoms: C_1  and  C_2
REMARK    2  A    between atoms: C_2  and  N_3
REMARK    3  A    between atoms: C_9  and  C_10
REMARK    4  A    between atoms: C_13  and  N_14
REMARK    5  A    between atoms: N_14  and  C_15
REMARK    6  A    between atoms: C_15  and  N_17
REMARK    7  A    between atoms: N_17  and  C_18
REMARK    8  A    between atoms: N_17  and  C_19
REMARK    9  A    between atoms: C_19  and  C_20
REMARK                            x       y       z     vdW  Elec       q    Type
REMARK                         _______ _______ _______ _____ _____    ______ ____
ROOT
ATOM      1  N   UNL     1       1.926   2.740  19.725  0.00  0.00    +0.000 NA
ATOM      2  C   UNL     1       1.667   3.514  20.969  0.00  0.00    +0.000 C 
ATOM      3  C   UNL     1       2.385   4.881  21.053  0.00  0.00    +0.000 C 
ATOM      4  N   UNL     1       2.115   5.671  19.854  0.00  0.00    +0.000 N 
ATOM      5  C   UNL     1       1.758   6.997  19.972  0.00  0.00    +0.000 A 
ATOM      6  C   UNL     1       2.029   7.893  18.943  0.00  0.00    +0.000 A 
ATOM      7  C   UNL     1       1.648   9.229  19.036  0.00  0.00    +0.000 A 
ATOM      8  C   UNL     1       1.933  10.155  17.891  0.00  0.00    +0.000 C 
ATOM      9  C   UNL     1       0.985   9.653  20.192  0.00  0.00    +0.000 A 
ATOM     10  C   UNL     1       0.562  10.979  20.354  0.00  0.00    +0.000 A 
ATOM     11  C   UNL     1      -0.176  11.388  21.451  0.00  0.00    +0.000 A 
ATOM     12  C   UNL     1      -0.405  10.467  22.471  0.00  0.00    +0.000 A 
ATOM     13  C   UNL     1       0.038   9.138  22.332  0.00  0.00    +0.000 A 
ATOM     14  C   UNL     1       0.725   8.701  21.201  0.00  0.00    +0.000 A 
ATOM     15  N   UNL     1       1.121   7.412  21.096  0.00  0.00    +0.000 NA
ATOM     16  C   UNL     1       2.271   4.999  18.562  0.00  0.00    +0.000 C 
ATOM     17  C   UNL     1       1.593   3.611  18.577  0.00  0.00    +0.000 C 
ENDROOT
BRANCH   1  19
ATOM     18  C   UNL     1       3.685   1.465  18.450  0.00  0.00    +0.000 C 
ATOM     19  C   UNL     1       3.305   2.230  19.714  0.00  0.00    +0.000 C 
ENDBRANCH   1  19
BRANCH  11  20
ATOM     20  N   UNL     1      -0.658  12.709  21.578  0.00  0.00    +0.000 N 
ATOM     21  H   UNL     1      -0.451  13.131  22.472  0.00  0.00    +0.000 HD
BRANCH  20  22
ATOM     22  C   UNL     1      -1.655  13.371  20.850  0.00  0.00    +0.000 C 
ATOM     23  S   UNL     1      -3.301  13.001  20.865  0.00  0.00    +0.000 S 
BRANCH  22  24
ATOM     24  N   UNL     1      -1.149  14.472  20.126  0.00  0.00    +0.000 N 
ATOM     25  C   UNL     1      -1.513  15.858  20.430  0.00  0.00    +0.000 C 
BRANCH  24  26
ATOM     26  C   UNL     1      -0.294  14.302  18.947  0.00  0.00    +0.000 C 
BRANCH  26  27
ATOM     27  C   UNL     1       1.192  14.452  19.194  0.00  0.00    +0.000 A 
ATOM     28  C   UNL     1       1.725  15.058  20.342  0.00  0.00    +0.000 A 
ATOM     29  C   UNL     1       3.104  15.121  20.539  0.00  0.00    +0.000 A 
ATOM     30  C   UNL     1       3.969  14.597  19.583  0.00  0.00    +0.000 A 
ATOM     31  C   UNL     1       3.457  14.006  18.431  0.00  0.00    +0.000 A 
ATOM     32  C   UNL     1       2.078  13.930  18.238  0.00  0.00    +0.000 A 
ENDBRANCH  26  27
ENDBRANCH  24  26
ENDBRANCH  22  24
ENDBRANCH  20  22
ENDBRANCH  11  20
TORSDOF 6
ENDMDL
MODEL 5
REMARK VINA RESULT:      -7.0      1.621      2.268
REMARK  Name = 
REMARK  9 active torsions:
REMARK  status: ('A' for Active; 'I' for Inactive)
REMARK    1  A    between atoms: C_1  and  C_2
REMARK    2  A    between atoms: C_2  and  N_3
REMARK    3  A    between atoms: C_9  and  C_10
REMARK    4  A    between atoms: C_13  and  N_14
REMARK    5  A    between atoms: N_14  and  C_15
REMARK    6  A    between atoms: C_15  and  N_17
REMARK    7  A    between atoms: N_17  and  C_18
REMARK    8  A    between atoms: N_17  and  C_19
REMARK    9  A    between atoms: C_19  and  C_20
REMARK                            x       y       z     vdW  Elec       q    Type
REMARK                         _______ _______ _______ _____ _____    ______ ____
ROOT
ATOM      1  N   UNL     1       2.477   4.034  18.752  0.00  0.00    +0.000 NA
ATOM      2  C   UNL     1       2.128   4.447  20.139  0.00  0.00    +0.000 C 
ATOM      3  C   UNL     1       2.619   5.854  20.548  0.00  0.00    +0.000 C 
ATOM      4  N   UNL     1       2.197   6.847  19.562  0.00  0.00    +0.000 N 
ATOM      5  C   UNL     1       1.635   8.034  19.981  0.00  0.00    +0.000 A 
ATOM      6  C   UNL     1       1.734   9.176  19.193  0.00  0.00    +0.000 A 
ATOM      7  C   UNL     1       1.147  10.374  19.589  0.00  0.00    +0.000 A 
ATOM      8  C   UNL     1       1.251  11.574  18.695  0.00  0.00    +0.000 C 
ATOM      9  C   UNL     1       0.453  10.406  20.802  0.00  0.00    +0.000 A 
ATOM     10  C   UNL     1      -0.173  11.572  21.263  0.00  0.00    +0.000 A 
ATOM     11  C   UNL     1      -0.940  11.590  22.415  0.00  0.00    +0.000 A 
ATOM     12  C   UNL     1      -0.993  10.434  23.189  0.00  0.00    +0.000 A 
ATOM     13  C   UNL     1      -0.346   9.263  22.751  0.00  0.00    +0.000 A 
ATOM     14  C   UNL     1       0.374   9.217  21.558  0.00  0.00    +0.000 A 
ATOM     15  N   UNL     1       0.968   8.068  21.161  0.00  0.00    +0.000 NA
ATOM     16  C   UNL     1       2.427   6.527  18.152  0.00  0.00    +0.000 C 
ATOM     17  C   UNL     1       1.981   5.082  17.834  0.00  0.00    +0.000 C 
ENDROOT
BRANCH   1  19
ATOM     18  C   UNL     1       4.409   3.533  17.216  0.00  0.00    +0.000 C 
ATOM     19  C   UNL     1       3.919   3.771  18.641  0.00  0.00    +0.000 C 
ENDBRANCH   1  19
BRANCH  11  20
ATOM     20  N   UNL     1      -1.623  12.751  22.839  0.00  0.00    +0.000 N 
ATOM     21  H   UNL     1      -1.693  12.835  23.843  0.00  0.00    +0.000 HD
BRANCH  20  22
ATOM     22  C   UNL     1      -2.509  13.576  22.133  0.00  0.00    +0.000 C 
ATOM     23  S   UNL     1      -2.092  14.649  20.900  0.00  0.00    +0.000 S 
BRANCH  22  24
ATOM     24  N   UNL     1      -3.853  13.368  22.512  0.00  0.00    +0.000 N 
ATOM     25  C   UNL     1      -4.231  12.639  23.726  0.00  0.00    +0.000 C 
BRANCH  24  26
ATOM     26  C   UNL     1      -4.976  13.782  21.665  0.00  0.00    +0.000 C 
BRANCH  26  27
ATOM     27  C   UNL     1      -5.560  12.700  20.784  0.00  0.00    +0.000 A 
ATOM     28  C   UNL     1      -6.737  12.002  21.099  0.00  0.00    +0.000 A 
ATOM     29  C   UNL     1      -7.257  11.051  20.221  0.00  0.00    +0.000 A 
ATOM     30  C   UNL     1      -6.599  10.770  19.028  0.00  0.00    +0.000 A 
ATOM     31  C   UNL     1      -5.422  11.442  18.708  0.00  0.00    +0.000 A 
ATOM     32  C   UNL     1      -4.908  12.404  19.577  0.00  0.00    +0.000 A 
ENDBRANCH  26  27
ENDBRANCH  24  26
ENDBRANCH  22  24
ENDBRANCH  20  22
ENDBRANCH  11  20
TORSDOF 6
ENDMDL
MODEL 6
REMARK VINA RESULT:      -7.0      3.293      9.510
REMARK  Name = 
REMARK  9 active torsions:
REMARK  status: ('A' for Active; 'I' for Inactive)
REMARK    1  A    between atoms: C_1  and  C_2
REMARK    2  A    between atoms: C_2  and  N_3
REMARK    3  A    between atoms: C_9  and  C_10
REMARK    4  A    between atoms: C_13  and  N_14
REMARK    5  A    between atoms: N_14  and  C_15
REMARK    6  A    between atoms: C_15  and  N_17
REMARK    7  A    between atoms: N_17  and  C_18
REMARK    8  A    between atoms: N_17  and  C_19
REMARK    9  A    between atoms: C_19  and  C_20
REMARK                            x       y       z     vdW  Elec       q    Type
REMARK                         _______ _______ _______ _____ _____    ______ ____
ROOT
ATOM      1  N   UNL     1      -0.401  15.528  18.854  0.00  0.00    +0.000 NA
ATOM      2  C   UNL     1       0.579  14.611  18.208  0.00  0.00    +0.000 C 
ATOM      3  C   UNL     1       1.416  13.754  19.184  0.00  0.00    +0.000 C 
ATOM      4  N   UNL     1       0.542  13.046  20.118  0.00  0.00    +0.000 N 
ATOM      5  C   UNL     1       0.747  11.706  20.368  0.00  0.00    +0.000 A 
ATOM      6  C   UNL     1       0.355  11.149  21.581  0.00  0.00    +0.000 A 
ATOM      7  C   UNL     1       0.529   9.792  21.836  0.00  0.00    +0.000 A 
ATOM      8  C   UNL     1       0.065   9.226  23.146  0.00  0.00    +0.000 C 
ATOM      9  C   UNL     1       1.110   8.997  20.844  0.00  0.00    +0.000 A 
ATOM     10  C   UNL     1       1.309   7.621  21.024  0.00  0.00    +0.000 A 
ATOM     11  C   UNL     1       1.797   6.809  20.015  0.00  0.00    +0.000 A 
ATOM     12  C   UNL     1       2.201   7.409  18.824  0.00  0.00    +0.000 A 
ATOM     13  C   UNL     1       2.032   8.795  18.641  0.00  0.00    +0.000 A 
ATOM     14  C   UNL     1       1.480   9.610  19.628  0.00  0.00    +0.000 A 
ATOM     15  N   UNL     1       1.318  10.935  19.409  0.00  0.00    +0.000 NA
ATOM     16  C   UNL     1      -0.510  13.828  20.771  0.00  0.00    +0.000 C 
ATOM     17  C   UNL     1      -1.254  14.715  19.747  0.00  0.00    +0.000 C 
ENDROOT
BRANCH   1  19
ATOM     18  C   UNL     1       1.127  17.514  18.601  0.00  0.00    +0.000 C 
ATOM     19  C   UNL     1       0.295  16.633  19.528  0.00  0.00    +0.000 C 
ENDBRANCH   1  19
BRANCH  11  20
ATOM     20  N   UNL     1       1.932   5.413  20.178  0.00  0.00    +0.000 N 
ATOM     21  H   UNL     1       1.996   5.123  21.143  0.00  0.00    +0.000 HD
BRANCH  20  22
ATOM     22  C   UNL     1       2.353   4.442  19.260  0.00  0.00    +0.000 C 
ATOM     23  S   UNL     1       1.431   3.812  17.995  0.00  0.00    +0.000 S 
BRANCH  22  24
ATOM     24  N   UNL     1       3.701   4.072  19.450  0.00  0.00    +0.000 N 
ATOM     25  C   UNL     1       4.101   2.749  19.937  0.00  0.00    +0.000 C 
BRANCH  24  26
ATOM     26  C   UNL     1       4.804   5.022  19.269  0.00  0.00    +0.000 C 
BRANCH  26  27
ATOM     27  C   UNL     1       5.543   4.916  17.953  0.00  0.00    +0.000 A 
ATOM     28  C   UNL     1       6.932   4.733  17.862  0.00  0.00    +0.000 A 
ATOM     29  C   UNL     1       7.552   4.590  16.621  0.00  0.00    +0.000 A 
ATOM     30  C   UNL     1       6.796   4.646  15.454  0.00  0.00    +0.000 A 
ATOM     31  C   UNL     1       5.419   4.842  15.525  0.00  0.00    +0.000 A 
ATOM     32  C   UNL     1       4.795   4.972  16.766  0.00  0.00    +0.000 A 
ENDBRANCH  26  27
ENDBRANCH  24  26
ENDBRANCH  22  24
ENDBRANCH  20  22
ENDBRANCH  11  20
TORSDOF 6
ENDMDL
MODEL 7
REMARK VINA RESULT:      -6.9      2.828      9.303
REMARK  Name = 
REMARK  9 active torsions:
REMARK  status: ('A' for Active; 'I' for Inactive)
REMARK    1  A    between atoms: C_1  and  C_2
REMARK    2  A    between atoms: C_2  and  N_3
REMARK    3  A    between atoms: C_9  and  C_10
REMARK    4  A    between atoms: C_13  and  N_14
REMARK    5  A    between atoms: N_14  and  C_15
REMARK    6  A    between atoms: C_15  and  N_17
REMARK    7  A    between atoms: N_17  and  C_18
REMARK    8  A    between atoms: N_17  and  C_19
REMARK    9  A    between atoms: C_19  and  C_20
REMARK                            x       y       z     vdW  Elec       q    Type
REMARK                         _______ _______ _______ _____ _____    ______ ____
ROOT
ATOM      1  N   UNL     1      -2.905  14.984  22.027  0.00  0.00    +0.000 NA
ATOM      2  C   UNL     1      -3.082  13.540  22.342  0.00  0.00    +0.000 C 
ATOM      3  C   UNL     1      -2.845  12.576  21.157  0.00  0.00    +0.000 C 
ATOM      4  N   UNL     1      -1.550  12.843  20.535  0.00  0.00    +0.000 N 
ATOM      5  C   UNL     1      -0.704  11.796  20.234  0.00  0.00    +0.000 A 
ATOM      6  C   UNL     1       0.218  11.912  19.200  0.00  0.00    +0.000 A 
ATOM      7  C   UNL     1       1.097  10.875  18.903  0.00  0.00    +0.000 A 
ATOM      8  C   UNL     1       2.097  11.052  17.799  0.00  0.00    +0.000 C 
ATOM      9  C   UNL     1       1.033   9.707  19.670  0.00  0.00    +0.000 A 
ATOM     10  C   UNL     1       1.891   8.624  19.439  0.00  0.00    +0.000 A 
ATOM     11  C   UNL     1       1.898   7.503  20.250  0.00  0.00    +0.000 A 
ATOM     12  C   UNL     1       0.943   7.414  21.259  0.00  0.00    +0.000 A 
ATOM     13  C   UNL     1       0.056   8.485  21.486  0.00  0.00    +0.000 A 
ATOM     14  C   UNL     1       0.085   9.646  20.715  0.00  0.00    +0.000 A 
ATOM     15  N   UNL     1      -0.772  10.660  20.973  0.00  0.00    +0.000 NA
ATOM     16  C   UNL     1      -1.228  14.240  20.235  0.00  0.00    +0.000 C 
ATOM     17  C   UNL     1      -1.559  15.152  21.437  0.00  0.00    +0.000 C 
ENDROOT
BRANCH   1  19
ATOM     18  C   UNL     1      -3.843  16.901  20.689  0.00  0.00    +0.000 C 
ATOM     19  C   UNL     1      -4.001  15.463  21.172  0.00  0.00    +0.000 C 
ENDBRANCH   1  19
BRANCH  11  20
ATOM     20  N   UNL     1       2.811   6.444  20.053  0.00  0.00    +0.000 N 
ATOM     21  H   UNL     1       3.693   6.737  19.659  0.00  0.00    +0.000 HD
BRANCH  20  22
ATOM     22  C   UNL     1       2.575   5.065  19.965  0.00  0.00    +0.000 C 
ATOM     23  S   UNL     1       2.094   4.061  21.232  0.00  0.00    +0.000 S 
BRANCH  22  24
ATOM     24  N   UNL     1       2.713   4.582  18.646  0.00  0.00    +0.000 N 
ATOM     25  C   UNL     1       1.590   4.505  17.707  0.00  0.00    +0.000 C 
BRANCH  24  26
ATOM     26  C   UNL     1       3.974   4.026  18.146  0.00  0.00    +0.000 C 
BRANCH  26  27
ATOM     27  C   UNL     1       5.096   5.024  17.958  0.00  0.00    +0.000 A 
ATOM     28  C   UNL     1       5.059   6.054  17.005  0.00  0.00    +0.000 A 
ATOM     29  C   UNL     1       6.101   6.977  16.914  0.00  0.00    +0.000 A 
ATOM     30  C   UNL     1       7.201   6.872  17.760  0.00  0.00    +0.000 A 
ATOM     31  C   UNL     1       7.260   5.848  18.701  0.00  0.00    +0.000 A 
ATOM     32  C   UNL     1       6.213   4.932  18.804  0.00  0.00    +0.000 A 
ENDBRANCH  26  27
ENDBRANCH  24  26
ENDBRANCH  22  24
ENDBRANCH  20  22
ENDBRANCH  11  20
TORSDOF 6
ENDMDL
MODEL 8
REMARK VINA RESULT:      -6.9      2.180      3.252
REMARK  Name = 
REMARK  9 active torsions:
REMARK  status: ('A' for Active; 'I' for Inactive)
REMARK    1  A    between atoms: C_1  and  C_2
REMARK    2  A    between atoms: C_2  and  N_3
REMARK    3  A    between atoms: C_9  and  C_10
REMARK    4  A    between atoms: C_13  and  N_14
REMARK    5  A    between atoms: N_14  and  C_15
REMARK    6  A    between atoms: C_15  and  N_17
REMARK    7  A    between atoms: N_17  and  C_18
REMARK    8  A    between atoms: N_17  and  C_19
REMARK    9  A    between atoms: C_19  and  C_20
REMARK                            x       y       z     vdW  Elec       q    Type
REMARK                         _______ _______ _______ _____ _____    ______ ____
ROOT
ATOM      1  N   UNL     1       2.458   3.674  18.927  0.00  0.00    +0.000 NA
ATOM      2  C   UNL     1       2.145   4.148  20.303  0.00  0.00    +0.000 C 
ATOM      3  C   UNL     1       2.658   5.566  20.641  0.00  0.00    +0.000 C 
ATOM      4  N   UNL     1       2.222   6.521  19.624  0.00  0.00    +0.000 N 
ATOM      5  C   UNL     1       1.680   7.730  20.006  0.00  0.00    +0.000 A 
ATOM      6  C   UNL     1       1.770   8.836  19.168  0.00  0.00    +0.000 A 
ATOM      7  C   UNL     1       1.203  10.055  19.527  0.00  0.00    +0.000 A 
ATOM      8  C   UNL     1       1.297  11.216  18.581  0.00  0.00    +0.000 C 
ATOM      9  C   UNL     1       0.537  10.145  20.754  0.00  0.00    +0.000 A 
ATOM     10  C   UNL     1      -0.067  11.335  21.180  0.00  0.00    +0.000 A 
ATOM     11  C   UNL     1      -0.807  11.409  22.347  0.00  0.00    +0.000 A 
ATOM     12  C   UNL     1      -0.853  10.287  23.170  0.00  0.00    +0.000 A 
ATOM     13  C   UNL     1      -0.226   9.092  22.767  0.00  0.00    +0.000 A 
ATOM     14  C   UNL     1       0.466   8.989  21.561  0.00  0.00    +0.000 A 
ATOM     15  N   UNL     1       1.041   7.820  21.199  0.00  0.00    +0.000 NA
ATOM     16  C   UNL     1       2.415   6.140  18.224  0.00  0.00    +0.000 C 
ATOM     17  C   UNL     1       1.949   4.687  17.978  0.00  0.00    +0.000 C 
ENDROOT
BRANCH   1  19
ATOM     18  C   UNL     1       4.429   2.357  19.779  0.00  0.00    +0.000 C 
ATOM     19  C   UNL     1       3.895   3.392  18.794  0.00  0.00    +0.000 C 
ENDBRANCH   1  19
BRANCH  11  20
ATOM     20  N   UNL     1      -1.470  12.593  22.738  0.00  0.00    +0.000 N 
ATOM     21  H   UNL     1      -2.049  12.481  23.559  0.00  0.00    +0.000 HD
BRANCH  20  22
ATOM     22  C   UNL     1      -1.747  13.750  21.997  0.00  0.00    +0.000 C 
ATOM     23  S   UNL     1      -2.885  13.882  20.758  0.00  0.00    +0.000 S 
BRANCH  22  24
ATOM     24  N   UNL     1      -1.008  14.864  22.447  0.00  0.00    +0.000 N 
ATOM     25  C   UNL     1      -0.940  15.255  23.858  0.00  0.00    +0.000 C 
BRANCH  24  26
ATOM     26  C   UNL     1      -0.329  15.776  21.520  0.00  0.00    +0.000 C 
BRANCH  26  27
ATOM     27  C   UNL     1       0.882  15.204  20.816  0.00  0.00    +0.000 A 
ATOM     28  C   UNL     1       1.886  14.478  21.475  0.00  0.00    +0.000 A 
ATOM     29  C   UNL     1       2.953  13.930  20.763  0.00  0.00    +0.000 A 
ATOM     30  C   UNL     1       3.041  14.117  19.387  0.00  0.00    +0.000 A 
ATOM     31  C   UNL     1       2.062  14.848  18.719  0.00  0.00    +0.000 A 
ATOM     32  C   UNL     1       0.987  15.384  19.427  0.00  0.00    +0.000 A 
ENDBRANCH  26  27
ENDBRANCH  24  26
ENDBRANCH  22  24
ENDBRANCH  20  22
ENDBRANCH  11  20
TORSDOF 6
ENDMDL
MODEL 9
REMARK VINA RESULT:      -6.9      1.843      2.857
REMARK  Name = 
REMARK  9 active torsions:
REMARK  status: ('A' for Active; 'I' for Inactive)
REMARK    1  A    between atoms: C_1  and  C_2
REMARK    2  A    between atoms: C_2  and  N_3
REMARK    3  A    between atoms: C_9  and  C_10
REMARK    4  A    between atoms: C_13  and  N_14
REMARK    5  A    between atoms: N_14  and  C_15
REMARK    6  A    between atoms: C_15  and  N_17
REMARK    7  A    between atoms: N_17  and  C_18
REMARK    8  A    between atoms: N_17  and  C_19
REMARK    9  A    between atoms: C_19  and  C_20
REMARK                            x       y       z     vdW  Elec       q    Type
REMARK                         _______ _______ _______ _____ _____    ______ ____
ROOT
ATOM      1  N   UNL     1       2.350   3.459  18.861  0.00  0.00    +0.000 NA
ATOM      2  C   UNL     1       2.085   3.955  20.239  0.00  0.00    +0.000 C 
ATOM      3  C   UNL     1       2.651   5.360  20.550  0.00  0.00    +0.000 C 
ATOM      4  N   UNL     1       2.221   6.318  19.534  0.00  0.00    +0.000 N 
ATOM      5  C   UNL     1       1.727   7.548  19.916  0.00  0.00    +0.000 A 
ATOM      6  C   UNL     1       1.832   8.643  19.066  0.00  0.00    +0.000 A 
ATOM      7  C   UNL     1       1.312   9.883  19.426  0.00  0.00    +0.000 A 
ATOM      8  C   UNL     1       1.420  11.031  18.466  0.00  0.00    +0.000 C 
ATOM      9  C   UNL     1       0.680  10.005  20.667  0.00  0.00    +0.000 A 
ATOM     10  C   UNL     1       0.124  11.218  21.095  0.00  0.00    +0.000 A 
ATOM     11  C   UNL     1      -0.584  11.326  22.279  0.00  0.00    +0.000 A 
ATOM     12  C   UNL     1      -0.645  10.214  23.115  0.00  0.00    +0.000 A 
ATOM     13  C   UNL     1      -0.067   8.996  22.709  0.00  0.00    +0.000 A 
ATOM     14  C   UNL     1       0.592   8.860  21.487  0.00  0.00    +0.000 A 
ATOM     15  N   UNL     1       1.121   7.669  21.124  0.00  0.00    +0.000 NA
ATOM     16  C   UNL     1       2.368   5.918  18.134  0.00  0.00    +0.000 C 
ATOM     17  C   UNL     1       1.850   4.479  17.913  0.00  0.00    +0.000 C 
ENDROOT
BRANCH   1  19
ATOM     18  C   UNL     1       4.344   2.234  19.790  0.00  0.00    +0.000 C 
ATOM     19  C   UNL     1       3.773   3.130  18.696  0.00  0.00    +0.000 C 
ENDBRANCH   1  19
BRANCH  11  20
ATOM     20  N   UNL     1      -1.200  12.534  22.674  0.00  0.00    +0.000 N 
ATOM     21  H   UNL     1      -1.868  12.422  23.423  0.00  0.00    +0.000 HD
BRANCH  20  22
ATOM     22  C   UNL     1      -1.314  13.748  21.982  0.00  0.00    +0.000 C 
ATOM     23  S   UNL     1      -0.079  14.872  21.747  0.00  0.00    +0.000 S 
BRANCH  22  24
ATOM     24  N   UNL     1      -2.594  13.921  21.412  0.00  0.00    +0.000 N 
ATOM     25  C   UNL     1      -3.155  15.240  21.107  0.00  0.00    +0.000 C 
BRANCH  24  26
ATOM     26  C   UNL     1      -3.499  12.793  21.172  0.00  0.00    +0.000 C 
BRANCH  26  27
ATOM     27  C   UNL     1      -4.779  12.803  21.980  0.00  0.00    +0.000 A 
ATOM     28  C   UNL     1      -6.055  12.713  21.403  0.00  0.00    +0.000 A 
ATOM     29  C   UNL     1      -7.197  12.674  22.204  0.00  0.00    +0.000 A 
ATOM     30  C   UNL     1      -7.080  12.744  23.589  0.00  0.00    +0.000 A 
ATOM     31  C   UNL     1      -5.822  12.849  24.176  0.00  0.00    +0.000 A 
ATOM     32  C   UNL     1      -4.678  12.874  23.379  0.00  0.00    +0.000 A 
ENDBRANCH  26  27
ENDBRANCH  24  26
ENDBRANCH  22  24
ENDBRANCH  20  22
ENDBRANCH  11  20
TORSDOF 6
ENDMDL
