MODEL 1
REMARK VINA RESULT:      -7.0      0.000      0.000
REMARK  Name = 
REMARK  5 active torsions:
REMARK  status: ('A' for Active; 'I' for Inactive)
REMARK    1  A    between atoms: C_1  and  S_2
REMARK    2  A    between atoms: S_2  and  C_5
REMARK    3  A    between atoms: C_8  and  O_9
REMARK    4  A    between atoms: O_9  and  C_10
REMARK    5  A    between atoms: C_13  and  N_14
REMARK                            x       y       z     vdW  Elec       q    Type
REMARK                         _______ _______ _______ _____ _____    ______ ____
ROOT
ATOM      1  C   UNL     1       1.267   9.683  19.543  0.00  0.00    +0.000 A 
ATOM      2  C   UNL     1       1.225   8.762  20.596  0.00  0.00    +0.000 A 
ATOM      3  C   UNL     1       1.646   7.450  20.372  0.00  0.00    +0.000 A 
ATOM      4  C   UNL     1       2.088   7.056  19.105  0.00  0.00    +0.000 A 
ATOM      5  C   UNL     1       2.162   7.996  18.070  0.00  0.00    +0.000 A 
ATOM      6  C   UNL     1       1.719   9.302  18.278  0.00  0.00    +0.000 A 
ENDROOT
BRANCH   1   8
ATOM      7  C   UNL     1      -1.046  11.168  19.940  0.00  0.00    +0.000 C 
ATOM      8  S   UNL     1       0.715  11.350  19.806  0.00  0.00    +0.000 S 
ATOM      9  O   UNL     1       1.002  12.103  18.600  0.00  0.00    +0.000 OA
ATOM     10  O   UNL     1       1.229  11.779  21.092  0.00  0.00    +0.000 OA
ENDBRANCH   1   8
BRANCH   4  11
ATOM     11  O   UNL     1       2.488   5.745  18.989  0.00  0.00    +0.000 OA
BRANCH  11  12
ATOM     12  C   UNL     1       3.769   5.443  18.583  0.00  0.00    +0.000 A 
ATOM     13  C   UNL     1       3.923   5.156  17.224  0.00  0.00    +0.000 A 
ATOM     14  C   UNL     1       5.182   4.841  16.705  0.00  0.00    +0.000 A 
ATOM     15  C   UNL     1       6.291   4.816  17.560  0.00  0.00    +0.000 A 
ATOM     16  C   UNL     1       6.150   5.133  18.918  0.00  0.00    +0.000 A 
ATOM     17  C   UNL     1       4.892   5.475  19.418  0.00  0.00    +0.000 A 
BRANCH  15  18
ATOM     18  N   UNL     1       7.615   4.463  17.031  0.00  0.00    +0.000 N 
ATOM     19  O   UNL     1       8.478   4.098  17.840  0.00  0.00    +0.000 OA
ATOM     20  O   UNL     1       7.788   4.554  15.808  0.00  0.00    +0.000 OA
ENDBRANCH  15  18
ENDBRANCH  11  12
ENDBRANCH   4  11
TORSDOF 4
ENDMDL
MODEL 2
REMARK VINA RESULT:      -6.9      0.970      2.035
REMARK  Name = 
REMARK  5 active torsions:
REMARK  status: ('A' for Active; 'I' for Inactive)
REMARK    1  A    between atoms: C_1  and  S_2
REMARK    2  A    between atoms: S_2  and  C_5
REMARK    3  A    between atoms: C_8  and  O_9
REMARK    4  A    between atoms: O_9  and  C_10
REMARK    5  A    between atoms: C_13  and  N_14
REMARK                            x       y       z     vdW  Elec       q    Type
REMARK                         _______ _______ _______ _____ _____    ______ ____
ROOT
ATOM      1  C   UNL     1       1.140   9.427  19.956  0.00  0.00    +0.000 A 
ATOM      2  C   UNL     1       1.705   9.015  18.744  0.00  0.00    +0.000 A 
ATOM      3  C   UNL     1       2.156   7.700  18.613  0.00  0.00    +0.000 A 
ATOM      4  C   UNL     1       2.060   6.810  19.688  0.00  0.00    +0.000 A 
ATOM      5  C   UNL     1       1.458   7.223  20.882  0.00  0.00    +0.000 A 
ATOM      6  C   UNL     1       1.029   8.542  21.031  0.00  0.00    +0.000 A 
ENDROOT
BRANCH   1   8
ATOM      7  C   UNL     1       1.449  11.957  18.856  0.00  0.00    +0.000 C 
ATOM      8  S   UNL     1       0.582  11.102  20.146  0.00  0.00    +0.000 S 
ATOM      9  O   UNL     1       1.072  11.586  21.422  0.00  0.00    +0.000 OA
ATOM     10  O   UNL     1      -0.835  11.123  19.837  0.00  0.00    +0.000 OA
ENDBRANCH   1   8
BRANCH   4  11
ATOM     11  O   UNL     1       2.526   5.536  19.455  0.00  0.00    +0.000 OA
BRANCH  11  12
ATOM     12  C   UNL     1       3.657   5.341  18.693  0.00  0.00    +0.000 A 
ATOM     13  C   UNL     1       4.873   5.576  19.340  0.00  0.00    +0.000 A 
ATOM     14  C   UNL     1       6.082   5.403  18.659  0.00  0.00    +0.000 A 
ATOM     15  C   UNL     1       6.064   4.991  17.321  0.00  0.00    +0.000 A 
ATOM     16  C   UNL     1       4.850   4.724  16.675  0.00  0.00    +0.000 A 
ATOM     17  C   UNL     1       3.651   4.872  17.374  0.00  0.00    +0.000 A 
BRANCH  15  18
ATOM     18  N   UNL     1       7.327   4.830  16.588  0.00  0.00    +0.000 N 
ATOM     19  O   UNL     1       7.427   5.386  15.487  0.00  0.00    +0.000 OA
ATOM     20  O   UNL     1       8.215   4.147  17.117  0.00  0.00    +0.000 OA
ENDBRANCH  15  18
ENDBRANCH  11  12
ENDBRANCH   4  11
TORSDOF 4
ENDMDL
MODEL 3
REMARK VINA RESULT:      -6.8      2.474      2.863
REMARK  Name = 
REMARK  5 active torsions:
REMARK  status: ('A' for Active; 'I' for Inactive)
REMARK    1  A    between atoms: C_1  and  S_2
REMARK    2  A    between atoms: S_2  and  C_5
REMARK    3  A    between atoms: C_8  and  O_9
REMARK    4  A    between atoms: O_9  and  C_10
REMARK    5  A    between atoms: C_13  and  N_14
REMARK                            x       y       z     vdW  Elec       q    Type
REMARK                         _______ _______ _______ _____ _____    ______ ____
ROOT
ATOM      1  C   UNL     1       0.768   9.920  20.215  0.00  0.00    +0.000 A 
ATOM      2  C   UNL     1       0.971  10.223  18.863  0.00  0.00    +0.000 A 
ATOM      3  C   UNL     1       1.661   9.316  18.057  0.00  0.00    +0.000 A 
ATOM      4  C   UNL     1       2.160   8.127  18.598  0.00  0.00    +0.000 A 
ATOM      5  C   UNL     1       1.918   7.818  19.941  0.00  0.00    +0.000 A 
ATOM      6  C   UNL     1       1.252   8.730  20.761  0.00  0.00    +0.000 A 
ENDROOT
BRANCH   1   8
ATOM      7  C   UNL     1      -0.523  10.084  22.668  0.00  0.00    +0.000 C 
ATOM      8  S   UNL     1      -0.089  11.072  21.259  0.00  0.00    +0.000 S 
ATOM      9  O   UNL     1      -1.311  11.456  20.580  0.00  0.00    +0.000 OA
ATOM     10  O   UNL     1       0.873  12.072  21.681  0.00  0.00    +0.000 OA
ENDBRANCH   1   8
BRANCH   4  11
ATOM     11  O   UNL     1       2.820   7.299  17.719  0.00  0.00    +0.000 OA
BRANCH  11  12
ATOM     12  C   UNL     1       3.220   6.043  18.118  0.00  0.00    +0.000 A 
ATOM     13  C   UNL     1       2.250   5.041  18.031  0.00  0.00    +0.000 A 
ATOM     14  C   UNL     1       2.551   3.728  18.406  0.00  0.00    +0.000 A 
ATOM     15  C   UNL     1       3.837   3.425  18.872  0.00  0.00    +0.000 A 
ATOM     16  C   UNL     1       4.824   4.418  18.934  0.00  0.00    +0.000 A 
ATOM     17  C   UNL     1       4.518   5.719  18.528  0.00  0.00    +0.000 A 
BRANCH  15  18
ATOM     18  N   UNL     1       4.158   2.055  19.293  0.00  0.00    +0.000 N 
ATOM     19  O   UNL     1       4.840   1.914  20.317  0.00  0.00    +0.000 OA
ATOM     20  O   UNL     1       3.729   1.125  18.597  0.00  0.00    +0.000 OA
ENDBRANCH  15  18
ENDBRANCH  11  12
ENDBRANCH   4  11
TORSDOF 4
ENDMDL
MODEL 4
REMARK VINA RESULT:      -6.8      0.463      1.585
REMARK  Name = 
REMARK  5 active torsions:
REMARK  status: ('A' for Active; 'I' for Inactive)
REMARK    1  A    between atoms: C_1  and  S_2
REMARK    2  A    between atoms: S_2  and  C_5
REMARK    3  A    between atoms: C_8  and  O_9
REMARK    4  A    between atoms: O_9  and  C_10
REMARK    5  A    between atoms: C_13  and  N_14
REMARK                            x       y       z     vdW  Elec       q    Type
REMARK                         _______ _______ _______ _____ _____    ______ ____
ROOT
ATOM      1  C   UNL     1       1.209   9.442  19.850  0.00  0.00    +0.000 A 
ATOM      2  C   UNL     1       1.750   9.017  18.631  0.00  0.00    +0.000 A 
ATOM      3  C   UNL     1       2.170   7.692  18.496  0.00  0.00    +0.000 A 
ATOM      4  C   UNL     1       2.067   6.805  19.572  0.00  0.00    +0.000 A 
ATOM      5  C   UNL     1       1.488   7.231  20.772  0.00  0.00    +0.000 A 
ATOM      6  C   UNL     1       1.090   8.560  20.925  0.00  0.00    +0.000 A 
ENDROOT
BRANCH   1   8
ATOM      7  C   UNL     1      -1.071  11.028  19.849  0.00  0.00    +0.000 C 
ATOM      8  S   UNL     1       0.691  11.129  20.045  0.00  0.00    +0.000 S 
ATOM      9  O   UNL     1       1.229  11.885  18.930  0.00  0.00    +0.000 OA
ATOM     10  O   UNL     1       0.977  11.514  21.413  0.00  0.00    +0.000 OA
ENDBRANCH   1   8
BRANCH   4  11
ATOM     11  O   UNL     1       2.501   5.521  19.335  0.00  0.00    +0.000 OA
BRANCH  11  12
ATOM     12  C   UNL     1       3.659   5.302  18.620  0.00  0.00    +0.000 A 
ATOM     13  C   UNL     1       4.846   5.661  19.265  0.00  0.00    +0.000 A 
ATOM     14  C   UNL     1       6.079   5.477  18.631  0.00  0.00    +0.000 A 
ATOM     15  C   UNL     1       6.114   4.929  17.343  0.00  0.00    +0.000 A 
ATOM     16  C   UNL     1       4.931   4.539  16.703  0.00  0.00    +0.000 A 
ATOM     17  C   UNL     1       3.708   4.700  17.358  0.00  0.00    +0.000 A 
BRANCH  15  18
ATOM     18  N   UNL     1       7.402   4.754  16.658  0.00  0.00    +0.000 N 
ATOM     19  O   UNL     1       8.261   4.062  17.218  0.00  0.00    +0.000 OA
ATOM     20  O   UNL     1       7.550   5.312  15.562  0.00  0.00    +0.000 OA
ENDBRANCH  15  18
ENDBRANCH  11  12
ENDBRANCH   4  11
TORSDOF 4
ENDMDL
MODEL 5
REMARK VINA RESULT:      -6.8      1.465      1.591
REMARK  Name = 
REMARK  5 active torsions:
REMARK  status: ('A' for Active; 'I' for Inactive)
REMARK    1  A    between atoms: C_1  and  S_2
REMARK    2  A    between atoms: S_2  and  C_5
REMARK    3  A    between atoms: C_8  and  O_9
REMARK    4  A    between atoms: O_9  and  C_10
REMARK    5  A    between atoms: C_13  and  N_14
REMARK                            x       y       z     vdW  Elec       q    Type
REMARK                         _______ _______ _______ _____ _____    ______ ____
ROOT
ATOM      1  C   UNL     1       0.971   9.544  19.188  0.00  0.00    +0.000 A 
ATOM      2  C   UNL     1       1.190   8.760  20.327  0.00  0.00    +0.000 A 
ATOM      3  C   UNL     1       1.949   7.593  20.217  0.00  0.00    +0.000 A 
ATOM      4  C   UNL     1       2.470   7.203  18.979  0.00  0.00    +0.000 A 
ATOM      5  C   UNL     1       2.277   8.015  17.856  0.00  0.00    +0.000 A 
ATOM      6  C   UNL     1       1.498   9.169  17.950  0.00  0.00    +0.000 A 
ENDROOT
BRANCH   1   8
ATOM      7  C   UNL     1      -1.403  10.653  18.269  0.00  0.00    +0.000 C 
ATOM      8  S   UNL     1      -0.010  11.019  19.306  0.00  0.00    +0.000 S 
ATOM      9  O   UNL     1       0.741  12.097  18.693  0.00  0.00    +0.000 OA
ATOM     10  O   UNL     1      -0.474  11.120  20.676  0.00  0.00    +0.000 OA
ENDBRANCH   1   8
BRANCH   4  11
ATOM     11  O   UNL     1       3.209   6.043  18.978  0.00  0.00    +0.000 OA
BRANCH  11  12
ATOM     12  C   UNL     1       4.100   5.789  17.959  0.00  0.00    +0.000 A 
ATOM     13  C   UNL     1       3.922   4.577  17.285  0.00  0.00    +0.000 A 
ATOM     14  C   UNL     1       4.769   4.222  16.230  0.00  0.00    +0.000 A 
ATOM     15  C   UNL     1       5.799   5.093  15.854  0.00  0.00    +0.000 A 
ATOM     16  C   UNL     1       5.964   6.323  16.504  0.00  0.00    +0.000 A 
ATOM     17  C   UNL     1       5.094   6.679  17.537  0.00  0.00    +0.000 A 
BRANCH  15  18
ATOM     18  N   UNL     1       6.710   4.720  14.764  0.00  0.00    +0.000 N 
ATOM     19  O   UNL     1       7.748   5.381  14.631  0.00  0.00    +0.000 OA
ATOM     20  O   UNL     1       6.383   3.767  14.043  0.00  0.00    +0.000 OA
ENDBRANCH  15  18
ENDBRANCH  11  12
ENDBRANCH   4  11
TORSDOF 4
ENDMDL
MODEL 6
REMARK VINA RESULT:      -6.8      2.439      2.905
REMARK  Name = 
REMARK  5 active torsions:
REMARK  status: ('A' for Active; 'I' for Inactive)
REMARK    1  A    between atoms: C_1  and  S_2
REMARK    2  A    between atoms: S_2  and  C_5
REMARK    3  A    between atoms: C_8  and  O_9
REMARK    4  A    between atoms: O_9  and  C_10
REMARK    5  A    between atoms: C_13  and  N_14
REMARK                            x       y       z     vdW  Elec       q    Type
REMARK                         _______ _______ _______ _____ _____    ______ ____
ROOT
ATOM      1  C   UNL     1       0.766   9.875  20.272  0.00  0.00    +0.000 A 
ATOM      2  C   UNL     1       0.988  10.185  18.925  0.00  0.00    +0.000 A 
ATOM      3  C   UNL     1       1.682   9.277  18.122  0.00  0.00    +0.000 A 
ATOM      4  C   UNL     1       2.165   8.081  18.661  0.00  0.00    +0.000 A 
ATOM      5  C   UNL     1       1.903   7.765  19.999  0.00  0.00    +0.000 A 
ATOM      6  C   UNL     1       1.234   8.677  20.816  0.00  0.00    +0.000 A 
ENDROOT
BRANCH   1   8
ATOM      7  C   UNL     1      -1.345  11.678  20.233  0.00  0.00    +0.000 C 
ATOM      8  S   UNL     1      -0.095  11.027  21.312  0.00  0.00    +0.000 S 
ATOM      9  O   UNL     1       0.826  12.099  21.637  0.00  0.00    +0.000 OA
ATOM     10  O   UNL     1      -0.746  10.263  22.358  0.00  0.00    +0.000 OA
ENDBRANCH   1   8
BRANCH   4  11
ATOM     11  O   UNL     1       2.829   7.253  17.786  0.00  0.00    +0.000 OA
BRANCH  11  12
ATOM     12  C   UNL     1       3.229   5.997  18.187  0.00  0.00    +0.000 A 
ATOM     13  C   UNL     1       2.349   4.955  17.884  0.00  0.00    +0.000 A 
ATOM     14  C   UNL     1       2.659   3.639  18.242  0.00  0.00    +0.000 A 
ATOM     15  C   UNL     1       3.861   3.375  18.910  0.00  0.00    +0.000 A 
ATOM     16  C   UNL     1       4.762   4.410  19.190  0.00  0.00    +0.000 A 
ATOM     17  C   UNL     1       4.455   5.715  18.800  0.00  0.00    +0.000 A 
BRANCH  15  18
ATOM     18  N   UNL     1       4.186   2.000  19.313  0.00  0.00    +0.000 N 
ATOM     19  O   UNL     1       3.701   1.076  18.648  0.00  0.00    +0.000 OA
ATOM     20  O   UNL     1       4.924   1.849  20.297  0.00  0.00    +0.000 OA
ENDBRANCH  15  18
ENDBRANCH  11  12
ENDBRANCH   4  11
TORSDOF 4
ENDMDL
MODEL 7
REMARK VINA RESULT:      -6.8      1.596      1.919
REMARK  Name = 
REMARK  5 active torsions:
REMARK  status: ('A' for Active; 'I' for Inactive)
REMARK    1  A    between atoms: C_1  and  S_2
REMARK    2  A    between atoms: S_2  and  C_5
REMARK    3  A    between atoms: C_8  and  O_9
REMARK    4  A    between atoms: O_9  and  C_10
REMARK    5  A    between atoms: C_13  and  N_14
REMARK                            x       y       z     vdW  Elec       q    Type
REMARK                         _______ _______ _______ _____ _____    ______ ____
ROOT
ATOM      1  C   UNL     1       1.018   9.496  19.298  0.00  0.00    +0.000 A 
ATOM      2  C   UNL     1       1.241   8.682  20.415  0.00  0.00    +0.000 A 
ATOM      3  C   UNL     1       1.971   7.501  20.263  0.00  0.00    +0.000 A 
ATOM      4  C   UNL     1       2.459   7.128  19.007  0.00  0.00    +0.000 A 
ATOM      5  C   UNL     1       2.263   7.969  17.906  0.00  0.00    +0.000 A 
ATOM      6  C   UNL     1       1.512   9.137  18.042  0.00  0.00    +0.000 A 
ENDROOT
BRANCH   1   8
ATOM      7  C   UNL     1       1.323  12.248  19.502  0.00  0.00    +0.000 C 
ATOM      8  S   UNL     1       0.073  10.989  19.469  0.00  0.00    +0.000 S 
ATOM      9  O   UNL     1      -0.571  10.955  20.767  0.00  0.00    +0.000 OA
ATOM     10  O   UNL     1      -0.705  11.150  18.256  0.00  0.00    +0.000 OA
ENDBRANCH   1   8
BRANCH   4  11
ATOM     11  O   UNL     1       3.171   5.951  18.966  0.00  0.00    +0.000 OA
BRANCH  11  12
ATOM     12  C   UNL     1       4.071   5.721  17.948  0.00  0.00    +0.000 A 
ATOM     13  C   UNL     1       3.911   4.515  17.260  0.00  0.00    +0.000 A 
ATOM     14  C   UNL     1       4.768   4.183  16.205  0.00  0.00    +0.000 A 
ATOM     15  C   UNL     1       5.788   5.071  15.844  0.00  0.00    +0.000 A 
ATOM     16  C   UNL     1       5.935   6.295  16.509  0.00  0.00    +0.000 A 
ATOM     17  C   UNL     1       5.055   6.628  17.541  0.00  0.00    +0.000 A 
BRANCH  15  18
ATOM     18  N   UNL     1       6.710   4.722  14.754  0.00  0.00    +0.000 N 
ATOM     19  O   UNL     1       6.411   3.759  14.036  0.00  0.00    +0.000 OA
ATOM     20  O   UNL     1       7.730   5.411  14.622  0.00  0.00    +0.000 OA
ENDBRANCH  15  18
ENDBRANCH  11  12
ENDBRANCH   4  11
TORSDOF 4
ENDMDL
MODEL 8
REMARK VINA RESULT:      -6.8      1.472      1.837
REMARK  Name = 
REMARK  5 active torsions:
REMARK  status: ('A' for Active; 'I' for Inactive)
REMARK    1  A    between atoms: C_1  and  S_2
REMARK    2  A    between atoms: S_2  and  C_5
REMARK    3  A    between atoms: C_8  and  O_9
REMARK    4  A    between atoms: O_9  and  C_10
REMARK    5  A    between atoms: C_13  and  N_14
REMARK                            x       y       z     vdW  Elec       q    Type
REMARK                         _______ _______ _______ _____ _____    ______ ____
ROOT
ATOM      1  C   UNL     1       1.105   9.380  19.157  0.00  0.00    +0.000 A 
ATOM      2  C   UNL     1       1.281   8.595  20.303  0.00  0.00    +0.000 A 
ATOM      3  C   UNL     1       2.060   7.438  20.223  0.00  0.00    +0.000 A 
ATOM      4  C   UNL     1       2.642   7.060  19.010  0.00  0.00    +0.000 A 
ATOM      5  C   UNL     1       2.491   7.874  17.881  0.00  0.00    +0.000 A 
ATOM      6  C   UNL     1       1.693   9.017  17.944  0.00  0.00    +0.000 A 
ENDROOT
BRANCH   1   8
ATOM      7  C   UNL     1      -1.199  10.492  18.078  0.00  0.00    +0.000 C 
ATOM      8  S   UNL     1       0.100  10.842  19.235  0.00  0.00    +0.000 S 
ATOM      9  O   UNL     1       0.886  11.944  18.716  0.00  0.00    +0.000 OA
ATOM     10  O   UNL     1      -0.476  10.900  20.565  0.00  0.00    +0.000 OA
ENDBRANCH   1   8
BRANCH   4  11
ATOM     11  O   UNL     1       3.395   5.909  19.039  0.00  0.00    +0.000 OA
BRANCH  11  12
ATOM     12  C   UNL     1       4.176   5.564  17.958  0.00  0.00    +0.000 A 
ATOM     13  C   UNL     1       5.289   6.379  17.729  0.00  0.00    +0.000 A 
ATOM     14  C   UNL     1       6.151   6.115  16.660  0.00  0.00    +0.000 A 
ATOM     15  C   UNL     1       5.890   5.026  15.819  0.00  0.00    +0.000 A 
ATOM     16  C   UNL     1       4.795   4.187  16.061  0.00  0.00    +0.000 A 
ATOM     17  C   UNL     1       3.958   4.444  17.149  0.00  0.00    +0.000 A 
BRANCH  15  18
ATOM     18  N   UNL     1       6.775   4.755  14.679  0.00  0.00    +0.000 N 
ATOM     19  O   UNL     1       6.429   3.874  13.880  0.00  0.00    +0.000 OA
ATOM     20  O   UNL     1       7.815   5.422  14.586  0.00  0.00    +0.000 OA
ENDBRANCH  15  18
ENDBRANCH  11  12
ENDBRANCH   4  11
TORSDOF 4
ENDMDL
MODEL 9
REMARK VINA RESULT:      -6.7      1.135      1.663
REMARK  Name = 
REMARK  5 active torsions:
REMARK  status: ('A' for Active; 'I' for Inactive)
REMARK    1  A    between atoms: C_1  and  S_2
REMARK    2  A    between atoms: S_2  and  C_5
REMARK    3  A    between atoms: C_8  and  O_9
REMARK    4  A    between atoms: O_9  and  C_10
REMARK    5  A    between atoms: C_13  and  N_14
REMARK                            x       y       z     vdW  Elec       q    Type
REMARK                         _______ _______ _______ _____ _____    ______ ____
ROOT
ATOM      1  C   UNL     1       1.021   9.784  20.307  0.00  0.00    +0.000 A 
ATOM      2  C   UNL     1       1.303   8.566  20.937  0.00  0.00    +0.000 A 
ATOM      3  C   UNL     1       1.732   7.483  20.167  0.00  0.00    +0.000 A 
ATOM      4  C   UNL     1       1.861   7.609  18.780  0.00  0.00    +0.000 A 
ATOM      5  C   UNL     1       1.613   8.842  18.167  0.00  0.00    +0.000 A 
ATOM      6  C   UNL     1       1.159   9.922  18.925  0.00  0.00    +0.000 A 
ENDROOT
BRANCH   1   8
ATOM      7  C   UNL     1      -0.990  11.697  20.385  0.00  0.00    +0.000 C 
ATOM      8  S   UNL     1       0.454  11.165  21.269  0.00  0.00    +0.000 S 
ATOM      9  O   UNL     1       1.456  12.209  21.171  0.00  0.00    +0.000 OA
ATOM     10  O   UNL     1       0.037  10.651  22.559  0.00  0.00    +0.000 OA
ENDBRANCH   1   8
BRANCH   4  11
ATOM     11  O   UNL     1       2.296   6.486  18.114  0.00  0.00    +0.000 OA
BRANCH  11  12
ATOM     12  C   UNL     1       3.634   6.157  18.112  0.00  0.00    +0.000 A 
ATOM     13  C   UNL     1       4.003   5.115  18.969  0.00  0.00    +0.000 A 
ATOM     14  C   UNL     1       5.335   4.697  19.041  0.00  0.00    +0.000 A 
ATOM     15  C   UNL     1       6.299   5.332  18.247  0.00  0.00    +0.000 A 
ATOM     16  C   UNL     1       5.931   6.355  17.364  0.00  0.00    +0.000 A 
ATOM     17  C   UNL     1       4.592   6.744  17.279  0.00  0.00    +0.000 A 
BRANCH  15  18
ATOM     18  N   UNL     1       7.705   4.918  18.334  0.00  0.00    +0.000 N 
ATOM     19  O   UNL     1       8.208   4.380  17.338  0.00  0.00    +0.000 OA
ATOM     20  O   UNL     1       8.303   5.130  19.398  0.00  0.00    +0.000 OA
ENDBRANCH  15  18
ENDBRANCH  11  12
ENDBRANCH   4  11
TORSDOF 4
ENDMDL
