MODEL 1
REMARK VINA RESULT:      -8.7      0.000      0.000
REMARK  Name = 
REMARK  14 active torsions:
REMARK  status: ('A' for Active; 'I' for Inactive)
REMARK    1  A    between atoms: C_1  and  O_2
REMARK    2  A    between atoms: O_2  and  C_3
REMARK    3  A    between atoms: C_3  and  C_4
REMARK    4  A    between atoms: C_4  and  O_5
REMARK    5  A    between atoms: O_5  and  C_6
REMARK    6  A    between atoms: C_8  and  C_9
REMARK    7  A    between atoms: C_14  and  C_15
REMARK    8  A    between atoms: C_22  and  C_23
REMARK    9  A    between atoms: C_24  and  C_25
REMARK   10  A    between atoms: C_27  and  C_28
REMARK   11  A    between atoms: C_28  and  C_29
REMARK   12  A    between atoms: C_28  and  C_30
REMARK   13  A    between atoms: C_28  and  C_31
REMARK   14  A    between atoms: N_33  and  C_34
REMARK                            x       y       z     vdW  Elec       q    Type
REMARK                         _______ _______ _______ _____ _____    ______ ____
ROOT
ATOM      1  C   UNL     1       2.776   5.655  20.063  0.00  0.00    +0.000 A 
ATOM      2  N   UNL     1       3.747   5.214  19.221  0.00  0.00    +0.000 NA
ATOM      3  C   UNL     1       4.070   5.932  18.114  0.00  0.00    +0.000 A 
ATOM      4  C   UNL     1       3.507   7.187  17.847  0.00  0.00    +0.000 A 
ATOM      5  C   UNL     1       2.562   7.670  18.751  0.00  0.00    +0.000 A 
ATOM      6  N   UNL     1       1.858   8.846  18.757  0.00  0.00    +0.000 NA
ATOM      7  C   UNL     1       1.063   8.797  19.810  0.00  0.00    +0.000 A 
ATOM      8  N   UNL     1       1.224   7.599  20.472  0.00  0.00    +0.000 N 
ATOM      9  C   UNL     1       2.202   6.886  19.823  0.00  0.00    +0.000 A 
ATOM     10  H   UNL     1       0.738   7.289  21.294  0.00  0.00    +0.000 HD
ENDROOT
BRANCH   3  11
ATOM     11  C   UNL     1       5.048   5.318  17.176  0.00  0.00    +0.000 A 
ATOM     12  C   UNL     1       4.554   4.690  15.999  0.00  0.00    +0.000 A 
ATOM     13  C   UNL     1       5.380   4.022  15.089  0.00  0.00    +0.000 A 
ATOM     14  C   UNL     1       6.745   3.983  15.304  0.00  0.00    +0.000 A 
ATOM     15  C   UNL     1       7.271   4.612  16.428  0.00  0.00    +0.000 A 
ATOM     16  C   UNL     1       6.448   5.269  17.386  0.00  0.00    +0.000 A 
BRANCH  16  17
ATOM     17  C   UNL     1       7.211   5.832  18.571  0.00  0.00    +0.000 C 
ATOM     18  F   UNL     1       7.558   7.140  18.565  0.00  0.00    +0.000 F 
ATOM     19  F   UNL     1       6.474   5.698  19.722  0.00  0.00    +0.000 F 
ATOM     20  F   UNL     1       8.358   5.130  18.814  0.00  0.00    +0.000 F 
ENDBRANCH  16  17
ENDBRANCH   3  11
BRANCH   7  21
ATOM     21  C   UNL     1       0.170   9.853  20.191  0.00  0.00    +0.000 A 
ATOM     22  C   UNL     1      -0.150  10.407  21.423  0.00  0.00    +0.000 A 
ATOM     23  C   UNL     1      -1.110  11.424  21.169  0.00  0.00    +0.000 A 
ATOM     24  N   UNL     1      -1.363  11.504  19.857  0.00  0.00    +0.000 NA
ATOM     25  N   UNL     1      -0.588  10.562  19.290  0.00  0.00    +0.000 N 
ATOM     26  C   UNL     1      -0.646  10.406  17.852  0.00  0.00    +0.000 C 
BRANCH  23  27
ATOM     27  C   UNL     1      -1.839  12.365  22.134  0.00  0.00    +0.000 C 
ATOM     28  C   UNL     1      -2.392  11.589  23.344  0.00  0.00    +0.000 C 
ATOM     29  C   UNL     1      -0.893  13.463  22.685  0.00  0.00    +0.000 C 
ATOM     30  C   UNL     1      -3.001  13.086  21.422  0.00  0.00    +0.000 C 
ENDBRANCH  23  27
BRANCH  22  31
ATOM     31  C   UNL     1       0.395  10.008  22.676  0.00  0.00    +0.000 C 
ATOM     32  N   UNL     1       0.864   9.608  23.660  0.00  0.00    +0.000 NA
ENDBRANCH  22  31
ENDBRANCH   7  21
BRANCH   1  33
ATOM     33  O   UNL     1       2.277   4.871  21.074  0.00  0.00    +0.000 OA
BRANCH  33  34
ATOM     34  C   UNL     1       1.185   4.040  20.686  0.00  0.00    +0.000 C 
BRANCH  34  35
ATOM     35  C   UNL     1       1.625   2.590  20.885  0.00  0.00    +0.000 C 
BRANCH  35  37
ATOM     36  C   UNL     1       1.092   2.550  18.594  0.00  0.00    +0.000 C 
ATOM     37  O   UNL     1       1.886   1.977  19.626  0.00  0.00    +0.000 OA
ENDBRANCH  35  37
ENDBRANCH  34  35
ENDBRANCH  33  34
ENDBRANCH   1  33
TORSDOF 9
ENDMDL
MODEL 2
REMARK VINA RESULT:      -8.5      0.311      1.006
REMARK  Name = 
REMARK  14 active torsions:
REMARK  status: ('A' for Active; 'I' for Inactive)
REMARK    1  A    between atoms: C_1  and  O_2
REMARK    2  A    between atoms: O_2  and  C_3
REMARK    3  A    between atoms: C_3  and  C_4
REMARK    4  A    between atoms: C_4  and  O_5
REMARK    5  A    between atoms: O_5  and  C_6
REMARK    6  A    between atoms: C_8  and  C_9
REMARK    7  A    between atoms: C_14  and  C_15
REMARK    8  A    between atoms: C_22  and  C_23
REMARK    9  A    between atoms: C_24  and  C_25
REMARK   10  A    between atoms: C_27  and  C_28
REMARK   11  A    between atoms: C_28  and  C_29
REMARK   12  A    between atoms: C_28  and  C_30
REMARK   13  A    between atoms: C_28  and  C_31
REMARK   14  A    between atoms: N_33  and  C_34
REMARK                            x       y       z     vdW  Elec       q    Type
REMARK                         _______ _______ _______ _____ _____    ______ ____
ROOT
ATOM      1  C   UNL     1       2.752   5.639  20.042  0.00  0.00    +0.000 A 
ATOM      2  N   UNL     1       3.734   5.208  19.208  0.00  0.00    +0.000 NA
ATOM      3  C   UNL     1       4.080   5.946  18.120  0.00  0.00    +0.000 A 
ATOM      4  C   UNL     1       3.530   7.209  17.869  0.00  0.00    +0.000 A 
ATOM      5  C   UNL     1       2.573   7.680  18.766  0.00  0.00    +0.000 A 
ATOM      6  N   UNL     1       1.875   8.861  18.783  0.00  0.00    +0.000 NA
ATOM      7  C   UNL     1       1.063   8.797  19.821  0.00  0.00    +0.000 A 
ATOM      8  N   UNL     1       1.205   7.585  20.462  0.00  0.00    +0.000 N 
ATOM      9  C   UNL     1       2.190   6.878  19.816  0.00  0.00    +0.000 A 
ATOM     10  H   UNL     1       0.703   7.262  21.270  0.00  0.00    +0.000 HD
ENDROOT
BRANCH   3  11
ATOM     11  C   UNL     1       5.070   5.344  17.187  0.00  0.00    +0.000 A 
ATOM     12  C   UNL     1       4.596   4.773  15.973  0.00  0.00    +0.000 A 
ATOM     13  C   UNL     1       5.432   4.120  15.062  0.00  0.00    +0.000 A 
ATOM     14  C   UNL     1       6.789   4.039  15.314  0.00  0.00    +0.000 A 
ATOM     15  C   UNL     1       7.296   4.612  16.475  0.00  0.00    +0.000 A 
ATOM     16  C   UNL     1       6.463   5.252  17.434  0.00  0.00    +0.000 A 
BRANCH  16  17
ATOM     17  C   UNL     1       7.204   5.751  18.661  0.00  0.00    +0.000 C 
ATOM     18  F   UNL     1       8.401   5.201  18.972  0.00  0.00    +0.000 F 
ATOM     19  F   UNL     1       7.485   7.090  18.539  0.00  0.00    +0.000 F 
ATOM     20  F   UNL     1       6.435   5.663  19.787  0.00  0.00    +0.000 F 
ENDBRANCH  16  17
ENDBRANCH   3  11
BRANCH   7  21
ATOM     21  C   UNL     1       0.170   9.850  20.207  0.00  0.00    +0.000 A 
ATOM     22  C   UNL     1      -0.173  10.378  21.445  0.00  0.00    +0.000 A 
ATOM     23  C   UNL     1      -1.119  11.408  21.195  0.00  0.00    +0.000 A 
ATOM     24  N   UNL     1      -1.343  11.522  19.879  0.00  0.00    +0.000 NA
ATOM     25  N   UNL     1      -0.563  10.587  19.307  0.00  0.00    +0.000 N 
ATOM     26  C   UNL     1      -0.590  10.466  17.865  0.00  0.00    +0.000 C 
BRANCH  23  27
ATOM     27  C   UNL     1      -1.862  12.332  22.165  0.00  0.00    +0.000 C 
ATOM     28  C   UNL     1      -3.055  13.015  21.468  0.00  0.00    +0.000 C 
ATOM     29  C   UNL     1      -2.425  11.551  23.380  0.00  0.00    +0.000 C 
ATOM     30  C   UNL     1      -0.916  13.414  22.723  0.00  0.00    +0.000 C 
ENDBRANCH  23  27
BRANCH  22  31
ATOM     31  C   UNL     1       0.341   9.945  22.700  0.00  0.00    +0.000 C 
ATOM     32  N   UNL     1       0.775   9.676  23.743  0.00  0.00    +0.000 NA
ENDBRANCH  22  31
ENDBRANCH   7  21
BRANCH   1  33
ATOM     33  O   UNL     1       2.231   4.839  21.028  0.00  0.00    +0.000 OA
BRANCH  33  34
ATOM     34  C   UNL     1       2.561   3.458  20.898  0.00  0.00    +0.000 C 
BRANCH  34  35
ATOM     35  C   UNL     1       1.313   2.739  20.386  0.00  0.00    +0.000 C 
BRANCH  35  37
ATOM     36  C   UNL     1       1.979   2.439  18.149  0.00  0.00    +0.000 C 
ATOM     37  O   UNL     1       1.668   1.795  19.379  0.00  0.00    +0.000 OA
ENDBRANCH  35  37
ENDBRANCH  34  35
ENDBRANCH  33  34
ENDBRANCH   1  33
TORSDOF 9
ENDMDL
MODEL 3
REMARK VINA RESULT:      -8.5      0.600      1.162
REMARK  Name = 
REMARK  14 active torsions:
REMARK  status: ('A' for Active; 'I' for Inactive)
REMARK    1  A    between atoms: C_1  and  O_2
REMARK    2  A    between atoms: O_2  and  C_3
REMARK    3  A    between atoms: C_3  and  C_4
REMARK    4  A    between atoms: C_4  and  O_5
REMARK    5  A    between atoms: O_5  and  C_6
REMARK    6  A    between atoms: C_8  and  C_9
REMARK    7  A    between atoms: C_14  and  C_15
REMARK    8  A    between atoms: C_22  and  C_23
REMARK    9  A    between atoms: C_24  and  C_25
REMARK   10  A    between atoms: C_27  and  C_28
REMARK   11  A    between atoms: C_28  and  C_29
REMARK   12  A    between atoms: C_28  and  C_30
REMARK   13  A    between atoms: C_28  and  C_31
REMARK   14  A    between atoms: N_33  and  C_34
REMARK                            x       y       z     vdW  Elec       q    Type
REMARK                         _______ _______ _______ _____ _____    ______ ____
ROOT
ATOM      1  C   UNL     1       2.804   5.721  19.805  0.00  0.00    +0.000 A 
ATOM      2  N   UNL     1       3.797   5.319  18.968  0.00  0.00    +0.000 NA
ATOM      3  C   UNL     1       4.153   6.092  17.909  0.00  0.00    +0.000 A 
ATOM      4  C   UNL     1       3.602   7.361  17.691  0.00  0.00    +0.000 A 
ATOM      5  C   UNL     1       2.634   7.801  18.592  0.00  0.00    +0.000 A 
ATOM      6  N   UNL     1       1.933   8.979  18.638  0.00  0.00    +0.000 NA
ATOM      7  C   UNL     1       1.109   8.881  19.664  0.00  0.00    +0.000 A 
ATOM      8  N   UNL     1       1.247   7.650  20.268  0.00  0.00    +0.000 N 
ATOM      9  C   UNL     1       2.241   6.965  19.612  0.00  0.00    +0.000 A 
ATOM     10  H   UNL     1       0.737   7.300  21.059  0.00  0.00    +0.000 HD
ENDROOT
BRANCH   3  11
ATOM     11  C   UNL     1       5.155   5.521  16.968  0.00  0.00    +0.000 A 
ATOM     12  C   UNL     1       4.702   5.037  15.710  0.00  0.00    +0.000 A 
ATOM     13  C   UNL     1       5.549   4.418  14.784  0.00  0.00    +0.000 A 
ATOM     14  C   UNL     1       6.895   4.288  15.067  0.00  0.00    +0.000 A 
ATOM     15  C   UNL     1       7.383   4.777  16.275  0.00  0.00    +0.000 A 
ATOM     16  C   UNL     1       6.537   5.380  17.248  0.00  0.00    +0.000 A 
BRANCH  16  17
ATOM     17  C   UNL     1       7.254   5.785  18.523  0.00  0.00    +0.000 C 
ATOM     18  F   UNL     1       6.612   5.650  19.707  0.00  0.00    +0.000 F 
ATOM     19  F   UNL     1       8.396   5.041  18.687  0.00  0.00    +0.000 F 
ATOM     20  F   UNL     1       7.692   7.079  18.467  0.00  0.00    +0.000 F 
ENDBRANCH  16  17
ENDBRANCH   3  11
BRANCH   7  21
ATOM     21  C   UNL     1       0.209   9.920  20.074  0.00  0.00    +0.000 A 
ATOM     22  C   UNL     1      -0.092  10.459  21.317  0.00  0.00    +0.000 A 
ATOM     23  C   UNL     1      -1.072  11.464  21.093  0.00  0.00    +0.000 A 
ATOM     24  N   UNL     1      -1.355  11.550  19.787  0.00  0.00    +0.000 NA
ATOM     25  N   UNL     1      -0.579  10.624  19.196  0.00  0.00    +0.000 N 
ATOM     26  C   UNL     1      -0.667  10.480  17.758  0.00  0.00    +0.000 C 
BRANCH  23  27
ATOM     27  C   UNL     1      -1.793  12.386  22.081  0.00  0.00    +0.000 C 
ATOM     28  C   UNL     1      -0.852  13.500  22.578  0.00  0.00    +0.000 C 
ATOM     29  C   UNL     1      -3.018  13.077  21.429  0.00  0.00    +0.000 C 
ATOM     30  C   UNL     1      -2.317  11.589  23.292  0.00  0.00    +0.000 C 
ENDBRANCH  23  27
BRANCH  22  31
ATOM     31  C   UNL     1       0.487  10.058  22.555  0.00  0.00    +0.000 C 
ATOM     32  N   UNL     1       0.974   9.653  23.528  0.00  0.00    +0.000 NA
ENDBRANCH  22  31
ENDBRANCH   7  21
BRANCH   1  33
ATOM     33  O   UNL     1       2.273   4.890  20.759  0.00  0.00    +0.000 OA
BRANCH  33  34
ATOM     34  C   UNL     1       1.382   3.902  20.246  0.00  0.00    +0.000 C 
BRANCH  34  35
ATOM     35  C   UNL     1       1.880   2.543  20.737  0.00  0.00    +0.000 C 
BRANCH  35  37
ATOM     36  C   UNL     1       3.938   1.982  19.744  0.00  0.00    +0.000 C 
ATOM     37  O   UNL     1       3.298   2.558  20.876  0.00  0.00    +0.000 OA
ENDBRANCH  35  37
ENDBRANCH  34  35
ENDBRANCH  33  34
ENDBRANCH   1  33
TORSDOF 9
ENDMDL
MODEL 4
REMARK VINA RESULT:      -8.4      0.799      1.243
REMARK  Name = 
REMARK  14 active torsions:
REMARK  status: ('A' for Active; 'I' for Inactive)
REMARK    1  A    between atoms: C_1  and  O_2
REMARK    2  A    between atoms: O_2  and  C_3
REMARK    3  A    between atoms: C_3  and  C_4
REMARK    4  A    between atoms: C_4  and  O_5
REMARK    5  A    between atoms: O_5  and  C_6
REMARK    6  A    between atoms: C_8  and  C_9
REMARK    7  A    between atoms: C_14  and  C_15
REMARK    8  A    between atoms: C_22  and  C_23
REMARK    9  A    between atoms: C_24  and  C_25
REMARK   10  A    between atoms: C_27  and  C_28
REMARK   11  A    between atoms: C_28  and  C_29
REMARK   12  A    between atoms: C_28  and  C_30
REMARK   13  A    between atoms: C_28  and  C_31
REMARK   14  A    between atoms: N_33  and  C_34
REMARK                            x       y       z     vdW  Elec       q    Type
REMARK                         _______ _______ _______ _____ _____    ______ ____
ROOT
ATOM      1  C   UNL     1       2.877   5.867  19.879  0.00  0.00    +0.000 A 
ATOM      2  N   UNL     1       3.823   5.462  18.992  0.00  0.00    +0.000 NA
ATOM      3  C   UNL     1       4.067   6.191  17.872  0.00  0.00    +0.000 A 
ATOM      4  C   UNL     1       3.446   7.424  17.633  0.00  0.00    +0.000 A 
ATOM      5  C   UNL     1       2.527   7.872  18.581  0.00  0.00    +0.000 A 
ATOM      6  N   UNL     1       1.781   9.021  18.621  0.00  0.00    +0.000 NA
ATOM      7  C   UNL     1       1.039   8.944  19.710  0.00  0.00    +0.000 A 
ATOM      8  N   UNL     1       1.274   7.753  20.362  0.00  0.00    +0.000 N 
ATOM      9  C   UNL     1       2.247   7.076  19.668  0.00  0.00    +0.000 A 
ATOM     10  H   UNL     1       0.839   7.426  21.206  0.00  0.00    +0.000 HD
ENDROOT
BRANCH   3  11
ATOM     11  C   UNL     1       5.021   5.613  16.888  0.00  0.00    +0.000 A 
ATOM     12  C   UNL     1       4.588   4.521  16.086  0.00  0.00    +0.000 A 
ATOM     13  C   UNL     1       5.428   3.860  15.183  0.00  0.00    +0.000 A 
ATOM     14  C   UNL     1       6.732   4.288  15.023  0.00  0.00    +0.000 A 
ATOM     15  C   UNL     1       7.185   5.372  15.766  0.00  0.00    +0.000 A 
ATOM     16  C   UNL     1       6.361   6.040  16.715  0.00  0.00    +0.000 A 
BRANCH  16  17
ATOM     17  C   UNL     1       7.066   7.153  17.469  0.00  0.00    +0.000 C 
ATOM     18  F   UNL     1       6.387   8.293  17.740  0.00  0.00    +0.000 F 
ATOM     19  F   UNL     1       7.469   6.714  18.706  0.00  0.00    +0.000 F 
ATOM     20  F   UNL     1       8.222   7.533  16.846  0.00  0.00    +0.000 F 
ENDBRANCH  16  17
ENDBRANCH   3  11
BRANCH   7  21
ATOM     21  C   UNL     1       0.126   9.966  20.133  0.00  0.00    +0.000 A 
ATOM     22  C   UNL     1      -0.180  10.487  21.383  0.00  0.00    +0.000 A 
ATOM     23  C   UNL     1      -1.174  11.480  21.173  0.00  0.00    +0.000 A 
ATOM     24  N   UNL     1      -1.461  11.579  19.869  0.00  0.00    +0.000 NA
ATOM     25  N   UNL     1      -0.674  10.671  19.265  0.00  0.00    +0.000 N 
ATOM     26  C   UNL     1      -0.762  10.542  17.826  0.00  0.00    +0.000 C 
BRANCH  23  27
ATOM     27  C   UNL     1      -1.905  12.382  22.174  0.00  0.00    +0.000 C 
ATOM     28  C   UNL     1      -3.123  13.057  21.515  0.00  0.00    +0.000 C 
ATOM     29  C   UNL     1      -2.428  11.577  23.391  0.00  0.00    +0.000 C 
ATOM     30  C   UNL     1      -0.960  13.469  22.723  0.00  0.00    +0.000 C 
ENDBRANCH  23  27
BRANCH  22  31
ATOM     31  C   UNL     1       0.407  10.079  22.615  0.00  0.00    +0.000 C 
ATOM     32  N   UNL     1       0.854   9.666  23.604  0.00  0.00    +0.000 NA
ENDBRANCH  22  31
ENDBRANCH   7  21
BRANCH   1  33
ATOM     33  O   UNL     1       2.455   5.067  20.911  0.00  0.00    +0.000 OA
BRANCH  33  34
ATOM     34  C   UNL     1       1.496   4.080  20.534  0.00  0.00    +0.000 C 
BRANCH  34  35
ATOM     35  C   UNL     1       2.104   2.714  20.847  0.00  0.00    +0.000 C 
BRANCH  35  37
ATOM     36  C   UNL     1       4.305   2.188  20.204  0.00  0.00    +0.000 C 
ATOM     37  O   UNL     1       2.952   2.296  19.781  0.00  0.00    +0.000 OA
ENDBRANCH  35  37
ENDBRANCH  34  35
ENDBRANCH  33  34
ENDBRANCH   1  33
TORSDOF 9
ENDMDL
MODEL 5
REMARK VINA RESULT:      -8.4      0.958      2.014
REMARK  Name = 
REMARK  14 active torsions:
REMARK  status: ('A' for Active; 'I' for Inactive)
REMARK    1  A    between atoms: C_1  and  O_2
REMARK    2  A    between atoms: O_2  and  C_3
REMARK    3  A    between atoms: C_3  and  C_4
REMARK    4  A    between atoms: C_4  and  O_5
REMARK    5  A    between atoms: O_5  and  C_6
REMARK    6  A    between atoms: C_8  and  C_9
REMARK    7  A    between atoms: C_14  and  C_15
REMARK    8  A    between atoms: C_22  and  C_23
REMARK    9  A    between atoms: C_24  and  C_25
REMARK   10  A    between atoms: C_27  and  C_28
REMARK   11  A    between atoms: C_28  and  C_29
REMARK   12  A    between atoms: C_28  and  C_30
REMARK   13  A    between atoms: C_28  and  C_31
REMARK   14  A    between atoms: N_33  and  C_34
REMARK                            x       y       z     vdW  Elec       q    Type
REMARK                         _______ _______ _______ _____ _____    ______ ____
ROOT
ATOM      1  C   UNL     1       2.777   5.453  19.991  0.00  0.00    +0.000 A 
ATOM      2  N   UNL     1       3.746   5.064  19.121  0.00  0.00    +0.000 NA
ATOM      3  C   UNL     1       4.098   5.870  18.085  0.00  0.00    +0.000 A 
ATOM      4  C   UNL     1       3.569   7.157  17.926  0.00  0.00    +0.000 A 
ATOM      5  C   UNL     1       2.625   7.581  18.861  0.00  0.00    +0.000 A 
ATOM      6  N   UNL     1       1.949   8.769  18.964  0.00  0.00    +0.000 NA
ATOM      7  C   UNL     1       1.142   8.647  20.002  0.00  0.00    +0.000 A 
ATOM      8  N   UNL     1       1.267   7.391  20.557  0.00  0.00    +0.000 N 
ATOM      9  C   UNL     1       2.235   6.714  19.856  0.00  0.00    +0.000 A 
ATOM     10  H   UNL     1       0.765   7.021  21.343  0.00  0.00    +0.000 HD
ENDROOT
BRANCH   3  11
ATOM     11  C   UNL     1       5.071   5.317  17.105  0.00  0.00    +0.000 A 
ATOM     12  C   UNL     1       4.572   4.764  15.893  0.00  0.00    +0.000 A 
ATOM     13  C   UNL     1       5.393   4.156  14.938  0.00  0.00    +0.000 A 
ATOM     14  C   UNL     1       6.759   4.105  15.143  0.00  0.00    +0.000 A 
ATOM     15  C   UNL     1       7.291   4.663  16.302  0.00  0.00    +0.000 A 
ATOM     16  C   UNL     1       6.473   5.257  17.304  0.00  0.00    +0.000 A 
BRANCH  16  17
ATOM     17  C   UNL     1       7.242   5.745  18.518  0.00  0.00    +0.000 C 
ATOM     18  F   UNL     1       6.643   5.706  19.731  0.00  0.00    +0.000 F 
ATOM     19  F   UNL     1       8.381   4.998  18.695  0.00  0.00    +0.000 F 
ATOM     20  F   UNL     1       7.692   7.024  18.351  0.00  0.00    +0.000 F 
ENDBRANCH  16  17
ENDBRANCH   3  11
BRANCH   7  21
ATOM     21  C   UNL     1       0.270   9.686  20.467  0.00  0.00    +0.000 A 
ATOM     22  C   UNL     1      -0.670  10.477  19.820  0.00  0.00    +0.000 A 
ATOM     23  C   UNL     1      -1.218  11.340  20.808  0.00  0.00    +0.000 A 
ATOM     24  N   UNL     1      -0.660  11.093  21.999  0.00  0.00    +0.000 NA
ATOM     25  N   UNL     1       0.222  10.102  21.777  0.00  0.00    +0.000 N 
ATOM     26  C   UNL     1       0.994   9.611  22.899  0.00  0.00    +0.000 C 
BRANCH  23  27
ATOM     27  C   UNL     1      -2.282  12.436  20.689  0.00  0.00    +0.000 C 
ATOM     28  C   UNL     1      -3.013  12.637  22.030  0.00  0.00    +0.000 C 
ATOM     29  C   UNL     1      -1.658  13.799  20.297  0.00  0.00    +0.000 C 
ATOM     30  C   UNL     1      -3.314  12.081  19.600  0.00  0.00    +0.000 C 
ENDBRANCH  23  27
BRANCH  22  31
ATOM     31  C   UNL     1      -0.994  10.410  18.435  0.00  0.00    +0.000 C 
ATOM     32  N   UNL     1      -1.185  10.310  17.294  0.00  0.00    +0.000 NA
ENDBRANCH  22  31
ENDBRANCH   7  21
BRANCH   1  33
ATOM     33  O   UNL     1       2.248   4.596  20.923  0.00  0.00    +0.000 OA
BRANCH  33  34
ATOM     34  C   UNL     1       1.130   3.842  20.459  0.00  0.00    +0.000 C 
BRANCH  34  35
ATOM     35  C   UNL     1       1.605   2.405  20.252  0.00  0.00    +0.000 C 
BRANCH  35  37
ATOM     36  C   UNL     1       3.110   1.714  18.580  0.00  0.00    +0.000 C 
ATOM     37  O   UNL     1       1.783   2.141  18.863  0.00  0.00    +0.000 OA
ENDBRANCH  35  37
ENDBRANCH  34  35
ENDBRANCH  33  34
ENDBRANCH   1  33
TORSDOF 9
ENDMDL
MODEL 6
REMARK VINA RESULT:      -8.1      1.119      2.179
REMARK  Name = 
REMARK  14 active torsions:
REMARK  status: ('A' for Active; 'I' for Inactive)
REMARK    1  A    between atoms: C_1  and  O_2
REMARK    2  A    between atoms: O_2  and  C_3
REMARK    3  A    between atoms: C_3  and  C_4
REMARK    4  A    between atoms: C_4  and  O_5
REMARK    5  A    between atoms: O_5  and  C_6
REMARK    6  A    between atoms: C_8  and  C_9
REMARK    7  A    between atoms: C_14  and  C_15
REMARK    8  A    between atoms: C_22  and  C_23
REMARK    9  A    between atoms: C_24  and  C_25
REMARK   10  A    between atoms: C_27  and  C_28
REMARK   11  A    between atoms: C_28  and  C_29
REMARK   12  A    between atoms: C_28  and  C_30
REMARK   13  A    between atoms: C_28  and  C_31
REMARK   14  A    between atoms: N_33  and  C_34
REMARK                            x       y       z     vdW  Elec       q    Type
REMARK                         _______ _______ _______ _____ _____    ______ ____
ROOT
ATOM      1  C   UNL     1       2.858   5.608  19.935  0.00  0.00    +0.000 A 
ATOM      2  N   UNL     1       3.774   5.232  19.005  0.00  0.00    +0.000 NA
ATOM      3  C   UNL     1       4.015   6.021  17.925  0.00  0.00    +0.000 A 
ATOM      4  C   UNL     1       3.424   7.281  17.773  0.00  0.00    +0.000 A 
ATOM      5  C   UNL     1       2.536   7.695  18.765  0.00  0.00    +0.000 A 
ATOM      6  N   UNL     1       1.822   8.859  18.889  0.00  0.00    +0.000 NA
ATOM      7  C   UNL     1       1.100   8.736  19.988  0.00  0.00    +0.000 A 
ATOM      8  N   UNL     1       1.317   7.503  20.563  0.00  0.00    +0.000 N 
ATOM      9  C   UNL     1       2.257   6.843  19.809  0.00  0.00    +0.000 A 
ATOM     10  H   UNL     1       0.890   7.136  21.395  0.00  0.00    +0.000 HD
ENDROOT
BRANCH   3  11
ATOM     11  C   UNL     1       4.934   5.478  16.888  0.00  0.00    +0.000 A 
ATOM     12  C   UNL     1       4.475   4.409  16.070  0.00  0.00    +0.000 A 
ATOM     13  C   UNL     1       5.283   3.780  15.116  0.00  0.00    +0.000 A 
ATOM     14  C   UNL     1       6.578   4.220  14.919  0.00  0.00    +0.000 A 
ATOM     15  C   UNL     1       7.054   5.284  15.677  0.00  0.00    +0.000 A 
ATOM     16  C   UNL     1       6.265   5.918  16.677  0.00  0.00    +0.000 A 
BRANCH  16  17
ATOM     17  C   UNL     1       6.993   7.012  17.437  0.00  0.00    +0.000 C 
ATOM     18  F   UNL     1       6.362   8.190  17.653  0.00  0.00    +0.000 F 
ATOM     19  F   UNL     1       7.318   6.582  18.700  0.00  0.00    +0.000 F 
ATOM     20  F   UNL     1       8.193   7.317  16.858  0.00  0.00    +0.000 F 
ENDBRANCH  16  17
ENDBRANCH   3  11
BRANCH   7  21
ATOM     21  C   UNL     1       0.224   9.754  20.490  0.00  0.00    +0.000 A 
ATOM     22  C   UNL     1      -0.709  10.575  19.870  0.00  0.00    +0.000 A 
ATOM     23  C   UNL     1      -1.266  11.392  20.890  0.00  0.00    +0.000 A 
ATOM     24  N   UNL     1      -0.721  11.091  22.075  0.00  0.00    +0.000 NA
ATOM     25  N   UNL     1       0.163  10.110  21.817  0.00  0.00    +0.000 N 
ATOM     26  C   UNL     1       0.923   9.568  22.924  0.00  0.00    +0.000 C 
BRANCH  23  27
ATOM     27  C   UNL     1      -2.329  12.494  20.811  0.00  0.00    +0.000 C 
ATOM     28  C   UNL     1      -1.695  13.837  20.402  0.00  0.00    +0.000 C 
ATOM     29  C   UNL     1      -3.419  12.161  19.760  0.00  0.00    +0.000 C 
ATOM     30  C   UNL     1      -3.044  12.663  22.165  0.00  0.00    +0.000 C 
ENDBRANCH  23  27
BRANCH  22  31
ATOM     31  C   UNL     1      -1.018  10.571  18.481  0.00  0.00    +0.000 C 
ATOM     32  N   UNL     1      -1.269  10.481  17.350  0.00  0.00    +0.000 NA
ENDBRANCH  22  31
ENDBRANCH   7  21
BRANCH   1  33
ATOM     33  O   UNL     1       2.435   4.758  20.926  0.00  0.00    +0.000 OA
BRANCH  33  34
ATOM     34  C   UNL     1       2.707   3.382  20.673  0.00  0.00    +0.000 C 
BRANCH  34  35
ATOM     35  C   UNL     1       1.400   2.738  20.211  0.00  0.00    +0.000 C 
BRANCH  35  37
ATOM     36  C   UNL     1       2.890   1.844  18.625  0.00  0.00    +0.000 C 
ATOM     37  O   UNL     1       1.545   2.223  18.891  0.00  0.00    +0.000 OA
ENDBRANCH  35  37
ENDBRANCH  34  35
ENDBRANCH  33  34
ENDBRANCH   1  33
TORSDOF 9
ENDMDL
MODEL 7
REMARK VINA RESULT:      -8.0      3.415      4.878
REMARK  Name = 
REMARK  14 active torsions:
REMARK  status: ('A' for Active; 'I' for Inactive)
REMARK    1  A    between atoms: C_1  and  O_2
REMARK    2  A    between atoms: O_2  and  C_3
REMARK    3  A    between atoms: C_3  and  C_4
REMARK    4  A    between atoms: C_4  and  O_5
REMARK    5  A    between atoms: O_5  and  C_6
REMARK    6  A    between atoms: C_8  and  C_9
REMARK    7  A    between atoms: C_14  and  C_15
REMARK    8  A    between atoms: C_22  and  C_23
REMARK    9  A    between atoms: C_24  and  C_25
REMARK   10  A    between atoms: C_27  and  C_28
REMARK   11  A    between atoms: C_28  and  C_29
REMARK   12  A    between atoms: C_28  and  C_30
REMARK   13  A    between atoms: C_28  and  C_31
REMARK   14  A    between atoms: N_33  and  C_34
REMARK                            x       y       z     vdW  Elec       q    Type
REMARK                         _______ _______ _______ _____ _____    ______ ____
ROOT
ATOM      1  C   UNL     1       1.624   8.312  20.573  0.00  0.00    +0.000 A 
ATOM      2  N   UNL     1       2.065   7.169  19.985  0.00  0.00    +0.000 NA
ATOM      3  C   UNL     1       2.299   7.135  18.646  0.00  0.00    +0.000 A 
ATOM      4  C   UNL     1       2.201   8.277  17.842  0.00  0.00    +0.000 A 
ATOM      5  C   UNL     1       1.816   9.465  18.461  0.00  0.00    +0.000 A 
ATOM      6  N   UNL     1       1.644  10.723  17.942  0.00  0.00    +0.000 NA
ATOM      7  C   UNL     1       1.234  11.483  18.940  0.00  0.00    +0.000 A 
ATOM      8  N   UNL     1       1.114  10.733  20.091  0.00  0.00    +0.000 N 
ATOM      9  C   UNL     1       1.515   9.451  19.804  0.00  0.00    +0.000 A 
ATOM     10  H   UNL     1       0.809  11.050  20.994  0.00  0.00    +0.000 HD
ENDROOT
BRANCH   3  11
ATOM     11  C   UNL     1       2.652   5.815  18.059  0.00  0.00    +0.000 A 
ATOM     12  C   UNL     1       1.771   4.719  18.276  0.00  0.00    +0.000 A 
ATOM     13  C   UNL     1       2.045   3.422  17.830  0.00  0.00    +0.000 A 
ATOM     14  C   UNL     1       3.203   3.174  17.116  0.00  0.00    +0.000 A 
ATOM     15  C   UNL     1       4.075   4.225  16.855  0.00  0.00    +0.000 A 
ATOM     16  C   UNL     1       3.836   5.546  17.328  0.00  0.00    +0.000 A 
BRANCH  16  17
ATOM     17  C   UNL     1       4.942   6.531  16.994  0.00  0.00    +0.000 C 
ATOM     18  F   UNL     1       5.356   7.399  17.946  0.00  0.00    +0.000 F 
ATOM     19  F   UNL     1       6.089   5.861  16.645  0.00  0.00    +0.000 F 
ATOM     20  F   UNL     1       4.636   7.282  15.894  0.00  0.00    +0.000 F 
ENDBRANCH  16  17
ENDBRANCH   3  11
BRANCH   7  21
ATOM     21  C   UNL     1       0.959  12.885  18.821  0.00  0.00    +0.000 A 
ATOM     22  C   UNL     1       1.785  13.989  18.660  0.00  0.00    +0.000 A 
ATOM     23  C   UNL     1       0.933  15.126  18.611  0.00  0.00    +0.000 A 
ATOM     24  N   UNL     1      -0.347  14.749  18.724  0.00  0.00    +0.000 NA
ATOM     25  N   UNL     1      -0.312  13.410  18.845  0.00  0.00    +0.000 N 
ATOM     26  C   UNL     1      -1.568  12.705  18.987  0.00  0.00    +0.000 C 
BRANCH  23  27
ATOM     27  C   UNL     1       1.268  16.613  18.460  0.00  0.00    +0.000 C 
ATOM     28  C   UNL     1       1.826  17.185  19.777  0.00  0.00    +0.000 C 
ATOM     29  C   UNL     1       2.341  16.849  17.366  0.00  0.00    +0.000 C 
ATOM     30  C   UNL     1       0.019  17.417  18.048  0.00  0.00    +0.000 C 
ENDBRANCH  23  27
BRANCH  22  31
ATOM     31  C   UNL     1       3.205  13.953  18.567  0.00  0.00    +0.000 C 
ATOM     32  N   UNL     1       4.361  14.005  18.462  0.00  0.00    +0.000 NA
ENDBRANCH  22  31
ENDBRANCH   7  21
BRANCH   1  33
ATOM     33  O   UNL     1       1.183   8.339  21.872  0.00  0.00    +0.000 OA
BRANCH  33  34
ATOM     34  C   UNL     1      -0.194   8.680  22.017  0.00  0.00    +0.000 C 
BRANCH  34  35
ATOM     35  C   UNL     1      -0.314   9.565  23.257  0.00  0.00    +0.000 C 
BRANCH  35  37
ATOM     36  C   UNL     1      -1.354  11.599  22.694  0.00  0.00    +0.000 C 
ATOM     37  O   UNL     1      -0.116  10.932  22.908  0.00  0.00    +0.000 OA
ENDBRANCH  35  37
ENDBRANCH  34  35
ENDBRANCH  33  34
ENDBRANCH   1  33
TORSDOF 9
ENDMDL
MODEL 8
REMARK VINA RESULT:      -8.0      1.550      1.841
REMARK  Name = 
REMARK  14 active torsions:
REMARK  status: ('A' for Active; 'I' for Inactive)
REMARK    1  A    between atoms: C_1  and  O_2
REMARK    2  A    between atoms: O_2  and  C_3
REMARK    3  A    between atoms: C_3  and  C_4
REMARK    4  A    between atoms: C_4  and  O_5
REMARK    5  A    between atoms: O_5  and  C_6
REMARK    6  A    between atoms: C_8  and  C_9
REMARK    7  A    between atoms: C_14  and  C_15
REMARK    8  A    between atoms: C_22  and  C_23
REMARK    9  A    between atoms: C_24  and  C_25
REMARK   10  A    between atoms: C_27  and  C_28
REMARK   11  A    between atoms: C_28  and  C_29
REMARK   12  A    between atoms: C_28  and  C_30
REMARK   13  A    between atoms: C_28  and  C_31
REMARK   14  A    between atoms: N_33  and  C_34
REMARK                            x       y       z     vdW  Elec       q    Type
REMARK                         _______ _______ _______ _____ _____    ______ ____
ROOT
ATOM      1  C   UNL     1       2.677   6.491  19.493  0.00  0.00    +0.000 A 
ATOM      2  N   UNL     1       3.678   5.913  18.778  0.00  0.00    +0.000 NA
ATOM      3  C   UNL     1       4.140   6.505  17.646  0.00  0.00    +0.000 A 
ATOM      4  C   UNL     1       3.692   7.764  17.226  0.00  0.00    +0.000 A 
ATOM      5  C   UNL     1       2.715   8.387  18.001  0.00  0.00    +0.000 A 
ATOM      6  N   UNL     1       2.099   9.603  17.845  0.00  0.00    +0.000 NA
ATOM      7  C   UNL     1       1.222   9.702  18.826  0.00  0.00    +0.000 A 
ATOM      8  N   UNL     1       1.242   8.560  19.599  0.00  0.00    +0.000 N 
ATOM      9  C   UNL     1       2.215   7.729  19.100  0.00  0.00    +0.000 A 
ATOM     10  H   UNL     1       0.670   8.358  20.400  0.00  0.00    +0.000 HD
ENDROOT
BRANCH   3  11
ATOM     11  C   UNL     1       5.143   5.746  16.851  0.00  0.00    +0.000 A 
ATOM     12  C   UNL     1       4.749   5.219  15.590  0.00  0.00    +0.000 A 
ATOM     13  C   UNL     1       5.590   4.431  14.798  0.00  0.00    +0.000 A 
ATOM     14  C   UNL     1       6.879   4.166  15.223  0.00  0.00    +0.000 A 
ATOM     15  C   UNL     1       7.313   4.690  16.436  0.00  0.00    +0.000 A 
ATOM     16  C   UNL     1       6.465   5.465  17.276  0.00  0.00    +0.000 A 
BRANCH  16  17
ATOM     17  C   UNL     1       7.110   5.884  18.584  0.00  0.00    +0.000 C 
ATOM     18  F   UNL     1       6.419   5.718  19.737  0.00  0.00    +0.000 F 
ATOM     19  F   UNL     1       8.268   5.178  18.796  0.00  0.00    +0.000 F 
ATOM     20  F   UNL     1       7.506   7.192  18.557  0.00  0.00    +0.000 F 
ENDBRANCH  16  17
ENDBRANCH   3  11
BRANCH   7  21
ATOM     21  C   UNL     1       0.379  10.843  19.037  0.00  0.00    +0.000 A 
ATOM     22  C   UNL     1       0.552  12.009  19.770  0.00  0.00    +0.000 A 
ATOM     23  C   UNL     1      -0.638  12.768  19.605  0.00  0.00    +0.000 A 
ATOM     24  N   UNL     1      -1.495  12.117  18.808  0.00  0.00    +0.000 NA
ATOM     25  N   UNL     1      -0.869  10.973  18.478  0.00  0.00    +0.000 N 
ATOM     26  C   UNL     1      -1.561  10.045  17.608  0.00  0.00    +0.000 C 
BRANCH  23  27
ATOM     27  C   UNL     1      -1.035  14.131  20.182  0.00  0.00    +0.000 C 
ATOM     28  C   UNL     1      -2.568  14.259  20.278  0.00  0.00    +0.000 C 
ATOM     29  C   UNL     1      -0.467  14.335  21.610  0.00  0.00    +0.000 C 
ATOM     30  C   UNL     1      -0.486  15.276  19.309  0.00  0.00    +0.000 C 
ENDBRANCH  23  27
BRANCH  22  31
ATOM     31  C   UNL     1       1.709  12.345  20.529  0.00  0.00    +0.000 C 
ATOM     32  N   UNL     1       2.636  12.704  21.130  0.00  0.00    +0.000 NA
ENDBRANCH  22  31
ENDBRANCH   7  21
BRANCH   1  33
ATOM     33  O   UNL     1       2.043   5.836  20.519  0.00  0.00    +0.000 OA
BRANCH  33  34
ATOM     34  C   UNL     1       2.459   4.484  20.698  0.00  0.00    +0.000 C 
BRANCH  34  35
ATOM     35  C   UNL     1       1.196   3.631  20.805  0.00  0.00    +0.000 C 
BRANCH  35  37
ATOM     36  C   UNL     1       2.351   2.411  19.158  0.00  0.00    +0.000 C 
ATOM     37  O   UNL     1       1.076   2.783  19.665  0.00  0.00    +0.000 OA
ENDBRANCH  35  37
ENDBRANCH  34  35
ENDBRANCH  33  34
ENDBRANCH   1  33
TORSDOF 9
ENDMDL
MODEL 9
REMARK VINA RESULT:      -8.0      2.318      2.927
REMARK  Name = 
REMARK  14 active torsions:
REMARK  status: ('A' for Active; 'I' for Inactive)
REMARK    1  A    between atoms: C_1  and  O_2
REMARK    2  A    between atoms: O_2  and  C_3
REMARK    3  A    between atoms: C_3  and  C_4
REMARK    4  A    between atoms: C_4  and  O_5
REMARK    5  A    between atoms: O_5  and  C_6
REMARK    6  A    between atoms: C_8  and  C_9
REMARK    7  A    between atoms: C_14  and  C_15
REMARK    8  A    between atoms: C_22  and  C_23
REMARK    9  A    between atoms: C_24  and  C_25
REMARK   10  A    between atoms: C_27  and  C_28
REMARK   11  A    between atoms: C_28  and  C_29
REMARK   12  A    between atoms: C_28  and  C_30
REMARK   13  A    between atoms: C_28  and  C_31
REMARK   14  A    between atoms: N_33  and  C_34
REMARK                            x       y       z     vdW  Elec       q    Type
REMARK                         _______ _______ _______ _____ _____    ______ ____
ROOT
ATOM      1  C   UNL     1       2.284   6.899  19.883  0.00  0.00    +0.000 A 
ATOM      2  N   UNL     1       3.188   6.234  19.117  0.00  0.00    +0.000 NA
ATOM      3  C   UNL     1       3.575   6.743  17.918  0.00  0.00    +0.000 A 
ATOM      4  C   UNL     1       3.152   8.000  17.469  0.00  0.00    +0.000 A 
ATOM      5  C   UNL     1       2.279   8.713  18.290  0.00  0.00    +0.000 A 
ATOM      6  N   UNL     1       1.710   9.949  18.121  0.00  0.00    +0.000 NA
ATOM      7  C   UNL     1       0.929  10.144  19.167  0.00  0.00    +0.000 A 
ATOM      8  N   UNL     1       0.963   9.044  19.997  0.00  0.00    +0.000 N 
ATOM      9  C   UNL     1       1.848   8.139  19.463  0.00  0.00    +0.000 A 
ATOM     10  H   UNL     1       0.456   8.913  20.854  0.00  0.00    +0.000 HD
ENDROOT
BRANCH   3  11
ATOM     11  C   UNL     1       4.466   5.893  17.083  0.00  0.00    +0.000 A 
ATOM     12  C   UNL     1       5.598   6.497  16.470  0.00  0.00    +0.000 A 
ATOM     13  C   UNL     1       6.457   5.805  15.610  0.00  0.00    +0.000 A 
ATOM     14  C   UNL     1       6.236   4.465  15.353  0.00  0.00    +0.000 A 
ATOM     15  C   UNL     1       5.157   3.829  15.959  0.00  0.00    +0.000 A 
ATOM     16  C   UNL     1       4.249   4.519  16.810  0.00  0.00    +0.000 A 
BRANCH  16  17
ATOM     17  C   UNL     1       3.103   3.661  17.315  0.00  0.00    +0.000 C 
ATOM     18  F   UNL     1       1.847   4.163  17.288  0.00  0.00    +0.000 F 
ATOM     19  F   UNL     1       3.007   2.508  16.575  0.00  0.00    +0.000 F 
ATOM     20  F   UNL     1       3.319   3.230  18.594  0.00  0.00    +0.000 F 
ENDBRANCH  16  17
ENDBRANCH   3  11
BRANCH   7  21
ATOM     21  C   UNL     1       0.165  11.337  19.386  0.00  0.00    +0.000 A 
ATOM     22  C   UNL     1       0.477  12.551  19.983  0.00  0.00    +0.000 A 
ATOM     23  C   UNL     1      -0.697  13.349  19.911  0.00  0.00    +0.000 A 
ATOM     24  N   UNL     1      -1.677  12.675  19.297  0.00  0.00    +0.000 NA
ATOM     25  N   UNL     1      -1.144  11.479  18.989  0.00  0.00    +0.000 N 
ATOM     26  C   UNL     1      -1.980  10.515  18.306  0.00  0.00    +0.000 C 
BRANCH  23  27
ATOM     27  C   UNL     1      -0.963  14.772  20.413  0.00  0.00    +0.000 C 
ATOM     28  C   UNL     1      -0.416  15.814  19.419  0.00  0.00    +0.000 C 
ATOM     29  C   UNL     1      -2.480  15.045  20.577  0.00  0.00    +0.000 C 
ATOM     30  C   UNL     1      -0.312  14.997  21.791  0.00  0.00    +0.000 C 
ENDBRANCH  23  27
BRANCH  22  31
ATOM     31  C   UNL     1       1.738  12.895  20.548  0.00  0.00    +0.000 C 
ATOM     32  N   UNL     1       2.745  13.126  21.078  0.00  0.00    +0.000 NA
ENDBRANCH  22  31
ENDBRANCH   7  21
BRANCH   1  33
ATOM     33  O   UNL     1       1.713   6.332  20.995  0.00  0.00    +0.000 OA
BRANCH  33  34
ATOM     34  C   UNL     1       1.978   4.939  21.144  0.00  0.00    +0.000 C 
BRANCH  34  35
ATOM     35  C   UNL     1       0.850   4.184  20.442  0.00  0.00    +0.000 C 
BRANCH  35  37
ATOM     36  C   UNL     1       1.920   2.504  21.694  0.00  0.00    +0.000 C 
ATOM     37  O   UNL     1       0.986   2.782  20.658  0.00  0.00    +0.000 OA
ENDBRANCH  35  37
ENDBRANCH  34  35
ENDBRANCH  33  34
ENDBRANCH   1  33
TORSDOF 9
ENDMDL
