MODEL 1
REMARK VINA RESULT:      -7.0      0.000      0.000
REMARK  Name = 
REMARK  9 active torsions:
REMARK  status: ('A' for Active; 'I' for Inactive)
REMARK    1  A    between atoms: C_1  and  C_2
REMARK    2  A    between atoms: C_2  and  C_3
REMARK    3  A    between atoms: C_3  and  C_4
REMARK    4  A    between atoms: C_4  and  C_5
REMARK    5  A    between atoms: C_5  and  O_6
REMARK    6  A    between atoms: O_6  and  C_7
REMARK    7  A    between atoms: C_7  and  O_8
REMARK    8  A    between atoms: C_10  and  C_11
REMARK    9  A    between atoms: C_18  and  C_19
REMARK                            x       y       z     vdW  Elec       q    Type
REMARK                         _______ _______ _______ _____ _____    ______ ____
ROOT
ATOM      1  C   UNL     1       2.252   6.632  20.213  0.00  0.00    +0.000 C 
ATOM      2  C   UNL     1       3.036   6.518  19.117  0.00  0.00    +0.000 C 
ATOM      3  C   UNL     1       3.079   7.491  17.961  0.00  0.00    +0.000 C 
ATOM      4  C   UNL     1       2.265   8.776  17.926  0.00  0.00    +0.000 C 
ATOM      5  N   UNL     1       3.839   7.369  16.916  0.00  0.00    +0.000 NA
ATOM      6  C   UNL     1       4.693   6.333  16.829  0.00  0.00    +0.000 A 
ATOM      7  N   UNL     1       5.588   6.077  15.900  0.00  0.00    +0.000 NA
ATOM      8  C   UNL     1       6.191   4.934  16.334  0.00  0.00    +0.000 A 
ATOM      9  N   UNL     1       5.742   4.450  17.497  0.00  0.00    +0.000 NA
ATOM     10  N   UNL     1       4.762   5.344  17.770  0.00  0.00    +0.000 N 
ATOM     11  C   UNL     1       3.879   5.248  18.924  0.00  0.00    +0.000 C 
ENDROOT
BRANCH  11  12
ATOM     12  C   UNL     1       2.994   4.007  18.767  0.00  0.00    +0.000 A 
ATOM     13  C   UNL     1       1.843   3.857  18.013  0.00  0.00    +0.000 A 
ATOM     14  C   UNL     1       1.177   2.625  18.278  0.00  0.00    +0.000 A 
ATOM     15  C   UNL     1       1.864   1.853  19.187  0.00  0.00    +0.000 A 
ATOM     16  S   UNL     1       3.333   2.581  19.666  0.00  0.00    +0.000 S 
ENDBRANCH  11  12
BRANCH   1  17
ATOM     17  O   UNL     1       2.368   5.711  21.229  0.00  0.00    +0.000 OA
ATOM     18  H   UNL     1       1.883   4.918  20.943  0.00  0.00    +0.000 HD
ENDBRANCH   1  17
BRANCH   1  19
ATOM     19  O   UNL     1       1.232   7.534  20.281  0.00  0.00    +0.000 OA
BRANCH  19  20
ATOM     20  C   UNL     1       1.201   8.413  21.404  0.00  0.00    +0.000 C 
BRANCH  20  21
ATOM     21  C   UNL     1      -0.272   8.734  21.646  0.00  0.00    +0.000 C 
BRANCH  21  22
ATOM     22  C   UNL     1      -0.487   9.564  22.904  0.00  0.00    +0.000 C 
BRANCH  22  24
ATOM     23  C   UNL     1      -1.923  11.611  23.168  0.00  0.00    +0.000 C 
ATOM     24  C   UNL     1      -0.650  11.045  22.563  0.00  0.00    +0.000 C 
ENDBRANCH  22  24
ENDBRANCH  21  22
ENDBRANCH  20  21
ENDBRANCH  19  20
ENDBRANCH   1  19
TORSDOF 7
ENDMDL
MODEL 2
REMARK VINA RESULT:      -6.9      1.252      1.601
REMARK  Name = 
REMARK  9 active torsions:
REMARK  status: ('A' for Active; 'I' for Inactive)
REMARK    1  A    between atoms: C_1  and  C_2
REMARK    2  A    between atoms: C_2  and  C_3
REMARK    3  A    between atoms: C_3  and  C_4
REMARK    4  A    between atoms: C_4  and  C_5
REMARK    5  A    between atoms: C_5  and  O_6
REMARK    6  A    between atoms: O_6  and  C_7
REMARK    7  A    between atoms: C_7  and  O_8
REMARK    8  A    between atoms: C_10  and  C_11
REMARK    9  A    between atoms: C_18  and  C_19
REMARK                            x       y       z     vdW  Elec       q    Type
REMARK                         _______ _______ _______ _____ _____    ______ ____
ROOT
ATOM      1  C   UNL     1       2.215   6.770  20.184  0.00  0.00    +0.000 C 
ATOM      2  C   UNL     1       3.025   6.555  19.123  0.00  0.00    +0.000 C 
ATOM      3  C   UNL     1       3.155   7.459  17.919  0.00  0.00    +0.000 C 
ATOM      4  C   UNL     1       2.411   8.780  17.786  0.00  0.00    +0.000 C 
ATOM      5  N   UNL     1       3.939   7.241  16.908  0.00  0.00    +0.000 NA
ATOM      6  C   UNL     1       4.741   6.160  16.907  0.00  0.00    +0.000 A 
ATOM      7  N   UNL     1       5.649   5.808  16.023  0.00  0.00    +0.000 NA
ATOM      8  C   UNL     1       6.178   4.661  16.539  0.00  0.00    +0.000 A 
ATOM      9  N   UNL     1       5.669   4.266  17.710  0.00  0.00    +0.000 NA
ATOM     10  N   UNL     1       4.728   5.223  17.901  0.00  0.00    +0.000 N 
ATOM     11  C   UNL     1       3.807   5.236  19.028  0.00  0.00    +0.000 C 
ENDROOT
BRANCH  11  12
ATOM     12  C   UNL     1       2.864   4.034  18.909  0.00  0.00    +0.000 A 
ATOM     13  C   UNL     1       1.730   3.900  18.125  0.00  0.00    +0.000 A 
ATOM     14  C   UNL     1       0.993   2.720  18.434  0.00  0.00    +0.000 A 
ATOM     15  C   UNL     1       1.609   1.967  19.407  0.00  0.00    +0.000 A 
ATOM     16  S   UNL     1       3.099   2.645  19.895  0.00  0.00    +0.000 S 
ENDBRANCH  11  12
BRANCH   1  17
ATOM     17  O   UNL     1       2.251   5.903  21.253  0.00  0.00    +0.000 OA
ATOM     18  H   UNL     1       2.524   6.425  22.027  0.00  0.00    +0.000 HD
ENDBRANCH   1  17
BRANCH   1  19
ATOM     19  O   UNL     1       1.242   7.725  20.169  0.00  0.00    +0.000 OA
BRANCH  19  20
ATOM     20  C   UNL     1       1.114   8.557  21.320  0.00  0.00    +0.000 C 
BRANCH  20  21
ATOM     21  C   UNL     1       0.730   9.939  20.800  0.00  0.00    +0.000 C 
BRANCH  21  22
ATOM     22  C   UNL     1      -0.603   9.936  20.065  0.00  0.00    +0.000 C 
BRANCH  22  24
ATOM     23  C   UNL     1      -1.453  10.173  17.711  0.00  0.00    +0.000 C 
ATOM     24  C   UNL     1      -0.514  10.734  18.765  0.00  0.00    +0.000 C 
ENDBRANCH  22  24
ENDBRANCH  21  22
ENDBRANCH  20  21
ENDBRANCH  19  20
ENDBRANCH   1  19
TORSDOF 7
ENDMDL
MODEL 3
REMARK VINA RESULT:      -6.8      1.977      2.369
REMARK  Name = 
REMARK  9 active torsions:
REMARK  status: ('A' for Active; 'I' for Inactive)
REMARK    1  A    between atoms: C_1  and  C_2
REMARK    2  A    between atoms: C_2  and  C_3
REMARK    3  A    between atoms: C_3  and  C_4
REMARK    4  A    between atoms: C_4  and  C_5
REMARK    5  A    between atoms: C_5  and  O_6
REMARK    6  A    between atoms: O_6  and  C_7
REMARK    7  A    between atoms: C_7  and  O_8
REMARK    8  A    between atoms: C_10  and  C_11
REMARK    9  A    between atoms: C_18  and  C_19
REMARK                            x       y       z     vdW  Elec       q    Type
REMARK                         _______ _______ _______ _____ _____    ______ ____
ROOT
ATOM      1  C   UNL     1       1.805   7.697  20.307  0.00  0.00    +0.000 C 
ATOM      2  C   UNL     1       2.674   7.162  19.421  0.00  0.00    +0.000 C 
ATOM      3  C   UNL     1       2.962   7.700  18.038  0.00  0.00    +0.000 C 
ATOM      4  C   UNL     1       2.332   8.973  17.493  0.00  0.00    +0.000 C 
ATOM      5  N   UNL     1       3.803   7.176  17.198  0.00  0.00    +0.000 NA
ATOM      6  C   UNL     1       4.518   6.095  17.556  0.00  0.00    +0.000 A 
ATOM      7  N   UNL     1       5.462   5.471  16.886  0.00  0.00    +0.000 NA
ATOM      8  C   UNL     1       5.863   4.479  17.733  0.00  0.00    +0.000 A 
ATOM      9  N   UNL     1       5.238   4.442  18.914  0.00  0.00    +0.000 NA
ATOM     10  N   UNL     1       4.360   5.463  18.758  0.00  0.00    +0.000 N 
ATOM     11  C   UNL     1       3.360   5.827  19.751  0.00  0.00    +0.000 C 
ENDROOT
BRANCH  11  12
ATOM     12  C   UNL     1       2.340   4.688  19.865  0.00  0.00    +0.000 A 
ATOM     13  C   UNL     1       1.963   3.976  20.991  0.00  0.00    +0.000 A 
ATOM     14  C   UNL     1       1.144   2.853  20.674  0.00  0.00    +0.000 A 
ATOM     15  C   UNL     1       0.883   2.770  19.325  0.00  0.00    +0.000 A 
ATOM     16  S   UNL     1       1.564   4.075  18.459  0.00  0.00    +0.000 S 
ENDBRANCH  11  12
BRANCH   1  17
ATOM     17  O   UNL     1       1.694   7.149  21.565  0.00  0.00    +0.000 OA
ATOM     18  H   UNL     1       2.479   6.588  21.694  0.00  0.00    +0.000 HD
ENDBRANCH   1  17
BRANCH   1  19
ATOM     19  O   UNL     1       0.910   8.662  19.950  0.00  0.00    +0.000 OA
BRANCH  19  20
ATOM     20  C   UNL     1       0.677   9.722  20.874  0.00  0.00    +0.000 C 
BRANCH  20  21
ATOM     21  C   UNL     1      -0.522  10.496  20.333  0.00  0.00    +0.000 C 
BRANCH  21  22
ATOM     22  C   UNL     1      -0.577  10.495  18.812  0.00  0.00    +0.000 C 
BRANCH  22  24
ATOM     23  C   UNL     1      -2.022   9.886  16.847  0.00  0.00    +0.000 C 
ATOM     24  C   UNL     1      -2.006  10.271  18.316  0.00  0.00    +0.000 C 
ENDBRANCH  22  24
ENDBRANCH  21  22
ENDBRANCH  20  21
ENDBRANCH  19  20
ENDBRANCH   1  19
TORSDOF 7
ENDMDL
MODEL 4
REMARK VINA RESULT:      -6.7      2.922      5.007
REMARK  Name = 
REMARK  9 active torsions:
REMARK  status: ('A' for Active; 'I' for Inactive)
REMARK    1  A    between atoms: C_1  and  C_2
REMARK    2  A    between atoms: C_2  and  C_3
REMARK    3  A    between atoms: C_3  and  C_4
REMARK    4  A    between atoms: C_4  and  C_5
REMARK    5  A    between atoms: C_5  and  O_6
REMARK    6  A    between atoms: O_6  and  C_7
REMARK    7  A    between atoms: C_7  and  O_8
REMARK    8  A    between atoms: C_10  and  C_11
REMARK    9  A    between atoms: C_18  and  C_19
REMARK                            x       y       z     vdW  Elec       q    Type
REMARK                         _______ _______ _______ _____ _____    ______ ____
ROOT
ATOM      1  C   UNL     1       3.415   6.669  17.864  0.00  0.00    +0.000 C 
ATOM      2  C   UNL     1       4.108   5.841  17.050  0.00  0.00    +0.000 C 
ATOM      3  C   UNL     1       3.816   4.374  16.835  0.00  0.00    +0.000 C 
ATOM      4  C   UNL     1       2.643   3.655  17.484  0.00  0.00    +0.000 C 
ATOM      5  N   UNL     1       4.489   3.591  16.048  0.00  0.00    +0.000 NA
ATOM      6  C   UNL     1       5.507   4.089  15.323  0.00  0.00    +0.000 A 
ATOM      7  N   UNL     1       6.253   3.484  14.424  0.00  0.00    +0.000 NA
ATOM      8  C   UNL     1       7.094   4.464  13.985  0.00  0.00    +0.000 A 
ATOM      9  N   UNL     1       6.920   5.666  14.543  0.00  0.00    +0.000 NA
ATOM     10  N   UNL     1       5.925   5.386  15.419  0.00  0.00    +0.000 N 
ATOM     11  C   UNL     1       5.380   6.356  16.359  0.00  0.00    +0.000 C 
ENDROOT
BRANCH  11  12
ATOM     12  C   UNL     1       6.464   6.716  17.380  0.00  0.00    +0.000 A 
ATOM     13  C   UNL     1       7.255   7.851  17.437  0.00  0.00    +0.000 A 
ATOM     14  C   UNL     1       8.295   7.741  18.405  0.00  0.00    +0.000 A 
ATOM     15  C   UNL     1       8.238   6.548  19.089  0.00  0.00    +0.000 A 
ATOM     16  S   UNL     1       6.900   5.599  18.613  0.00  0.00    +0.000 S 
ENDBRANCH  11  12
BRANCH   1  17
ATOM     17  O   UNL     1       3.741   8.006  17.909  0.00  0.00    +0.000 OA
ATOM     18  H   UNL     1       3.309   8.424  17.144  0.00  0.00    +0.000 HD
ENDBRANCH   1  17
BRANCH   1  19
ATOM     19  O   UNL     1       2.509   6.202  18.769  0.00  0.00    +0.000 OA
BRANCH  19  20
ATOM     20  C   UNL     1       2.056   7.104  19.777  0.00  0.00    +0.000 C 
BRANCH  20  21
ATOM     21  C   UNL     1       1.591   6.234  20.942  0.00  0.00    +0.000 C 
BRANCH  21  22
ATOM     22  C   UNL     1       2.229   4.852  20.928  0.00  0.00    +0.000 C 
BRANCH  22  24
ATOM     23  C   UNL     1       1.509   2.546  21.625  0.00  0.00    +0.000 C 
ATOM     24  C   UNL     1       1.169   3.761  20.779  0.00  0.00    +0.000 C 
ENDBRANCH  22  24
ENDBRANCH  21  22
ENDBRANCH  20  21
ENDBRANCH  19  20
ENDBRANCH   1  19
TORSDOF 7
ENDMDL
MODEL 5
REMARK VINA RESULT:      -6.7      1.460      1.839
REMARK  Name = 
REMARK  9 active torsions:
REMARK  status: ('A' for Active; 'I' for Inactive)
REMARK    1  A    between atoms: C_1  and  C_2
REMARK    2  A    between atoms: C_2  and  C_3
REMARK    3  A    between atoms: C_3  and  C_4
REMARK    4  A    between atoms: C_4  and  C_5
REMARK    5  A    between atoms: C_5  and  O_6
REMARK    6  A    between atoms: O_6  and  C_7
REMARK    7  A    between atoms: C_7  and  O_8
REMARK    8  A    between atoms: C_10  and  C_11
REMARK    9  A    between atoms: C_18  and  C_19
REMARK                            x       y       z     vdW  Elec       q    Type
REMARK                         _______ _______ _______ _____ _____    ______ ____
ROOT
ATOM      1  C   UNL     1       2.560   6.361  20.080  0.00  0.00    +0.000 C 
ATOM      2  C   UNL     1       3.428   6.335  19.044  0.00  0.00    +0.000 C 
ATOM      3  C   UNL     1       3.446   7.311  17.889  0.00  0.00    +0.000 C 
ATOM      4  C   UNL     1       2.502   8.500  17.789  0.00  0.00    +0.000 C 
ATOM      5  N   UNL     1       4.288   7.275  16.901  0.00  0.00    +0.000 NA
ATOM      6  C   UNL     1       5.254   6.339  16.880  0.00  0.00    +0.000 A 
ATOM      7  N   UNL     1       6.234   6.185  16.018  0.00  0.00    +0.000 NA
ATOM      8  C   UNL     1       6.927   5.113  16.500  0.00  0.00    +0.000 A 
ATOM      9  N   UNL     1       6.452   4.579  17.630  0.00  0.00    +0.000 NA
ATOM     10  N   UNL     1       5.362   5.361  17.829  0.00  0.00    +0.000 N 
ATOM     11  C   UNL     1       4.416   5.166  18.918  0.00  0.00    +0.000 C 
ENDROOT
BRANCH  11  12
ATOM     12  C   UNL     1       3.685   3.836  18.704  0.00  0.00    +0.000 A 
ATOM     13  C   UNL     1       3.912   2.616  19.319  0.00  0.00    +0.000 A 
ATOM     14  C   UNL     1       3.174   1.558  18.714  0.00  0.00    +0.000 A 
ATOM     15  C   UNL     1       2.373   2.008  17.690  0.00  0.00    +0.000 A 
ATOM     16  S   UNL     1       2.459   3.703  17.505  0.00  0.00    +0.000 S 
ENDBRANCH  11  12
BRANCH   1  17
ATOM     17  O   UNL     1       2.703   5.455  21.107  0.00  0.00    +0.000 OA
ATOM     18  H   UNL     1       3.657   5.385  21.286  0.00  0.00    +0.000 HD
ENDBRANCH   1  17
BRANCH   1  19
ATOM     19  O   UNL     1       1.445   7.146  20.071  0.00  0.00    +0.000 OA
BRANCH  19  20
ATOM     20  C   UNL     1       1.247   8.024  21.177  0.00  0.00    +0.000 C 
BRANCH  20  21
ATOM     21  C   UNL     1      -0.050   8.776  20.890  0.00  0.00    +0.000 C 
BRANCH  21  22
ATOM     22  C   UNL     1       0.180  10.045  20.081  0.00  0.00    +0.000 C 
BRANCH  22  24
ATOM     23  C   UNL     1      -1.015  10.140  17.872  0.00  0.00    +0.000 C 
ATOM     24  C   UNL     1      -1.095  10.469  19.352  0.00  0.00    +0.000 C 
ENDBRANCH  22  24
ENDBRANCH  21  22
ENDBRANCH  20  21
ENDBRANCH  19  20
ENDBRANCH   1  19
TORSDOF 7
ENDMDL
MODEL 6
REMARK VINA RESULT:      -6.7      2.541      4.159
REMARK  Name = 
REMARK  9 active torsions:
REMARK  status: ('A' for Active; 'I' for Inactive)
REMARK    1  A    between atoms: C_1  and  C_2
REMARK    2  A    between atoms: C_2  and  C_3
REMARK    3  A    between atoms: C_3  and  C_4
REMARK    4  A    between atoms: C_4  and  C_5
REMARK    5  A    between atoms: C_5  and  O_6
REMARK    6  A    between atoms: O_6  and  C_7
REMARK    7  A    between atoms: C_7  and  O_8
REMARK    8  A    between atoms: C_10  and  C_11
REMARK    9  A    between atoms: C_18  and  C_19
REMARK                            x       y       z     vdW  Elec       q    Type
REMARK                         _______ _______ _______ _____ _____    ______ ____
ROOT
ATOM      1  C   UNL     1       2.636   7.547  18.163  0.00  0.00    +0.000 C 
ATOM      2  C   UNL     1       2.716   6.251  18.538  0.00  0.00    +0.000 C 
ATOM      3  C   UNL     1       2.155   5.668  19.815  0.00  0.00    +0.000 C 
ATOM      4  C   UNL     1       1.364   6.486  20.824  0.00  0.00    +0.000 C 
ATOM      5  N   UNL     1       2.238   4.420  20.160  0.00  0.00    +0.000 NA
ATOM      6  C   UNL     1       2.827   3.536  19.334  0.00  0.00    +0.000 A 
ATOM      7  N   UNL     1       2.943   2.233  19.466  0.00  0.00    +0.000 NA
ATOM      8  C   UNL     1       3.588   1.845  18.328  0.00  0.00    +0.000 A 
ATOM      9  N   UNL     1       3.880   2.826  17.468  0.00  0.00    +0.000 NA
ATOM     10  N   UNL     1       3.415   3.898  18.154  0.00  0.00    +0.000 N 
ATOM     11  C   UNL     1       3.544   5.272  17.690  0.00  0.00    +0.000 C 
ENDROOT
BRANCH  11  12
ATOM     12  C   UNL     1       5.027   5.654  17.682  0.00  0.00    +0.000 A 
ATOM     13  C   UNL     1       5.795   6.119  16.628  0.00  0.00    +0.000 A 
ATOM     14  C   UNL     1       7.183   6.168  16.948  0.00  0.00    +0.000 A 
ATOM     15  C   UNL     1       7.427   5.786  18.247  0.00  0.00    +0.000 A 
ATOM     16  S   UNL     1       5.986   5.436  19.094  0.00  0.00    +0.000 S 
ENDBRANCH  11  12
BRANCH   1  17
ATOM     17  O   UNL     1       3.125   7.931  16.935  0.00  0.00    +0.000 OA
ATOM     18  H   UNL     1       4.094   7.948  17.013  0.00  0.00    +0.000 HD
ENDBRANCH   1  17
BRANCH   1  19
ATOM     19  O   UNL     1       2.235   8.525  19.025  0.00  0.00    +0.000 OA
BRANCH  19  20
ATOM     20  C   UNL     1       1.363   9.534  18.519  0.00  0.00    +0.000 C 
BRANCH  20  21
ATOM     21  C   UNL     1       0.416   9.884  19.664  0.00  0.00    +0.000 C 
BRANCH  21  22
ATOM     22  C   UNL     1      -0.957  10.319  19.171  0.00  0.00    +0.000 C 
BRANCH  22  24
ATOM     23  C   UNL     1      -2.610   9.950  17.313  0.00  0.00    +0.000 C 
ATOM     24  C   UNL     1      -1.139   9.986  17.690  0.00  0.00    +0.000 C 
ENDBRANCH  22  24
ENDBRANCH  21  22
ENDBRANCH  20  21
ENDBRANCH  19  20
ENDBRANCH   1  19
TORSDOF 7
ENDMDL
MODEL 7
REMARK VINA RESULT:      -6.7      2.128      3.801
REMARK  Name = 
REMARK  9 active torsions:
REMARK  status: ('A' for Active; 'I' for Inactive)
REMARK    1  A    between atoms: C_1  and  C_2
REMARK    2  A    between atoms: C_2  and  C_3
REMARK    3  A    between atoms: C_3  and  C_4
REMARK    4  A    between atoms: C_4  and  C_5
REMARK    5  A    between atoms: C_5  and  O_6
REMARK    6  A    between atoms: O_6  and  C_7
REMARK    7  A    between atoms: C_7  and  O_8
REMARK    8  A    between atoms: C_10  and  C_11
REMARK    9  A    between atoms: C_18  and  C_19
REMARK                            x       y       z     vdW  Elec       q    Type
REMARK                         _______ _______ _______ _____ _____    ______ ____
ROOT
ATOM      1  C   UNL     1       2.574   7.546  18.255  0.00  0.00    +0.000 C 
ATOM      2  C   UNL     1       2.664   6.241  18.600  0.00  0.00    +0.000 C 
ATOM      3  C   UNL     1       2.116   5.628  19.869  0.00  0.00    +0.000 C 
ATOM      4  C   UNL     1       1.328   6.418  20.902  0.00  0.00    +0.000 C 
ATOM      5  N   UNL     1       2.209   4.372  20.186  0.00  0.00    +0.000 NA
ATOM      6  C   UNL     1       2.797   3.511  19.336  0.00  0.00    +0.000 A 
ATOM      7  N   UNL     1       2.921   2.206  19.438  0.00  0.00    +0.000 NA
ATOM      8  C   UNL     1       3.559   1.847  18.287  0.00  0.00    +0.000 A 
ATOM      9  N   UNL     1       3.839   2.848  17.447  0.00  0.00    +0.000 NA
ATOM     10  N   UNL     1       3.373   3.902  18.160  0.00  0.00    +0.000 N 
ATOM     11  C   UNL     1       3.490   5.286  17.725  0.00  0.00    +0.000 C 
ENDROOT
BRANCH  11  12
ATOM     12  C   UNL     1       4.972   5.677  17.715  0.00  0.00    +0.000 A 
ATOM     13  C   UNL     1       5.730   6.164  16.663  0.00  0.00    +0.000 A 
ATOM     14  C   UNL     1       7.120   6.216  16.975  0.00  0.00    +0.000 A 
ATOM     15  C   UNL     1       7.374   5.814  18.266  0.00  0.00    +0.000 A 
ATOM     16  S   UNL     1       5.940   5.442  19.116  0.00  0.00    +0.000 S 
ENDBRANCH  11  12
BRANCH   1  17
ATOM     17  O   UNL     1       3.051   7.958  17.032  0.00  0.00    +0.000 OA
ATOM     18  H   UNL     1       2.397   8.584  16.674  0.00  0.00    +0.000 HD
ENDBRANCH   1  17
BRANCH   1  19
ATOM     19  O   UNL     1       2.174   8.502  19.141  0.00  0.00    +0.000 OA
BRANCH  19  20
ATOM     20  C   UNL     1       1.390   9.582  18.638  0.00  0.00    +0.000 C 
BRANCH  20  21
ATOM     21  C   UNL     1       0.288   9.817  19.668  0.00  0.00    +0.000 C 
BRANCH  21  22
ATOM     22  C   UNL     1       0.841  10.112  21.055  0.00  0.00    +0.000 C 
BRANCH  22  24
ATOM     23  C   UNL     1      -0.146   9.512  23.289  0.00  0.00    +0.000 C 
ATOM     24  C   UNL     1      -0.288  10.379  22.050  0.00  0.00    +0.000 C 
ENDBRANCH  22  24
ENDBRANCH  21  22
ENDBRANCH  20  21
ENDBRANCH  19  20
ENDBRANCH   1  19
TORSDOF 7
ENDMDL
MODEL 8
REMARK VINA RESULT:      -6.6      1.167      1.375
REMARK  Name = 
REMARK  9 active torsions:
REMARK  status: ('A' for Active; 'I' for Inactive)
REMARK    1  A    between atoms: C_1  and  C_2
REMARK    2  A    between atoms: C_2  and  C_3
REMARK    3  A    between atoms: C_3  and  C_4
REMARK    4  A    between atoms: C_4  and  C_5
REMARK    5  A    between atoms: C_5  and  O_6
REMARK    6  A    between atoms: O_6  and  C_7
REMARK    7  A    between atoms: C_7  and  O_8
REMARK    8  A    between atoms: C_10  and  C_11
REMARK    9  A    between atoms: C_18  and  C_19
REMARK                            x       y       z     vdW  Elec       q    Type
REMARK                         _______ _______ _______ _____ _____    ______ ____
ROOT
ATOM      1  C   UNL     1       2.669   6.366  19.982  0.00  0.00    +0.000 C 
ATOM      2  C   UNL     1       3.618   6.269  19.024  0.00  0.00    +0.000 C 
ATOM      3  C   UNL     1       3.766   7.193  17.837  0.00  0.00    +0.000 C 
ATOM      4  C   UNL     1       2.875   8.405  17.610  0.00  0.00    +0.000 C 
ATOM      5  N   UNL     1       4.684   7.088  16.925  0.00  0.00    +0.000 NA
ATOM      6  C   UNL     1       5.616   6.123  17.024  0.00  0.00    +0.000 A 
ATOM      7  N   UNL     1       6.659   5.901  16.254  0.00  0.00    +0.000 NA
ATOM      8  C   UNL     1       7.272   4.830  16.835  0.00  0.00    +0.000 A 
ATOM      9  N   UNL     1       6.686   4.361  17.942  0.00  0.00    +0.000 NA
ATOM     10  N   UNL     1       5.612   5.184  18.016  0.00  0.00    +0.000 N 
ATOM     11  C   UNL     1       4.573   5.065  19.029  0.00  0.00    +0.000 C 
ENDROOT
BRANCH  11  12
ATOM     12  C   UNL     1       3.817   3.751  18.809  0.00  0.00    +0.000 A 
ATOM     13  C   UNL     1       3.967   2.545  19.473  0.00  0.00    +0.000 A 
ATOM     14  C   UNL     1       3.237   1.489  18.854  0.00  0.00    +0.000 A 
ATOM     15  C   UNL     1       2.517   1.929  17.767  0.00  0.00    +0.000 A 
ATOM     16  S   UNL     1       2.666   3.615  17.538  0.00  0.00    +0.000 S 
ENDBRANCH  11  12
BRANCH   1  17
ATOM     17  O   UNL     1       2.695   5.501  21.053  0.00  0.00    +0.000 OA
ATOM     18  H   UNL     1       3.536   5.657  21.517  0.00  0.00    +0.000 HD
ENDBRANCH   1  17
BRANCH   1  19
ATOM     19  O   UNL     1       1.586   7.184  19.848  0.00  0.00    +0.000 OA
BRANCH  19  20
ATOM     20  C   UNL     1       1.325   8.112  20.899  0.00  0.00    +0.000 C 
BRANCH  20  21
ATOM     21  C   UNL     1       0.686   9.329  20.236  0.00  0.00    +0.000 C 
BRANCH  21  22
ATOM     22  C   UNL     1       0.322  10.414  21.239  0.00  0.00    +0.000 C 
BRANCH  22  24
ATOM     23  C   UNL     1      -1.220  10.781  23.191  0.00  0.00    +0.000 C 
ATOM     24  C   UNL     1      -0.272   9.809  22.511  0.00  0.00    +0.000 C 
ENDBRANCH  22  24
ENDBRANCH  21  22
ENDBRANCH  20  21
ENDBRANCH  19  20
ENDBRANCH   1  19
TORSDOF 7
ENDMDL
MODEL 9
REMARK VINA RESULT:      -6.6      3.394      5.258
REMARK  Name = 
REMARK  9 active torsions:
REMARK  status: ('A' for Active; 'I' for Inactive)
REMARK    1  A    between atoms: C_1  and  C_2
REMARK    2  A    between atoms: C_2  and  C_3
REMARK    3  A    between atoms: C_3  and  C_4
REMARK    4  A    between atoms: C_4  and  C_5
REMARK    5  A    between atoms: C_5  and  O_6
REMARK    6  A    between atoms: O_6  and  C_7
REMARK    7  A    between atoms: C_7  and  O_8
REMARK    8  A    between atoms: C_10  and  C_11
REMARK    9  A    between atoms: C_18  and  C_19
REMARK                            x       y       z     vdW  Elec       q    Type
REMARK                         _______ _______ _______ _____ _____    ______ ____
ROOT
ATOM      1  C   UNL     1       3.677   6.096  18.039  0.00  0.00    +0.000 C 
ATOM      2  C   UNL     1       4.324   5.404  17.075  0.00  0.00    +0.000 C 
ATOM      3  C   UNL     1       4.061   3.963  16.701  0.00  0.00    +0.000 C 
ATOM      4  C   UNL     1       2.968   3.123  17.344  0.00  0.00    +0.000 C 
ATOM      5  N   UNL     1       4.690   3.311  15.770  0.00  0.00    +0.000 NA
ATOM      6  C   UNL     1       5.629   3.936  15.036  0.00  0.00    +0.000 A 
ATOM      7  N   UNL     1       6.315   3.477  14.012  0.00  0.00    +0.000 NA
ATOM      8  C   UNL     1       7.086   4.538  13.635  0.00  0.00    +0.000 A 
ATOM      9  N   UNL     1       6.923   5.654  14.353  0.00  0.00    +0.000 NA
ATOM     10  N   UNL     1       6.013   5.228  15.262  0.00  0.00    +0.000 N 
ATOM     11  C   UNL     1       5.519   6.051  16.357  0.00  0.00    +0.000 C 
ENDROOT
BRANCH  11  12
ATOM     12  C   UNL     1       6.672   6.326  17.327  0.00  0.00    +0.000 A 
ATOM     13  C   UNL     1       7.193   5.500  18.308  0.00  0.00    +0.000 A 
ATOM     14  C   UNL     1       8.123   6.175  19.150  0.00  0.00    +0.000 A 
ATOM     15  C   UNL     1       8.319   7.480  18.759  0.00  0.00    +0.000 A 
ATOM     16  S   UNL     1       7.440   7.865  17.346  0.00  0.00    +0.000 S 
ENDBRANCH  11  12
BRANCH   1  17
ATOM     17  O   UNL     1       3.964   7.429  18.226  0.00  0.00    +0.000 OA
ATOM     18  H   UNL     1       4.686   7.648  17.612  0.00  0.00    +0.000 HD
ENDBRANCH   1  17
BRANCH   1  19
ATOM     19  O   UNL     1       2.863   5.485  18.946  0.00  0.00    +0.000 OA
BRANCH  19  20
ATOM     20  C   UNL     1       2.268   6.299  19.954  0.00  0.00    +0.000 C 
BRANCH  20  21
ATOM     21  C   UNL     1       1.531   5.342  20.887  0.00  0.00    +0.000 C 
BRANCH  21  22
ATOM     22  C   UNL     1       0.935   4.152  20.149  0.00  0.00    +0.000 C 
BRANCH  22  24
ATOM     23  C   UNL     1       2.555   2.812  21.528  0.00  0.00    +0.000 C 
ATOM     24  C   UNL     1       1.162   2.855  20.925  0.00  0.00    +0.000 C 
ENDBRANCH  22  24
ENDBRANCH  21  22
ENDBRANCH  20  21
ENDBRANCH  19  20
ENDBRANCH   1  19
TORSDOF 7
ENDMDL
