MODEL 1
REMARK VINA RESULT:      -6.7      0.000      0.000
REMARK  Name = 
REMARK  15 active torsions:
REMARK  status: ('A' for Active; 'I' for Inactive)
REMARK    1  A    between atoms: C_1  and  C_2
REMARK    2  A    between atoms: C_2  and  O_3
REMARK    3  A    between atoms: O_3  and  C_4
REMARK    4  A    between atoms: C_4  and  C_6
REMARK    5  A    between atoms: C_7  and  C_8
REMARK    6  A    between atoms: C_11  and  O_12
REMARK    7  A    between atoms: O_12  and  C_13
REMARK    8  A    between atoms: C_13  and  C_14
REMARK    9  A    between atoms: C_14  and  C_15
REMARK   10  A    between atoms: C_15  and  C_16
REMARK   11  A    between atoms: C_16  and  C_17
REMARK   12  A    between atoms: C_17  and  C_18
REMARK   13  A    between atoms: C_18  and  N_19
REMARK   14  A    between atoms: C_25  and  O_26
REMARK   15  A    between atoms: O_26  and  C_27
REMARK                            x       y       z     vdW  Elec       q    Type
REMARK                         _______ _______ _______ _____ _____    ______ ____
ROOT
ATOM      1  C   UNL     1       7.096   6.110  18.146  0.00  0.00    +0.000 A 
ATOM      2  C   UNL     1       6.325   5.495  19.127  0.00  0.00    +0.000 A 
ATOM      3  C   UNL     1       5.489   4.434  18.801  0.00  0.00    +0.000 A 
ATOM      4  C   UNL     1       5.411   3.940  17.490  0.00  0.00    +0.000 A 
ATOM      5  C   UNL     1       6.236   4.512  16.499  0.00  0.00    +0.000 A 
ATOM      6  C   UNL     1       7.071   5.593  16.845  0.00  0.00    +0.000 A 
ENDROOT
BRANCH   1   8
ATOM      7  C   UNL     1       7.791   8.457  17.906  0.00  0.00    +0.000 C 
ATOM      8  C   UNL     1       7.961   7.251  18.465  0.00  0.00    +0.000 C 
BRANCH   7   9
ATOM      9  C   UNL     1       8.624   9.591  18.330  0.00  0.00    +0.000 C 
ATOM     10  O   UNL     1       9.405   9.588  19.269  0.00  0.00    +0.000 OA
BRANCH   9  11
ATOM     11  O   UNL     1       8.272  10.653  17.568  0.00  0.00    +0.000 OA
BRANCH  11  13
ATOM     12  C   UNL     1       8.078  13.031  17.479  0.00  0.00    +0.000 C 
ATOM     13  C   UNL     1       8.965  11.866  17.879  0.00  0.00    +0.000 C 
ENDBRANCH  11  13
ENDBRANCH   9  11
ENDBRANCH   7   9
ENDBRANCH   1   8
BRANCH   5  14
ATOM     14  O   UNL     1       6.169   3.983  15.233  0.00  0.00    +0.000 OA
ATOM     15  C   UNL     1       6.842   4.699  14.198  0.00  0.00    +0.000 C 
ENDBRANCH   5  14
BRANCH   4  16
ATOM     16  O   UNL     1       4.561   2.905  17.134  0.00  0.00    +0.000 OA
BRANCH  16  17
ATOM     17  C   UNL     1       3.350   2.877  17.893  0.00  0.00    +0.000 C 
BRANCH  17  18
ATOM     18  C   UNL     1       2.261   3.787  17.345  0.00  0.00    +0.000 C 
BRANCH  18  19
ATOM     19  C   UNL     1       1.257   4.053  18.471  0.00  0.00    +0.000 C 
BRANCH  19  20
ATOM     20  C   UNL     1       1.911   4.083  19.847  0.00  0.00    +0.000 C 
BRANCH  20  21
ATOM     21  C   UNL     1       1.851   5.499  20.424  0.00  0.00    +0.000 C 
BRANCH  21  22
ATOM     22  C   UNL     1       2.730   6.468  19.626  0.00  0.00    +0.000 C 
BRANCH  22  23
ATOM     23  N   UNL     1       2.251   7.861  19.662  0.00  0.00    +0.000 NA
ATOM     24  C   UNL     1       1.788   8.259  18.320  0.00  0.00    +0.000 C 
ATOM     25  C   UNL     1       1.346   9.723  18.288  0.00  0.00    +0.000 C 
ATOM     26  C   UNL     1       0.275  10.004  19.335  0.00  0.00    +0.000 C 
ATOM     27  C   UNL     1       0.734   9.522  20.703  0.00  0.00    +0.000 C 
ATOM     28  C   UNL     1       1.183   8.062  20.654  0.00  0.00    +0.000 C 
ENDBRANCH  22  23
ENDBRANCH  21  22
ENDBRANCH  20  21
ENDBRANCH  19  20
ENDBRANCH  18  19
ENDBRANCH  17  18
ENDBRANCH  16  17
ENDBRANCH   4  16
TORSDOF 13
ENDMDL
MODEL 2
REMARK VINA RESULT:      -6.6      2.894      5.179
REMARK  Name = 
REMARK  15 active torsions:
REMARK  status: ('A' for Active; 'I' for Inactive)
REMARK    1  A    between atoms: C_1  and  C_2
REMARK    2  A    between atoms: C_2  and  O_3
REMARK    3  A    between atoms: O_3  and  C_4
REMARK    4  A    between atoms: C_4  and  C_6
REMARK    5  A    between atoms: C_7  and  C_8
REMARK    6  A    between atoms: C_11  and  O_12
REMARK    7  A    between atoms: O_12  and  C_13
REMARK    8  A    between atoms: C_13  and  C_14
REMARK    9  A    between atoms: C_14  and  C_15
REMARK   10  A    between atoms: C_15  and  C_16
REMARK   11  A    between atoms: C_16  and  C_17
REMARK   12  A    between atoms: C_17  and  C_18
REMARK   13  A    between atoms: C_18  and  N_19
REMARK   14  A    between atoms: C_25  and  O_26
REMARK   15  A    between atoms: O_26  and  C_27
REMARK                            x       y       z     vdW  Elec       q    Type
REMARK                         _______ _______ _______ _____ _____    ______ ____
ROOT
ATOM      1  C   UNL     1       5.284   4.280  16.225  0.00  0.00    +0.000 A 
ATOM      2  C   UNL     1       4.162   3.529  16.562  0.00  0.00    +0.000 A 
ATOM      3  C   UNL     1       3.845   3.301  17.895  0.00  0.00    +0.000 A 
ATOM      4  C   UNL     1       4.624   3.831  18.934  0.00  0.00    +0.000 A 
ATOM      5  C   UNL     1       5.726   4.648  18.607  0.00  0.00    +0.000 A 
ATOM      6  C   UNL     1       6.039   4.862  17.250  0.00  0.00    +0.000 A 
ENDROOT
BRANCH   1   8
ATOM      7  C   UNL     1       6.235   3.561  14.074  0.00  0.00    +0.000 C 
ATOM      8  C   UNL     1       5.653   4.507  14.824  0.00  0.00    +0.000 C 
BRANCH   7   9
ATOM      9  C   UNL     1       6.498   3.807  12.649  0.00  0.00    +0.000 C 
ATOM     10  O   UNL     1       7.324   4.586  12.202  0.00  0.00    +0.000 OA
BRANCH   9  11
ATOM     11  O   UNL     1       5.577   3.105  11.947  0.00  0.00    +0.000 OA
BRANCH  11  13
ATOM     12  C   UNL     1       3.478   2.933  10.822  0.00  0.00    +0.000 C 
ATOM     13  C   UNL     1       4.467   3.877  11.481  0.00  0.00    +0.000 C 
ENDBRANCH  11  13
ENDBRANCH   9  11
ENDBRANCH   7   9
ENDBRANCH   1   8
BRANCH   5  14
ATOM     14  O   UNL     1       6.448   5.187  19.645  0.00  0.00    +0.000 OA
ATOM     15  C   UNL     1       7.737   5.712  19.329  0.00  0.00    +0.000 C 
ENDBRANCH   5  14
BRANCH   4  16
ATOM     16  O   UNL     1       4.347   3.590  20.270  0.00  0.00    +0.000 OA
BRANCH  16  17
ATOM     17  C   UNL     1       3.599   2.391  20.489  0.00  0.00    +0.000 C 
BRANCH  17  18
ATOM     18  C   UNL     1       2.198   2.631  21.033  0.00  0.00    +0.000 C 
BRANCH  18  19
ATOM     19  C   UNL     1       2.105   4.099  21.461  0.00  0.00    +0.000 C 
BRANCH  19  20
ATOM     20  C   UNL     1       1.260   4.938  20.510  0.00  0.00    +0.000 C 
BRANCH  20  21
ATOM     21  C   UNL     1       1.990   6.239  20.170  0.00  0.00    +0.000 C 
BRANCH  21  22
ATOM     22  C   UNL     1       1.525   7.393  21.064  0.00  0.00    +0.000 C 
BRANCH  22  23
ATOM     23  N   UNL     1       1.445   8.685  20.360  0.00  0.00    +0.000 NA
ATOM     24  C   UNL     1       1.689   8.478  18.921  0.00  0.00    +0.000 C 
ATOM     25  C   UNL     1       1.687   9.801  18.153  0.00  0.00    +0.000 C 
ATOM     26  C   UNL     1       0.391  10.572  18.376  0.00  0.00    +0.000 C 
ATOM     27  C   UNL     1       0.113  10.716  19.864  0.00  0.00    +0.000 C 
ATOM     28  C   UNL     1       0.154   9.361  20.570  0.00  0.00    +0.000 C 
ENDBRANCH  22  23
ENDBRANCH  21  22
ENDBRANCH  20  21
ENDBRANCH  19  20
ENDBRANCH  18  19
ENDBRANCH  17  18
ENDBRANCH  16  17
ENDBRANCH   4  16
TORSDOF 13
ENDMDL
MODEL 3
REMARK VINA RESULT:      -6.4      3.647      6.292
REMARK  Name = 
REMARK  15 active torsions:
REMARK  status: ('A' for Active; 'I' for Inactive)
REMARK    1  A    between atoms: C_1  and  C_2
REMARK    2  A    between atoms: C_2  and  O_3
REMARK    3  A    between atoms: O_3  and  C_4
REMARK    4  A    between atoms: C_4  and  C_6
REMARK    5  A    between atoms: C_7  and  C_8
REMARK    6  A    between atoms: C_11  and  O_12
REMARK    7  A    between atoms: O_12  and  C_13
REMARK    8  A    between atoms: C_13  and  C_14
REMARK    9  A    between atoms: C_14  and  C_15
REMARK   10  A    between atoms: C_15  and  C_16
REMARK   11  A    between atoms: C_16  and  C_17
REMARK   12  A    between atoms: C_17  and  C_18
REMARK   13  A    between atoms: C_18  and  N_19
REMARK   14  A    between atoms: C_25  and  O_26
REMARK   15  A    between atoms: O_26  and  C_27
REMARK                            x       y       z     vdW  Elec       q    Type
REMARK                         _______ _______ _______ _____ _____    ______ ____
ROOT
ATOM      1  C   UNL     1       5.301   5.169  15.777  0.00  0.00    +0.000 A 
ATOM      2  C   UNL     1       5.089   6.471  16.220  0.00  0.00    +0.000 A 
ATOM      3  C   UNL     1       4.500   6.704  17.456  0.00  0.00    +0.000 A 
ATOM      4  C   UNL     1       4.123   5.648  18.298  0.00  0.00    +0.000 A 
ATOM      5  C   UNL     1       4.391   4.325  17.889  0.00  0.00    +0.000 A 
ATOM      6  C   UNL     1       4.982   4.106  16.629  0.00  0.00    +0.000 A 
ENDROOT
BRANCH   1   8
ATOM      7  C   UNL     1       5.684   3.757  13.800  0.00  0.00    +0.000 C 
ATOM      8  C   UNL     1       5.894   4.903  14.462  0.00  0.00    +0.000 C 
BRANCH   7   9
ATOM      9  C   UNL     1       6.223   3.578  12.445  0.00  0.00    +0.000 C 
ATOM     10  O   UNL     1       7.276   4.035  12.032  0.00  0.00    +0.000 OA
BRANCH   9  11
ATOM     11  O   UNL     1       5.282   2.923  11.724  0.00  0.00    +0.000 OA
BRANCH  11  13
ATOM     12  C   UNL     1       3.231   2.865  10.502  0.00  0.00    +0.000 C 
ATOM     13  C   UNL     1       4.201   3.744  11.270  0.00  0.00    +0.000 C 
ENDBRANCH  11  13
ENDBRANCH   9  11
ENDBRANCH   7   9
ENDBRANCH   1   8
BRANCH   5  14
ATOM     14  O   UNL     1       4.048   3.310  18.750  0.00  0.00    +0.000 OA
ATOM     15  C   UNL     1       3.525   2.118  18.167  0.00  0.00    +0.000 C 
ENDBRANCH   5  14
BRANCH   4  16
ATOM     16  O   UNL     1       3.503   5.854  19.521  0.00  0.00    +0.000 OA
BRANCH  16  17
ATOM     17  C   UNL     1       2.476   6.847  19.477  0.00  0.00    +0.000 C 
BRANCH  17  18
ATOM     18  C   UNL     1       1.524   6.798  20.663  0.00  0.00    +0.000 C 
BRANCH  18  19
ATOM     19  C   UNL     1       1.353   8.226  21.190  0.00  0.00    +0.000 C 
BRANCH  19  20
ATOM     20  C   UNL     1      -0.083   8.538  21.592  0.00  0.00    +0.000 C 
BRANCH  20  21
ATOM     21  C   UNL     1      -0.114   9.747  22.530  0.00  0.00    +0.000 C 
BRANCH  21  22
ATOM     22  C   UNL     1      -0.006  11.063  21.753  0.00  0.00    +0.000 C 
BRANCH  22  23
ATOM     23  N   UNL     1      -1.110  12.000  22.030  0.00  0.00    +0.000 NA
ATOM     24  C   UNL     1      -1.919  12.183  20.811  0.00  0.00    +0.000 C 
ATOM     25  C   UNL     1      -3.038  13.204  21.026  0.00  0.00    +0.000 C 
ATOM     26  C   UNL     1      -3.921  12.821  22.209  0.00  0.00    +0.000 C 
ATOM     27  C   UNL     1      -3.068  12.563  23.441  0.00  0.00    +0.000 C 
ATOM     28  C   UNL     1      -1.958  11.555  23.147  0.00  0.00    +0.000 C 
ENDBRANCH  22  23
ENDBRANCH  21  22
ENDBRANCH  20  21
ENDBRANCH  19  20
ENDBRANCH  18  19
ENDBRANCH  17  18
ENDBRANCH  16  17
ENDBRANCH   4  16
TORSDOF 13
ENDMDL
MODEL 4
REMARK VINA RESULT:      -6.4      3.572      6.299
REMARK  Name = 
REMARK  15 active torsions:
REMARK  status: ('A' for Active; 'I' for Inactive)
REMARK    1  A    between atoms: C_1  and  C_2
REMARK    2  A    between atoms: C_2  and  O_3
REMARK    3  A    between atoms: O_3  and  C_4
REMARK    4  A    between atoms: C_4  and  C_6
REMARK    5  A    between atoms: C_7  and  C_8
REMARK    6  A    between atoms: C_11  and  O_12
REMARK    7  A    between atoms: O_12  and  C_13
REMARK    8  A    between atoms: C_13  and  C_14
REMARK    9  A    between atoms: C_14  and  C_15
REMARK   10  A    between atoms: C_15  and  C_16
REMARK   11  A    between atoms: C_16  and  C_17
REMARK   12  A    between atoms: C_17  and  C_18
REMARK   13  A    between atoms: C_18  and  N_19
REMARK   14  A    between atoms: C_25  and  O_26
REMARK   15  A    between atoms: O_26  and  C_27
REMARK                            x       y       z     vdW  Elec       q    Type
REMARK                         _______ _______ _______ _____ _____    ______ ____
ROOT
ATOM      1  C   UNL     1       4.081   5.320  17.708  0.00  0.00    +0.000 A 
ATOM      2  C   UNL     1       3.611   6.629  17.654  0.00  0.00    +0.000 A 
ATOM      3  C   UNL     1       2.769   7.113  18.647  0.00  0.00    +0.000 A 
ATOM      4  C   UNL     1       2.385   6.315  19.735  0.00  0.00    +0.000 A 
ATOM      5  C   UNL     1       2.905   5.008  19.835  0.00  0.00    +0.000 A 
ATOM      6  C   UNL     1       3.751   4.530  18.815  0.00  0.00    +0.000 A 
ENDROOT
BRANCH   1   8
ATOM      7  C   UNL     1       5.732   5.564  15.902  0.00  0.00    +0.000 C 
ATOM      8  C   UNL     1       4.946   4.780  16.653  0.00  0.00    +0.000 C 
BRANCH   7   9
ATOM      9  C   UNL     1       6.651   4.965  14.923  0.00  0.00    +0.000 C 
ATOM     10  O   UNL     1       7.684   5.470  14.515  0.00  0.00    +0.000 OA
BRANCH   9  11
ATOM     11  O   UNL     1       6.074   3.822  14.481  0.00  0.00    +0.000 OA
BRANCH  11  13
ATOM     12  C   UNL     1       4.997   3.684  12.354  0.00  0.00    +0.000 C 
ATOM     13  C   UNL     1       6.310   3.531  13.100  0.00  0.00    +0.000 C 
ENDBRANCH  11  13
ENDBRANCH   9  11
ENDBRANCH   7   9
ENDBRANCH   1   8
BRANCH   5  14
ATOM     14  O   UNL     1       2.544   4.262  20.931  0.00  0.00    +0.000 OA
ATOM     15  C   UNL     1       2.728   2.850  20.839  0.00  0.00    +0.000 C 
ENDBRANCH   5  14
BRANCH   4  16
ATOM     16  O   UNL     1       1.519   6.765  20.719  0.00  0.00    +0.000 OA
BRANCH  16  17
ATOM     17  C   UNL     1       1.421   8.190  20.783  0.00  0.00    +0.000 C 
BRANCH  17  18
ATOM     18  C   UNL     1       0.168   8.688  21.486  0.00  0.00    +0.000 C 
BRANCH  18  19
ATOM     19  C   UNL     1       0.172  10.219  21.430  0.00  0.00    +0.000 C 
BRANCH  19  20
ATOM     20  C   UNL     1       0.569  10.757  20.061  0.00  0.00    +0.000 C 
BRANCH  20  21
ATOM     21  C   UNL     1      -0.343  11.923  19.672  0.00  0.00    +0.000 C 
BRANCH  21  22
ATOM     22  C   UNL     1      -0.696  11.887  18.182  0.00  0.00    +0.000 C 
BRANCH  22  23
ATOM     23  N   UNL     1      -2.141  12.008  17.919  0.00  0.00    +0.000 NA
ATOM     24  C   UNL     1      -2.523  11.086  16.834  0.00  0.00    +0.000 C 
ATOM     25  C   UNL     1      -4.004  11.223  16.472  0.00  0.00    +0.000 C 
ATOM     26  C   UNL     1      -4.895  11.022  17.692  0.00  0.00    +0.000 C 
ATOM     27  C   UNL     1      -4.445  11.926  18.829  0.00  0.00    +0.000 C 
ATOM     28  C   UNL     1      -2.954  11.754  19.118  0.00  0.00    +0.000 C 
ENDBRANCH  22  23
ENDBRANCH  21  22
ENDBRANCH  20  21
ENDBRANCH  19  20
ENDBRANCH  18  19
ENDBRANCH  17  18
ENDBRANCH  16  17
ENDBRANCH   4  16
TORSDOF 13
ENDMDL
MODEL 5
REMARK VINA RESULT:      -6.3      3.041      5.899
REMARK  Name = 
REMARK  15 active torsions:
REMARK  status: ('A' for Active; 'I' for Inactive)
REMARK    1  A    between atoms: C_1  and  C_2
REMARK    2  A    between atoms: C_2  and  O_3
REMARK    3  A    between atoms: O_3  and  C_4
REMARK    4  A    between atoms: C_4  and  C_6
REMARK    5  A    between atoms: C_7  and  C_8
REMARK    6  A    between atoms: C_11  and  O_12
REMARK    7  A    between atoms: O_12  and  C_13
REMARK    8  A    between atoms: C_13  and  C_14
REMARK    9  A    between atoms: C_14  and  C_15
REMARK   10  A    between atoms: C_15  and  C_16
REMARK   11  A    between atoms: C_16  and  C_17
REMARK   12  A    between atoms: C_17  and  C_18
REMARK   13  A    between atoms: C_18  and  N_19
REMARK   14  A    between atoms: C_25  and  O_26
REMARK   15  A    between atoms: O_26  and  C_27
REMARK                            x       y       z     vdW  Elec       q    Type
REMARK                         _______ _______ _______ _____ _____    ______ ____
ROOT
ATOM      1  C   UNL     1       5.762   4.423  16.045  0.00  0.00    +0.000 A 
ATOM      2  C   UNL     1       4.373   4.406  16.134  0.00  0.00    +0.000 A 
ATOM      3  C   UNL     1       3.746   4.585  17.361  0.00  0.00    +0.000 A 
ATOM      4  C   UNL     1       4.482   4.807  18.534  0.00  0.00    +0.000 A 
ATOM      5  C   UNL     1       5.887   4.891  18.447  0.00  0.00    +0.000 A 
ATOM      6  C   UNL     1       6.507   4.699  17.197  0.00  0.00    +0.000 A 
ENDROOT
BRANCH   1   8
ATOM      7  C   UNL     1       5.780   3.874  13.649  0.00  0.00    +0.000 C 
ATOM      8  C   UNL     1       6.443   4.205  14.765  0.00  0.00    +0.000 C 
BRANCH   7   9
ATOM      9  C   UNL     1       6.498   3.760  12.371  0.00  0.00    +0.000 C 
ATOM     10  O   UNL     1       7.596   4.232  12.127  0.00  0.00    +0.000 OA
BRANCH   9  11
ATOM     11  O   UNL     1       5.663   3.148  11.497  0.00  0.00    +0.000 OA
BRANCH  11  13
ATOM     12  C   UNL     1       7.004   1.247  10.959  0.00  0.00    +0.000 C 
ATOM     13  C   UNL     1       5.689   1.718  11.551  0.00  0.00    +0.000 C 
ENDBRANCH  11  13
ENDBRANCH   9  11
ENDBRANCH   7   9
ENDBRANCH   1   8
BRANCH   5  14
ATOM     14  O   UNL     1       6.581   5.149  19.605  0.00  0.00    +0.000 OA
ATOM     15  C   UNL     1       7.852   5.784  19.467  0.00  0.00    +0.000 C 
ENDBRANCH   5  14
BRANCH   4  16
ATOM     16  O   UNL     1       3.881   4.956  19.773  0.00  0.00    +0.000 OA
BRANCH  16  17
ATOM     17  C   UNL     1       2.527   5.411  19.699  0.00  0.00    +0.000 C 
BRANCH  17  18
ATOM     18  C   UNL     1       2.380   6.920  19.823  0.00  0.00    +0.000 C 
BRANCH  18  19
ATOM     19  C   UNL     1       2.536   7.526  18.424  0.00  0.00    +0.000 C 
BRANCH  19  20
ATOM     20  C   UNL     1       1.939   8.924  18.318  0.00  0.00    +0.000 C 
BRANCH  20  21
ATOM     21  C   UNL     1       1.022   9.194  19.513  0.00  0.00    +0.000 C 
BRANCH  21  22
ATOM     22  C   UNL     1       0.804  10.695  19.725  0.00  0.00    +0.000 C 
BRANCH  22  23
ATOM     23  N   UNL     1       0.322  11.032  21.077  0.00  0.00    +0.000 NA
ATOM     24  C   UNL     1      -0.559  12.212  21.007  0.00  0.00    +0.000 C 
ATOM     25  C   UNL     1      -1.031  12.647  22.395  0.00  0.00    +0.000 C 
ATOM     26  C   UNL     1      -1.717  11.504  23.134  0.00  0.00    +0.000 C 
ATOM     27  C   UNL     1      -0.828  10.269  23.136  0.00  0.00    +0.000 C 
ATOM     28  C   UNL     1      -0.376   9.908  21.722  0.00  0.00    +0.000 C 
ENDBRANCH  22  23
ENDBRANCH  21  22
ENDBRANCH  20  21
ENDBRANCH  19  20
ENDBRANCH  18  19
ENDBRANCH  17  18
ENDBRANCH  16  17
ENDBRANCH   4  16
TORSDOF 13
ENDMDL
MODEL 6
REMARK VINA RESULT:      -6.3      4.551      8.382
REMARK  Name = 
REMARK  15 active torsions:
REMARK  status: ('A' for Active; 'I' for Inactive)
REMARK    1  A    between atoms: C_1  and  C_2
REMARK    2  A    between atoms: C_2  and  O_3
REMARK    3  A    between atoms: O_3  and  C_4
REMARK    4  A    between atoms: C_4  and  C_6
REMARK    5  A    between atoms: C_7  and  C_8
REMARK    6  A    between atoms: C_11  and  O_12
REMARK    7  A    between atoms: O_12  and  C_13
REMARK    8  A    between atoms: C_13  and  C_14
REMARK    9  A    between atoms: C_14  and  C_15
REMARK   10  A    between atoms: C_15  and  C_16
REMARK   11  A    between atoms: C_16  and  C_17
REMARK   12  A    between atoms: C_17  and  C_18
REMARK   13  A    between atoms: C_18  and  N_19
REMARK   14  A    between atoms: C_25  and  O_26
REMARK   15  A    between atoms: O_26  and  C_27
REMARK                            x       y       z     vdW  Elec       q    Type
REMARK                         _______ _______ _______ _____ _____    ______ ____
ROOT
ATOM      1  C   UNL     1      -0.414  10.034  18.725  0.00  0.00    +0.000 A 
ATOM      2  C   UNL     1       0.605   9.481  17.956  0.00  0.00    +0.000 A 
ATOM      3  C   UNL     1       1.564   8.667  18.544  0.00  0.00    +0.000 A 
ATOM      4  C   UNL     1       1.526   8.360  19.912  0.00  0.00    +0.000 A 
ATOM      5  C   UNL     1       0.461   8.862  20.690  0.00  0.00    +0.000 A 
ATOM      6  C   UNL     1      -0.498   9.693  20.080  0.00  0.00    +0.000 A 
ENDROOT
BRANCH   1   8
ATOM      7  C   UNL     1      -2.715  10.589  18.056  0.00  0.00    +0.000 C 
ATOM      8  C   UNL     1      -1.419  10.922  18.129  0.00  0.00    +0.000 C 
BRANCH   7   9
ATOM      9  C   UNL     1      -3.695  11.553  17.535  0.00  0.00    +0.000 C 
ATOM     10  O   UNL     1      -4.563  12.108  18.189  0.00  0.00    +0.000 OA
BRANCH   9  11
ATOM     11  O   UNL     1      -3.527  11.607  16.192  0.00  0.00    +0.000 OA
BRANCH  11  13
ATOM     12  C   UNL     1      -2.931  10.102  14.437  0.00  0.00    +0.000 C 
ATOM     13  C   UNL     1      -3.971  10.444  15.488  0.00  0.00    +0.000 C 
ENDBRANCH  11  13
ENDBRANCH   9  11
ENDBRANCH   7   9
ENDBRANCH   1   8
BRANCH   5  14
ATOM     14  O   UNL     1       0.426   8.514  22.019  0.00  0.00    +0.000 OA
ATOM     15  C   UNL     1      -0.082   9.490  22.928  0.00  0.00    +0.000 C 
ENDBRANCH   5  14
BRANCH   4  16
ATOM     16  O   UNL     1       2.489   7.577  20.528  0.00  0.00    +0.000 OA
BRANCH  16  17
ATOM     17  C   UNL     1       2.598   6.265  19.970  0.00  0.00    +0.000 C 
BRANCH  17  18
ATOM     18  C   UNL     1       2.094   5.163  20.891  0.00  0.00    +0.000 C 
BRANCH  18  19
ATOM     19  C   UNL     1       0.959   4.429  20.172  0.00  0.00    +0.000 C 
BRANCH  19  20
ATOM     20  C   UNL     1       1.152   2.917  20.157  0.00  0.00    +0.000 C 
BRANCH  20  21
ATOM     21  C   UNL     1       1.550   2.455  18.754  0.00  0.00    +0.000 C 
BRANCH  21  22
ATOM     22  C   UNL     1       2.970   1.878  18.735  0.00  0.00    +0.000 C 
BRANCH  22  23
ATOM     23  N   UNL     1       3.970   2.799  18.168  0.00  0.00    +0.000 NA
ATOM     24  C   UNL     1       3.298   3.787  17.304  0.00  0.00    +0.000 C 
ATOM     25  C   UNL     1       4.302   4.725  16.633  0.00  0.00    +0.000 C 
ATOM     26  C   UNL     1       5.187   5.420  17.661  0.00  0.00    +0.000 C 
ATOM     27  C   UNL     1       5.818   4.396  18.592  0.00  0.00    +0.000 C 
ATOM     28  C   UNL     1       4.760   3.480  19.206  0.00  0.00    +0.000 C 
ENDBRANCH  22  23
ENDBRANCH  21  22
ENDBRANCH  20  21
ENDBRANCH  19  20
ENDBRANCH  18  19
ENDBRANCH  17  18
ENDBRANCH  16  17
ENDBRANCH   4  16
TORSDOF 13
ENDMDL
MODEL 7
REMARK VINA RESULT:      -6.2      2.998      5.631
REMARK  Name = 
REMARK  15 active torsions:
REMARK  status: ('A' for Active; 'I' for Inactive)
REMARK    1  A    between atoms: C_1  and  C_2
REMARK    2  A    between atoms: C_2  and  O_3
REMARK    3  A    between atoms: O_3  and  C_4
REMARK    4  A    between atoms: C_4  and  C_6
REMARK    5  A    between atoms: C_7  and  C_8
REMARK    6  A    between atoms: C_11  and  O_12
REMARK    7  A    between atoms: O_12  and  C_13
REMARK    8  A    between atoms: C_13  and  C_14
REMARK    9  A    between atoms: C_14  and  C_15
REMARK   10  A    between atoms: C_15  and  C_16
REMARK   11  A    between atoms: C_16  and  C_17
REMARK   12  A    between atoms: C_17  and  C_18
REMARK   13  A    between atoms: C_18  and  N_19
REMARK   14  A    between atoms: C_25  and  O_26
REMARK   15  A    between atoms: O_26  and  C_27
REMARK                            x       y       z     vdW  Elec       q    Type
REMARK                         _______ _______ _______ _____ _____    ______ ____
ROOT
ATOM      1  C   UNL     1       5.702   4.066  16.143  0.00  0.00    +0.000 A 
ATOM      2  C   UNL     1       4.323   3.971  16.303  0.00  0.00    +0.000 A 
ATOM      3  C   UNL     1       3.745   4.184  17.549  0.00  0.00    +0.000 A 
ATOM      4  C   UNL     1       4.522   4.518  18.668  0.00  0.00    +0.000 A 
ATOM      5  C   UNL     1       5.913   4.680  18.505  0.00  0.00    +0.000 A 
ATOM      6  C   UNL     1       6.483   4.453  17.237  0.00  0.00    +0.000 A 
ENDROOT
BRANCH   1   8
ATOM      7  C   UNL     1       5.639   3.821  13.696  0.00  0.00    +0.000 C 
ATOM      8  C   UNL     1       6.333   3.815  14.842  0.00  0.00    +0.000 C 
BRANCH   7   9
ATOM      9  C   UNL     1       6.335   3.659  12.412  0.00  0.00    +0.000 C 
ATOM     10  O   UNL     1       7.382   4.200  12.096  0.00  0.00    +0.000 OA
BRANCH   9  11
ATOM     11  O   UNL     1       5.538   2.904  11.619  0.00  0.00    +0.000 OA
BRANCH  11  13
ATOM     12  C   UNL     1       3.645   3.505  10.294  0.00  0.00    +0.000 C 
ATOM     13  C   UNL     1       4.145   3.222  11.698  0.00  0.00    +0.000 C 
ENDBRANCH  11  13
ENDBRANCH   9  11
ENDBRANCH   7   9
ENDBRANCH   1   8
BRANCH   5  14
ATOM     14  O   UNL     1       6.645   5.046  19.610  0.00  0.00    +0.000 OA
ATOM     15  C   UNL     1       7.789   5.868  19.382  0.00  0.00    +0.000 C 
ENDBRANCH   5  14
BRANCH   4  16
ATOM     16  O   UNL     1       3.973   4.702  19.927  0.00  0.00    +0.000 OA
BRANCH  16  17
ATOM     17  C   UNL     1       2.737   4.007  20.116  0.00  0.00    +0.000 C 
BRANCH  17  18
ATOM     18  C   UNL     1       1.596   4.899  20.582  0.00  0.00    +0.000 C 
BRANCH  18  19
ATOM     19  C   UNL     1       2.163   6.301  20.828  0.00  0.00    +0.000 C 
BRANCH  19  20
ATOM     20  C   UNL     1       1.080   7.371  20.891  0.00  0.00    +0.000 C 
BRANCH  20  21
ATOM     21  C   UNL     1       1.543   8.627  20.150  0.00  0.00    +0.000 C 
BRANCH  21  22
ATOM     22  C   UNL     1       0.780   9.870  20.620  0.00  0.00    +0.000 C 
BRANCH  22  23
ATOM     23  N   UNL     1       0.528  10.846  19.545  0.00  0.00    +0.000 NA
ATOM     24  C   UNL     1      -0.922  11.083  19.424  0.00  0.00    +0.000 C 
ATOM     25  C   UNL     1      -1.243  12.037  18.272  0.00  0.00    +0.000 C 
ATOM     26  C   UNL     1      -0.490  13.354  18.414  0.00  0.00    +0.000 C 
ATOM     27  C   UNL     1       0.996  13.093  18.611  0.00  0.00    +0.000 C 
ATOM     28  C   UNL     1       1.239  12.115  19.760  0.00  0.00    +0.000 C 
ENDBRANCH  22  23
ENDBRANCH  21  22
ENDBRANCH  20  21
ENDBRANCH  19  20
ENDBRANCH  18  19
ENDBRANCH  17  18
ENDBRANCH  16  17
ENDBRANCH   4  16
TORSDOF 13
ENDMDL
MODEL 8
REMARK VINA RESULT:      -6.2      3.091      5.879
REMARK  Name = 
REMARK  15 active torsions:
REMARK  status: ('A' for Active; 'I' for Inactive)
REMARK    1  A    between atoms: C_1  and  C_2
REMARK    2  A    between atoms: C_2  and  O_3
REMARK    3  A    between atoms: O_3  and  C_4
REMARK    4  A    between atoms: C_4  and  C_6
REMARK    5  A    between atoms: C_7  and  C_8
REMARK    6  A    between atoms: C_11  and  O_12
REMARK    7  A    between atoms: O_12  and  C_13
REMARK    8  A    between atoms: C_13  and  C_14
REMARK    9  A    between atoms: C_14  and  C_15
REMARK   10  A    between atoms: C_15  and  C_16
REMARK   11  A    between atoms: C_16  and  C_17
REMARK   12  A    between atoms: C_17  and  C_18
REMARK   13  A    between atoms: C_18  and  N_19
REMARK   14  A    between atoms: C_25  and  O_26
REMARK   15  A    between atoms: O_26  and  C_27
REMARK                            x       y       z     vdW  Elec       q    Type
REMARK                         _______ _______ _______ _____ _____    ______ ____
ROOT
ATOM      1  C   UNL     1       6.154   4.626  15.503  0.00  0.00    +0.000 A 
ATOM      2  C   UNL     1       4.905   5.222  15.653  0.00  0.00    +0.000 A 
ATOM      3  C   UNL     1       4.454   5.600  16.911  0.00  0.00    +0.000 A 
ATOM      4  C   UNL     1       5.242   5.417  18.057  0.00  0.00    +0.000 A 
ATOM      5  C   UNL     1       6.536   4.873  17.911  0.00  0.00    +0.000 A 
ATOM      6  C   UNL     1       6.973   4.487  16.629  0.00  0.00    +0.000 A 
ENDROOT
BRANCH   1   8
ATOM      7  C   UNL     1       5.851   3.536  13.319  0.00  0.00    +0.000 C 
ATOM      8  C   UNL     1       6.634   4.191  14.187  0.00  0.00    +0.000 C 
BRANCH   7   9
ATOM      9  C   UNL     1       6.352   3.207  11.977  0.00  0.00    +0.000 C 
ATOM     10  O   UNL     1       7.475   3.438  11.560  0.00  0.00    +0.000 OA
BRANCH   9  11
ATOM     11  O   UNL     1       5.306   2.719  11.269  0.00  0.00    +0.000 OA
BRANCH  11  13
ATOM     12  C   UNL     1       3.208   3.161  10.219  0.00  0.00    +0.000 C 
ATOM     13  C   UNL     1       4.089   3.457  11.419  0.00  0.00    +0.000 C 
ENDBRANCH  11  13
ENDBRANCH   9  11
ENDBRANCH   7   9
ENDBRANCH   1   8
BRANCH   5  14
ATOM     14  O   UNL     1       7.301   4.740  19.044  0.00  0.00    +0.000 OA
ATOM     15  C   UNL     1       8.104   5.860  19.415  0.00  0.00    +0.000 C 
ENDBRANCH   5  14
BRANCH   4  16
ATOM     16  O   UNL     1       4.801   5.756  19.326  0.00  0.00    +0.000 OA
BRANCH  16  17
ATOM     17  C   UNL     1       3.666   4.999  19.755  0.00  0.00    +0.000 C 
BRANCH  17  18
ATOM     18  C   UNL     1       2.334   5.590  19.319  0.00  0.00    +0.000 C 
BRANCH  18  19
ATOM     19  C   UNL     1       2.252   7.020  19.861  0.00  0.00    +0.000 C 
BRANCH  19  20
ATOM     20  C   UNL     1       2.150   8.064  18.756  0.00  0.00    +0.000 C 
BRANCH  20  21
ATOM     21  C   UNL     1       1.246   9.214  19.204  0.00  0.00    +0.000 C 
BRANCH  21  22
ATOM     22  C   UNL     1       0.933   9.131  20.702  0.00  0.00    +0.000 C 
BRANCH  22  23
ATOM     23  N   UNL     1      -0.017  10.161  21.161  0.00  0.00    +0.000 NA
ATOM     24  C   UNL     1      -0.320   9.951  22.588  0.00  0.00    +0.000 C 
ATOM     25  C   UNL     1      -1.359  10.952  23.097  0.00  0.00    +0.000 C 
ATOM     26  C   UNL     1      -0.917  12.389  22.843  0.00  0.00    +0.000 C 
ATOM     27  C   UNL     1      -0.537  12.574  21.382  0.00  0.00    +0.000 C 
ATOM     28  C   UNL     1       0.483  11.526  20.937  0.00  0.00    +0.000 C 
ENDBRANCH  22  23
ENDBRANCH  21  22
ENDBRANCH  20  21
ENDBRANCH  19  20
ENDBRANCH  18  19
ENDBRANCH  17  18
ENDBRANCH  16  17
ENDBRANCH   4  16
TORSDOF 13
ENDMDL
MODEL 9
REMARK VINA RESULT:      -6.2      3.763      6.834
REMARK  Name = 
REMARK  15 active torsions:
REMARK  status: ('A' for Active; 'I' for Inactive)
REMARK    1  A    between atoms: C_1  and  C_2
REMARK    2  A    between atoms: C_2  and  O_3
REMARK    3  A    between atoms: O_3  and  C_4
REMARK    4  A    between atoms: C_4  and  C_6
REMARK    5  A    between atoms: C_7  and  C_8
REMARK    6  A    between atoms: C_11  and  O_12
REMARK    7  A    between atoms: O_12  and  C_13
REMARK    8  A    between atoms: C_13  and  C_14
REMARK    9  A    between atoms: C_14  and  C_15
REMARK   10  A    between atoms: C_15  and  C_16
REMARK   11  A    between atoms: C_16  and  C_17
REMARK   12  A    between atoms: C_17  and  C_18
REMARK   13  A    between atoms: C_18  and  N_19
REMARK   14  A    between atoms: C_25  and  O_26
REMARK   15  A    between atoms: O_26  and  C_27
REMARK                            x       y       z     vdW  Elec       q    Type
REMARK                         _______ _______ _______ _____ _____    ______ ____
ROOT
ATOM      1  C   UNL     1       3.981   6.487  17.511  0.00  0.00    +0.000 A 
ATOM      2  C   UNL     1       3.264   7.672  17.646  0.00  0.00    +0.000 A 
ATOM      3  C   UNL     1       2.409   7.856  18.725  0.00  0.00    +0.000 A 
ATOM      4  C   UNL     1       2.257   6.874  19.714  0.00  0.00    +0.000 A 
ATOM      5  C   UNL     1       3.026   5.695  19.625  0.00  0.00    +0.000 A 
ATOM      6  C   UNL     1       3.883   5.521  18.520  0.00  0.00    +0.000 A 
ENDROOT
BRANCH   1   8
ATOM      7  C   UNL     1       5.665   5.190  16.275  0.00  0.00    +0.000 C 
ATOM      8  C   UNL     1       4.866   6.262  16.364  0.00  0.00    +0.000 C 
BRANCH   7   9
ATOM      9  C   UNL     1       6.462   4.963  15.061  0.00  0.00    +0.000 C 
ATOM     10  O   UNL     1       7.619   5.312  14.893  0.00  0.00    +0.000 OA
BRANCH   9  11
ATOM     11  O   UNL     1       5.638   4.409  14.140  0.00  0.00    +0.000 OA
BRANCH  11  13
ATOM     12  C   UNL     1       5.262   3.283  12.069  0.00  0.00    +0.000 C 
ATOM     13  C   UNL     1       6.307   3.722  13.078  0.00  0.00    +0.000 C 
ENDBRANCH  11  13
ENDBRANCH   9  11
ENDBRANCH   7   9
ENDBRANCH   1   8
BRANCH   5  14
ATOM     14  O   UNL     1       2.888   4.767  20.628  0.00  0.00    +0.000 OA
ATOM     15  C   UNL     1       2.325   3.506  20.268  0.00  0.00    +0.000 C 
ENDBRANCH   5  14
BRANCH   4  16
ATOM     16  O   UNL     1       1.385   7.021  20.782  0.00  0.00    +0.000 OA
BRANCH  16  17
ATOM     17  C   UNL     1       1.329   8.355  21.292  0.00  0.00    +0.000 C 
BRANCH  17  18
ATOM     18  C   UNL     1      -0.077   8.931  21.352  0.00  0.00    +0.000 C 
BRANCH  18  19
ATOM     19  C   UNL     1      -0.153  10.096  20.360  0.00  0.00    +0.000 C 
BRANCH  19  20
ATOM     20  C   UNL     1      -0.808  11.336  20.956  0.00  0.00    +0.000 C 
BRANCH  20  21
ATOM     21  C   UNL     1      -1.652  12.044  19.894  0.00  0.00    +0.000 C 
BRANCH  21  22
ATOM     22  C   UNL     1      -2.827  12.800  20.522  0.00  0.00    +0.000 C 
BRANCH  22  23
ATOM     23  N   UNL     1      -2.744  12.897  21.991  0.00  0.00    +0.000 NA
ATOM     24  C   UNL     1      -2.263  14.238  22.370  0.00  0.00    +0.000 C 
ATOM     25  C   UNL     1      -2.091  14.367  23.885  0.00  0.00    +0.000 C 
ATOM     26  C   UNL     1      -3.381  14.027  24.622  0.00  0.00    +0.000 C 
ATOM     27  C   UNL     1      -3.906  12.674  24.169  0.00  0.00    +0.000 C 
ATOM     28  C   UNL     1      -4.029  12.608  22.647  0.00  0.00    +0.000 C 
ENDBRANCH  22  23
ENDBRANCH  21  22
ENDBRANCH  20  21
ENDBRANCH  19  20
ENDBRANCH  18  19
ENDBRANCH  17  18
ENDBRANCH  16  17
ENDBRANCH   4  16
TORSDOF 13
ENDMDL
