MODEL 1
REMARK VINA RESULT:      -8.5      0.000      0.000
REMARK  Name = 
REMARK  11 active torsions:
REMARK  status: ('A' for Active; 'I' for Inactive)
REMARK    1  A    between atoms: C_1  and  C_2
REMARK    2  A    between atoms: C_2  and  N_3
REMARK    3  A    between atoms: C_2  and  C_31
REMARK    4  A    between atoms: C_4  and  C_6
REMARK    5  A    between atoms: C_6  and  C_7
REMARK    6  A    between atoms: C_6  and  N_24
REMARK    7  A    between atoms: C_7  and  C_8
REMARK    8  A    between atoms: C_11  and  N_12
REMARK    9  A    between atoms: N_15  and  C_16
REMARK   10  A    between atoms: C_25  and  C_27
REMARK   11  A    between atoms: N_29  and  O_30
REMARK                            x       y       z     vdW  Elec       q    Type
REMARK                         _______ _______ _______ _____ _____    ______ ____
ROOT
ATOM      1  C   UNL     1       3.426   6.029  17.949  0.00  0.00    +0.000 C 
ENDROOT
BRANCH   1   3
ATOM      2  N   UNL     1       5.341   5.240  16.641  0.00  0.00    +0.000 N 
ATOM      3  C   UNL     1       4.796   6.324  17.301  0.00  0.00    +0.000 C 
ATOM      4  O   UNL     1       5.375   7.397  17.432  0.00  0.00    +0.000 OA
ATOM      5  H   UNL     1       4.888   4.334  16.722  0.00  0.00    +0.000 HD
BRANCH   2   7
ATOM      6  C   UNL     1       7.688   4.612  16.816  0.00  0.00    +0.000 C 
ATOM      7  C   UNL     1       6.621   5.299  15.959  0.00  0.00    +0.000 C 
BRANCH   7   8
ATOM      8  C   UNL     1       6.481   4.730  14.553  0.00  0.00    +0.000 A 
ATOM      9  C   UNL     1       5.341   3.978  14.227  0.00  0.00    +0.000 A 
ATOM     10  C   UNL     1       5.180   3.438  12.944  0.00  0.00    +0.000 A 
ATOM     11  C   UNL     1       6.156   3.636  11.975  0.00  0.00    +0.000 A 
ATOM     12  C   UNL     1       7.302   4.364  12.288  0.00  0.00    +0.000 A 
ATOM     13  C   UNL     1       7.467   4.897  13.569  0.00  0.00    +0.000 A 
ENDBRANCH   7   8
ENDBRANCH   2   7
ENDBRANCH   1   3
BRANCH   1  14
ATOM     14  N   UNL     1       3.391   4.600  18.251  0.00  0.00    +0.000 N 
ATOM     15  C   UNL     1       2.300   3.829  17.925  0.00  0.00    +0.000 C 
ATOM     16  O   UNL     1       1.252   4.260  17.448  0.00  0.00    +0.000 OA
ATOM     17  H   UNL     1       4.265   4.102  18.424  0.00  0.00    +0.000 HD
BRANCH  15  18
ATOM     18  C   UNL     1       2.465   2.324  18.187  0.00  0.00    +0.000 C 
ATOM     19  O   UNL     1       1.501   1.613  18.442  0.00  0.00    +0.000 OA
ATOM     20  N   UNL     1       3.761   1.897  18.089  0.00  0.00    +0.000 N 
ATOM     21  H   UNL     1       4.527   2.519  17.837  0.00  0.00    +0.000 HD
BRANCH  20  22
ATOM     22  O   UNL     1       4.037   0.525  18.264  0.00  0.00    +0.000 OA
ATOM     23  H   UNL     1       3.324   0.089  17.754  0.00  0.00    +0.000 HD
ENDBRANCH  20  22
ENDBRANCH  15  18
ENDBRANCH   1  14
BRANCH   1  24
ATOM     24  C   UNL     1       3.213   6.874  19.217  0.00  0.00    +0.000 C 
BRANCH  24  25
ATOM     25  C   UNL     1       2.187   7.990  19.147  0.00  0.00    +0.000 A 
ATOM     26  C   UNL     1       1.509   8.476  20.267  0.00  0.00    +0.000 A 
ATOM     27  C   UNL     1       0.544   9.474  20.143  0.00  0.00    +0.000 A 
ATOM     28  C   UNL     1       0.258  10.056  18.912  0.00  0.00    +0.000 A 
ATOM     29  C   UNL     1       0.915   9.573  17.779  0.00  0.00    +0.000 A 
ATOM     30  C   UNL     1       1.876   8.555  17.898  0.00  0.00    +0.000 A 
BRANCH  28  31
ATOM     31  N   UNL     1      -0.672  11.114  18.784  0.00  0.00    +0.000 N 
ATOM     32  C   UNL     1      -2.045  10.923  18.715  0.00  0.00    +0.000 C 
ATOM     33  O   UNL     1      -2.608   9.841  18.847  0.00  0.00    +0.000 OA
ATOM     34  N   UNL     1      -2.725  12.103  18.459  0.00  0.00    +0.000 N 
ATOM     35  H   UNL     1      -0.364  12.041  19.040  0.00  0.00    +0.000 HD
ATOM     36  H   UNL     1      -2.233  12.737  17.845  0.00  0.00    +0.000 HD
BRANCH  34  37
ATOM     37  C   UNL     1      -4.140  12.098  18.356  0.00  0.00    +0.000 A 
ATOM     38  C   UNL     1      -4.953  12.287  19.480  0.00  0.00    +0.000 A 
ATOM     39  C   UNL     1      -6.343  12.235  19.363  0.00  0.00    +0.000 A 
ATOM     40  C   UNL     1      -6.924  11.977  18.124  0.00  0.00    +0.000 A 
ATOM     41  C   UNL     1      -6.118  11.789  17.001  0.00  0.00    +0.000 A 
ATOM     42  C   UNL     1      -4.726  11.873  17.112  0.00  0.00    +0.000 A 
ENDBRANCH  34  37
ENDBRANCH  28  31
ENDBRANCH  24  25
ENDBRANCH   1  24
TORSDOF 10
ENDMDL
MODEL 2
REMARK VINA RESULT:      -8.3      2.579      3.200
REMARK  Name = 
REMARK  11 active torsions:
REMARK  status: ('A' for Active; 'I' for Inactive)
REMARK    1  A    between atoms: C_1  and  C_2
REMARK    2  A    between atoms: C_2  and  N_3
REMARK    3  A    between atoms: C_2  and  C_31
REMARK    4  A    between atoms: C_4  and  C_6
REMARK    5  A    between atoms: C_6  and  C_7
REMARK    6  A    between atoms: C_6  and  N_24
REMARK    7  A    between atoms: C_7  and  C_8
REMARK    8  A    between atoms: C_11  and  N_12
REMARK    9  A    between atoms: N_15  and  C_16
REMARK   10  A    between atoms: C_25  and  C_27
REMARK   11  A    between atoms: N_29  and  O_30
REMARK                            x       y       z     vdW  Elec       q    Type
REMARK                         _______ _______ _______ _____ _____    ______ ____
ROOT
ATOM      1  C   UNL     1       3.274   5.994  18.070  0.00  0.00    +0.000 C 
ENDROOT
BRANCH   1   3
ATOM      2  N   UNL     1       5.205   5.257  16.754  0.00  0.00    +0.000 N 
ATOM      3  C   UNL     1       4.641   6.321  17.429  0.00  0.00    +0.000 C 
ATOM      4  O   UNL     1       5.202   7.401  17.579  0.00  0.00    +0.000 OA
ATOM      5  H   UNL     1       4.766   4.343  16.819  0.00  0.00    +0.000 HD
BRANCH   2   7
ATOM      6  C   UNL     1       7.571   4.715  16.949  0.00  0.00    +0.000 C 
ATOM      7  C   UNL     1       6.485   5.348  16.075  0.00  0.00    +0.000 C 
BRANCH   7   8
ATOM      8  C   UNL     1       6.371   4.748  14.680  0.00  0.00    +0.000 A 
ATOM      9  C   UNL     1       7.420   4.934  13.764  0.00  0.00    +0.000 A 
ATOM     10  C   UNL     1       7.348   4.397  12.472  0.00  0.00    +0.000 A 
ATOM     11  C   UNL     1       6.228   3.674  12.077  0.00  0.00    +0.000 A 
ATOM     12  C   UNL     1       5.171   3.497  12.967  0.00  0.00    +0.000 A 
ATOM     13  C   UNL     1       5.239   4.038  14.254  0.00  0.00    +0.000 A 
ENDBRANCH   7   8
ENDBRANCH   2   7
ENDBRANCH   1   3
BRANCH   1  14
ATOM     14  N   UNL     1       3.267   4.563  18.360  0.00  0.00    +0.000 N 
ATOM     15  C   UNL     1       2.242   3.753  17.927  0.00  0.00    +0.000 C 
ATOM     16  O   UNL     1       1.228   4.149  17.355  0.00  0.00    +0.000 OA
ATOM     17  H   UNL     1       4.139   4.097  18.612  0.00  0.00    +0.000 HD
BRANCH  15  18
ATOM     18  C   UNL     1       2.440   2.254  18.196  0.00  0.00    +0.000 C 
ATOM     19  O   UNL     1       1.489   1.518  18.431  0.00  0.00    +0.000 OA
ATOM     20  N   UNL     1       3.748   1.860  18.129  0.00  0.00    +0.000 N 
ATOM     21  H   UNL     1       4.504   2.501  17.893  0.00  0.00    +0.000 HD
BRANCH  20  22
ATOM     22  O   UNL     1       4.055   0.496  18.313  0.00  0.00    +0.000 OA
ATOM     23  H   UNL     1       3.180   0.093  18.483  0.00  0.00    +0.000 HD
ENDBRANCH  20  22
ENDBRANCH  15  18
ENDBRANCH   1  14
BRANCH   1  24
ATOM     24  C   UNL     1       3.041   6.824  19.344  0.00  0.00    +0.000 C 
BRANCH  24  25
ATOM     25  C   UNL     1       2.139   8.040  19.228  0.00  0.00    +0.000 A 
ATOM     26  C   UNL     1       1.411   8.556  20.302  0.00  0.00    +0.000 A 
ATOM     27  C   UNL     1       0.563   9.650  20.134  0.00  0.00    +0.000 A 
ATOM     28  C   UNL     1       0.451  10.297  18.907  0.00  0.00    +0.000 A 
ATOM     29  C   UNL     1       1.160   9.786  17.818  0.00  0.00    +0.000 A 
ATOM     30  C   UNL     1       2.002   8.672  17.981  0.00  0.00    +0.000 A 
BRANCH  28  31
ATOM     31  N   UNL     1      -0.355  11.447  18.740  0.00  0.00    +0.000 N 
ATOM     32  C   UNL     1       0.008  12.709  19.192  0.00  0.00    +0.000 C 
ATOM     33  O   UNL     1       1.092  12.986  19.695  0.00  0.00    +0.000 OA
ATOM     34  N   UNL     1      -1.009  13.636  19.026  0.00  0.00    +0.000 N 
ATOM     35  H   UNL     1      -1.070  11.417  18.030  0.00  0.00    +0.000 HD
ATOM     36  H   UNL     1      -1.936  13.257  19.157  0.00  0.00    +0.000 HD
BRANCH  34  37
ATOM     37  C   UNL     1      -0.814  14.981  19.430  0.00  0.00    +0.000 A 
ATOM     38  C   UNL     1      -0.184  15.910  18.593  0.00  0.00    +0.000 A 
ATOM     39  C   UNL     1       0.036  17.218  19.028  0.00  0.00    +0.000 A 
ATOM     40  C   UNL     1      -0.358  17.596  20.309  0.00  0.00    +0.000 A 
ATOM     41  C   UNL     1      -0.987  16.675  21.146  0.00  0.00    +0.000 A 
ATOM     42  C   UNL     1      -1.236  15.373  20.699  0.00  0.00    +0.000 A 
ENDBRANCH  34  37
ENDBRANCH  28  31
ENDBRANCH  24  25
ENDBRANCH   1  24
TORSDOF 10
ENDMDL
MODEL 3
REMARK VINA RESULT:      -8.3      3.313      4.648
REMARK  Name = 
REMARK  11 active torsions:
REMARK  status: ('A' for Active; 'I' for Inactive)
REMARK    1  A    between atoms: C_1  and  C_2
REMARK    2  A    between atoms: C_2  and  N_3
REMARK    3  A    between atoms: C_2  and  C_31
REMARK    4  A    between atoms: C_4  and  C_6
REMARK    5  A    between atoms: C_6  and  C_7
REMARK    6  A    between atoms: C_6  and  N_24
REMARK    7  A    between atoms: C_7  and  C_8
REMARK    8  A    between atoms: C_11  and  N_12
REMARK    9  A    between atoms: N_15  and  C_16
REMARK   10  A    between atoms: C_25  and  C_27
REMARK   11  A    between atoms: N_29  and  O_30
REMARK                            x       y       z     vdW  Elec       q    Type
REMARK                         _______ _______ _______ _____ _____    ______ ____
ROOT
ATOM      1  C   UNL     1       5.044   4.336  16.834  0.00  0.00    +0.000 C 
ENDROOT
BRANCH   1   3
ATOM      2  N   UNL     1       6.108   4.175  14.633  0.00  0.00    +0.000 N 
ATOM      3  C   UNL     1       5.347   4.976  15.461  0.00  0.00    +0.000 C 
ATOM      4  O   UNL     1       5.009   6.119  15.173  0.00  0.00    +0.000 OA
ATOM      5  H   UNL     1       6.499   3.313  15.003  0.00  0.00    +0.000 HD
BRANCH   2   7
ATOM      6  C   UNL     1       7.894   5.221  13.350  0.00  0.00    +0.000 C 
ATOM      7  C   UNL     1       6.504   4.581  13.297  0.00  0.00    +0.000 C 
BRANCH   7   8
ATOM      8  C   UNL     1       6.394   3.396  12.346  0.00  0.00    +0.000 A 
ATOM      9  C   UNL     1       7.565   2.825  11.821  0.00  0.00    +0.000 A 
ATOM     10  C   UNL     1       7.501   1.736  10.942  0.00  0.00    +0.000 A 
ATOM     11  C   UNL     1       6.269   1.208  10.572  0.00  0.00    +0.000 A 
ATOM     12  C   UNL     1       5.098   1.775  11.069  0.00  0.00    +0.000 A 
ATOM     13  C   UNL     1       5.160   2.865  11.940  0.00  0.00    +0.000 A 
ENDBRANCH   7   8
ENDBRANCH   2   7
ENDBRANCH   1   3
BRANCH   1  14
ATOM     14  N   UNL     1       5.804   5.083  17.833  0.00  0.00    +0.000 N 
ATOM     15  C   UNL     1       7.176   4.999  17.894  0.00  0.00    +0.000 C 
ATOM     16  O   UNL     1       7.865   4.252  17.203  0.00  0.00    +0.000 OA
ATOM     17  H   UNL     1       5.377   5.888  18.291  0.00  0.00    +0.000 HD
BRANCH  15  18
ATOM     18  C   UNL     1       7.840   5.939  18.911  0.00  0.00    +0.000 C 
ATOM     19  O   UNL     1       8.094   5.567  20.051  0.00  0.00    +0.000 OA
ATOM     20  N   UNL     1       8.113   7.179  18.403  0.00  0.00    +0.000 N 
ATOM     21  H   UNL     1       7.918   7.433  17.436  0.00  0.00    +0.000 HD
BRANCH  20  22
ATOM     22  O   UNL     1       8.766   8.120  19.227  0.00  0.00    +0.000 OA
ATOM     23  H   UNL     1       8.522   7.830  20.130  0.00  0.00    +0.000 HD
ENDBRANCH  20  22
ENDBRANCH  15  18
ENDBRANCH   1  14
BRANCH   1  24
ATOM     24  C   UNL     1       3.537   4.362  17.143  0.00  0.00    +0.000 C 
BRANCH  24  25
ATOM     25  C   UNL     1       3.069   5.288  18.251  0.00  0.00    +0.000 A 
ATOM     26  C   UNL     1       2.564   4.827  19.469  0.00  0.00    +0.000 A 
ATOM     27  C   UNL     1       2.108   5.718  20.439  0.00  0.00    +0.000 A 
ATOM     28  C   UNL     1       2.184   7.095  20.250  0.00  0.00    +0.000 A 
ATOM     29  C   UNL     1       2.671   7.573  19.033  0.00  0.00    +0.000 A 
ATOM     30  C   UNL     1       3.116   6.677  18.047  0.00  0.00    +0.000 A 
BRANCH  28  31
ATOM     31  N   UNL     1       1.783   8.008  21.252  0.00  0.00    +0.000 N 
ATOM     32  C   UNL     1       0.770   8.942  21.079  0.00  0.00    +0.000 C 
ATOM     33  O   UNL     1       0.054   9.019  20.086  0.00  0.00    +0.000 OA
ATOM     34  N   UNL     1       0.662   9.804  22.158  0.00  0.00    +0.000 N 
ATOM     35  H   UNL     1       2.031   7.794  22.207  0.00  0.00    +0.000 HD
ATOM     36  H   UNL     1       1.545  10.035  22.590  0.00  0.00    +0.000 HD
BRANCH  34  37
ATOM     37  C   UNL     1      -0.323  10.824  22.155  0.00  0.00    +0.000 A 
ATOM     38  C   UNL     1      -1.339  10.858  23.117  0.00  0.00    +0.000 A 
ATOM     39  C   UNL     1      -2.324  11.846  23.070  0.00  0.00    +0.000 A 
ATOM     40  C   UNL     1      -2.305  12.794  22.049  0.00  0.00    +0.000 A 
ATOM     41  C   UNL     1      -1.294  12.764  21.089  0.00  0.00    +0.000 A 
ATOM     42  C   UNL     1      -0.289  11.793  21.154  0.00  0.00    +0.000 A 
ENDBRANCH  34  37
ENDBRANCH  28  31
ENDBRANCH  24  25
ENDBRANCH   1  24
TORSDOF 10
ENDMDL
MODEL 4
REMARK VINA RESULT:      -8.1      3.417      4.693
REMARK  Name = 
REMARK  11 active torsions:
REMARK  status: ('A' for Active; 'I' for Inactive)
REMARK    1  A    between atoms: C_1  and  C_2
REMARK    2  A    between atoms: C_2  and  N_3
REMARK    3  A    between atoms: C_2  and  C_31
REMARK    4  A    between atoms: C_4  and  C_6
REMARK    5  A    between atoms: C_6  and  C_7
REMARK    6  A    between atoms: C_6  and  N_24
REMARK    7  A    between atoms: C_7  and  C_8
REMARK    8  A    between atoms: C_11  and  N_12
REMARK    9  A    between atoms: N_15  and  C_16
REMARK   10  A    between atoms: C_25  and  C_27
REMARK   11  A    between atoms: N_29  and  O_30
REMARK                            x       y       z     vdW  Elec       q    Type
REMARK                         _______ _______ _______ _____ _____    ______ ____
ROOT
ATOM      1  C   UNL     1       5.115   4.329  16.847  0.00  0.00    +0.000 C 
ENDROOT
BRANCH   1   3
ATOM      2  N   UNL     1       6.225   4.222  14.665  0.00  0.00    +0.000 N 
ATOM      3  C   UNL     1       5.401   4.978  15.475  0.00  0.00    +0.000 C 
ATOM      4  O   UNL     1       4.996   6.096  15.172  0.00  0.00    +0.000 OA
ATOM      5  H   UNL     1       6.663   3.389  15.047  0.00  0.00    +0.000 HD
BRANCH   2   7
ATOM      6  C   UNL     1       8.025   5.244  13.382  0.00  0.00    +0.000 C 
ATOM      7  C   UNL     1       6.617   4.644  13.332  0.00  0.00    +0.000 C 
BRANCH   7   8
ATOM      8  C   UNL     1       6.463   3.482  12.359  0.00  0.00    +0.000 A 
ATOM      9  C   UNL     1       5.175   3.027  12.031  0.00  0.00    +0.000 A 
ATOM     10  C   UNL     1       4.996   1.960  11.141  0.00  0.00    +0.000 A 
ATOM     11  C   UNL     1       6.099   1.331  10.573  0.00  0.00    +0.000 A 
ATOM     12  C   UNL     1       7.383   1.758  10.903  0.00  0.00    +0.000 A 
ATOM     13  C   UNL     1       7.563   2.818  11.795  0.00  0.00    +0.000 A 
ENDBRANCH   7   8
ENDBRANCH   2   7
ENDBRANCH   1   3
BRANCH   1  14
ATOM     14  N   UNL     1       5.850   5.099  17.847  0.00  0.00    +0.000 N 
ATOM     15  C   UNL     1       7.222   5.033  17.930  0.00  0.00    +0.000 C 
ATOM     16  O   UNL     1       7.931   4.286  17.260  0.00  0.00    +0.000 OA
ATOM     17  H   UNL     1       5.406   5.905  18.287  0.00  0.00    +0.000 HD
BRANCH  15  18
ATOM     18  C   UNL     1       7.859   5.995  18.944  0.00  0.00    +0.000 C 
ATOM     19  O   UNL     1       8.067   5.654  20.102  0.00  0.00    +0.000 OA
ATOM     20  N   UNL     1       8.164   7.219  18.412  0.00  0.00    +0.000 N 
ATOM     21  H   UNL     1       8.007   7.446  17.432  0.00  0.00    +0.000 HD
BRANCH  20  22
ATOM     22  O   UNL     1       8.795   8.175  19.233  0.00  0.00    +0.000 OA
ATOM     23  H   UNL     1       9.743   8.066  19.013  0.00  0.00    +0.000 HD
ENDBRANCH  20  22
ENDBRANCH  15  18
ENDBRANCH   1  14
BRANCH   1  24
ATOM     24  C   UNL     1       3.608   4.309  17.153  0.00  0.00    +0.000 C 
BRANCH  24  25
ATOM     25  C   UNL     1       3.096   5.282  18.199  0.00  0.00    +0.000 A 
ATOM     26  C   UNL     1       3.037   6.662  17.995  0.00  0.00    +0.000 A 
ATOM     27  C   UNL     1       2.598   7.518  19.004  0.00  0.00    +0.000 A 
ATOM     28  C   UNL     1       2.157   7.026  20.230  0.00  0.00    +0.000 A 
ATOM     29  C   UNL     1       2.223   5.651  20.457  0.00  0.00    +0.000 A 
ATOM     30  C   UNL     1       2.681   4.787  19.448  0.00  0.00    +0.000 A 
BRANCH  28  31
ATOM     31  N   UNL     1       1.649   7.879  21.236  0.00  0.00    +0.000 N 
ATOM     32  C   UNL     1       0.877   9.002  20.972  0.00  0.00    +0.000 C 
ATOM     33  O   UNL     1       0.474   9.327  19.859  0.00  0.00    +0.000 OA
ATOM     34  N   UNL     1       0.618   9.741  22.115  0.00  0.00    +0.000 N 
ATOM     35  H   UNL     1       1.595   7.514  22.176  0.00  0.00    +0.000 HD
ATOM     36  H   UNL     1       1.377   9.748  22.781  0.00  0.00    +0.000 HD
BRANCH  34  37
ATOM     37  C   UNL     1      -0.160  10.923  22.034  0.00  0.00    +0.000 A 
ATOM     38  C   UNL     1      -1.425  11.006  22.629  0.00  0.00    +0.000 A 
ATOM     39  C   UNL     1      -2.193  12.165  22.500  0.00  0.00    +0.000 A 
ATOM     40  C   UNL     1      -1.704  13.239  21.761  0.00  0.00    +0.000 A 
ATOM     41  C   UNL     1      -0.444  13.162  21.168  0.00  0.00    +0.000 A 
ATOM     42  C   UNL     1       0.338  12.014  21.323  0.00  0.00    +0.000 A 
ENDBRANCH  34  37
ENDBRANCH  28  31
ENDBRANCH  24  25
ENDBRANCH   1  24
TORSDOF 10
ENDMDL
MODEL 5
REMARK VINA RESULT:      -8.0      3.165      4.337
REMARK  Name = 
REMARK  11 active torsions:
REMARK  status: ('A' for Active; 'I' for Inactive)
REMARK    1  A    between atoms: C_1  and  C_2
REMARK    2  A    between atoms: C_2  and  N_3
REMARK    3  A    between atoms: C_2  and  C_31
REMARK    4  A    between atoms: C_4  and  C_6
REMARK    5  A    between atoms: C_6  and  C_7
REMARK    6  A    between atoms: C_6  and  N_24
REMARK    7  A    between atoms: C_7  and  C_8
REMARK    8  A    between atoms: C_11  and  N_12
REMARK    9  A    between atoms: N_15  and  C_16
REMARK   10  A    between atoms: C_25  and  C_27
REMARK   11  A    between atoms: N_29  and  O_30
REMARK                            x       y       z     vdW  Elec       q    Type
REMARK                         _______ _______ _______ _____ _____    ______ ____
ROOT
ATOM      1  C   UNL     1       3.401   3.583  17.484  0.00  0.00    +0.000 C 
ENDROOT
BRANCH   1   3
ATOM      2  N   UNL     1       5.734   3.665  16.740  0.00  0.00    +0.000 N 
ATOM      3  C   UNL     1       4.574   4.397  16.895  0.00  0.00    +0.000 C 
ATOM      4  O   UNL     1       4.497   5.600  16.665  0.00  0.00    +0.000 OA
ATOM      5  H   UNL     1       5.776   2.722  17.113  0.00  0.00    +0.000 HD
BRANCH   2   7
ATOM      6  C   UNL     1       6.752   4.559  14.716  0.00  0.00    +0.000 C 
ATOM      7  C   UNL     1       6.955   4.235  16.199  0.00  0.00    +0.000 C 
BRANCH   7   8
ATOM      8  C   UNL     1       7.388   5.423  17.049  0.00  0.00    +0.000 A 
ATOM      9  C   UNL     1       7.770   5.210  18.383  0.00  0.00    +0.000 A 
ATOM     10  C   UNL     1       8.172   6.279  19.194  0.00  0.00    +0.000 A 
ATOM     11  C   UNL     1       8.191   7.573  18.686  0.00  0.00    +0.000 A 
ATOM     12  C   UNL     1       7.797   7.804  17.370  0.00  0.00    +0.000 A 
ATOM     13  C   UNL     1       7.390   6.739  16.562  0.00  0.00    +0.000 A 
ENDBRANCH   7   8
ENDBRANCH   2   7
ENDBRANCH   1   3
BRANCH   1  14
ATOM     14  N   UNL     1       3.770   3.227  18.852  0.00  0.00    +0.000 N 
ATOM     15  C   UNL     1       3.909   1.912  19.233  0.00  0.00    +0.000 C 
ATOM     16  O   UNL     1       3.661   0.943  18.518  0.00  0.00    +0.000 OA
ATOM     17  H   UNL     1       4.216   3.923  19.449  0.00  0.00    +0.000 HD
BRANCH  15  18
ATOM     18  C   UNL     1       4.426   1.701  20.664  0.00  0.00    +0.000 C 
ATOM     19  O   UNL     1       3.845   2.185  21.628  0.00  0.00    +0.000 OA
ATOM     20  N   UNL     1       5.554   0.930  20.724  0.00  0.00    +0.000 N 
ATOM     21  H   UNL     1       5.983   0.517  19.897  0.00  0.00    +0.000 HD
BRANCH  20  22
ATOM     22  O   UNL     1       6.100   0.627  21.988  0.00  0.00    +0.000 OA
ATOM     23  H   UNL     1       6.700   1.381  22.158  0.00  0.00    +0.000 HD
ENDBRANCH  20  22
ENDBRANCH  15  18
ENDBRANCH   1  14
BRANCH   1  24
ATOM     24  C   UNL     1       2.089   4.385  17.449  0.00  0.00    +0.000 C 
BRANCH  24  25
ATOM     25  C   UNL     1       1.896   5.452  18.511  0.00  0.00    +0.000 A 
ATOM     26  C   UNL     1       1.518   5.164  19.824  0.00  0.00    +0.000 A 
ATOM     27  C   UNL     1       1.313   6.184  20.752  0.00  0.00    +0.000 A 
ATOM     28  C   UNL     1       1.525   7.519  20.418  0.00  0.00    +0.000 A 
ATOM     29  C   UNL     1       1.889   7.827  19.107  0.00  0.00    +0.000 A 
ATOM     30  C   UNL     1       2.080   6.801  18.165  0.00  0.00    +0.000 A 
BRANCH  28  31
ATOM     31  N   UNL     1       1.383   8.556  21.368  0.00  0.00    +0.000 N 
ATOM     32  C   UNL     1       0.350   9.483  21.342  0.00  0.00    +0.000 C 
ATOM     33  O   UNL     1      -0.595   9.454  20.561  0.00  0.00    +0.000 OA
ATOM     34  N   UNL     1       0.510  10.473  22.299  0.00  0.00    +0.000 N 
ATOM     35  H   UNL     1       1.867   8.454  22.248  0.00  0.00    +0.000 HD
ATOM     36  H   UNL     1       1.472  10.735  22.461  0.00  0.00    +0.000 HD
BRANCH  34  37
ATOM     37  C   UNL     1      -0.454  11.506  22.418  0.00  0.00    +0.000 A 
ATOM     38  C   UNL     1      -0.257  12.759  21.825  0.00  0.00    +0.000 A 
ATOM     39  C   UNL     1      -1.200  13.775  21.992  0.00  0.00    +0.000 A 
ATOM     40  C   UNL     1      -2.334  13.546  22.766  0.00  0.00    +0.000 A 
ATOM     41  C   UNL     1      -2.535  12.300  23.358  0.00  0.00    +0.000 A 
ATOM     42  C   UNL     1      -1.607  11.271  23.165  0.00  0.00    +0.000 A 
ENDBRANCH  34  37
ENDBRANCH  28  31
ENDBRANCH  24  25
ENDBRANCH   1  24
TORSDOF 10
ENDMDL
MODEL 6
REMARK VINA RESULT:      -8.0      1.688      2.112
REMARK  Name = 
REMARK  11 active torsions:
REMARK  status: ('A' for Active; 'I' for Inactive)
REMARK    1  A    between atoms: C_1  and  C_2
REMARK    2  A    between atoms: C_2  and  N_3
REMARK    3  A    between atoms: C_2  and  C_31
REMARK    4  A    between atoms: C_4  and  C_6
REMARK    5  A    between atoms: C_6  and  C_7
REMARK    6  A    between atoms: C_6  and  N_24
REMARK    7  A    between atoms: C_7  and  C_8
REMARK    8  A    between atoms: C_11  and  N_12
REMARK    9  A    between atoms: N_15  and  C_16
REMARK   10  A    between atoms: C_25  and  C_27
REMARK   11  A    between atoms: N_29  and  O_30
REMARK                            x       y       z     vdW  Elec       q    Type
REMARK                         _______ _______ _______ _____ _____    ______ ____
ROOT
ATOM      1  C   UNL     1       3.250   6.082  17.883  0.00  0.00    +0.000 C 
ENDROOT
BRANCH   1   3
ATOM      2  N   UNL     1       5.437   5.294  17.110  0.00  0.00    +0.000 N 
ATOM      3  C   UNL     1       4.544   6.348  17.084  0.00  0.00    +0.000 C 
ATOM      4  O   UNL     1       4.784   7.425  16.549  0.00  0.00    +0.000 OA
ATOM      5  H   UNL     1       5.249   4.502  17.717  0.00  0.00    +0.000 HD
BRANCH   2   7
ATOM      6  C   UNL     1       7.763   4.586  17.251  0.00  0.00    +0.000 C 
ATOM      7  C   UNL     1       6.715   5.333  16.421  0.00  0.00    +0.000 C 
BRANCH   7   8
ATOM      8  C   UNL     1       6.548   4.809  15.000  0.00  0.00    +0.000 A 
ATOM      9  C   UNL     1       5.404   4.063  14.672  0.00  0.00    +0.000 A 
ATOM     10  C   UNL     1       5.219   3.565  13.376  0.00  0.00    +0.000 A 
ATOM     11  C   UNL     1       6.175   3.799  12.394  0.00  0.00    +0.000 A 
ATOM     12  C   UNL     1       7.325   4.521  12.708  0.00  0.00    +0.000 A 
ATOM     13  C   UNL     1       7.513   5.013  14.002  0.00  0.00    +0.000 A 
ENDBRANCH   7   8
ENDBRANCH   2   7
ENDBRANCH   1   3
BRANCH   1  14
ATOM     14  N   UNL     1       3.265   4.673  18.270  0.00  0.00    +0.000 N 
ATOM     15  C   UNL     1       2.243   3.824  17.913  0.00  0.00    +0.000 C 
ATOM     16  O   UNL     1       1.214   4.169  17.335  0.00  0.00    +0.000 OA
ATOM     17  H   UNL     1       4.147   4.235  18.537  0.00  0.00    +0.000 HD
BRANCH  15  18
ATOM     18  C   UNL     1       2.464   2.349  18.280  0.00  0.00    +0.000 C 
ATOM     19  O   UNL     1       1.565   1.672  18.765  0.00  0.00    +0.000 OA
ATOM     20  N   UNL     1       3.726   1.905  17.996  0.00  0.00    +0.000 N 
ATOM     21  H   UNL     1       4.431   2.494  17.557  0.00  0.00    +0.000 HD
BRANCH  20  22
ATOM     22  O   UNL     1       4.039   0.553  18.246  0.00  0.00    +0.000 OA
ATOM     23  H   UNL     1       5.002   0.513  18.076  0.00  0.00    +0.000 HD
ENDBRANCH  20  22
ENDBRANCH  15  18
ENDBRANCH   1  14
BRANCH   1  24
ATOM     24  C   UNL     1       3.153   6.999  19.114  0.00  0.00    +0.000 C 
BRANCH  24  25
ATOM     25  C   UNL     1       2.089   8.081  19.095  0.00  0.00    +0.000 A 
ATOM     26  C   UNL     1       1.329   8.425  20.216  0.00  0.00    +0.000 A 
ATOM     27  C   UNL     1       0.334   9.398  20.136  0.00  0.00    +0.000 A 
ATOM     28  C   UNL     1       0.097  10.095  18.954  0.00  0.00    +0.000 A 
ATOM     29  C   UNL     1       0.836   9.754  17.821  0.00  0.00    +0.000 A 
ATOM     30  C   UNL     1       1.828   8.762  17.894  0.00  0.00    +0.000 A 
BRANCH  28  31
ATOM     31  N   UNL     1      -0.865  11.128  18.879  0.00  0.00    +0.000 N 
ATOM     32  C   UNL     1      -1.361  11.797  19.990  0.00  0.00    +0.000 C 
ATOM     33  O   UNL     1      -0.961  11.635  21.138  0.00  0.00    +0.000 OA
ATOM     34  N   UNL     1      -2.387  12.669  19.662  0.00  0.00    +0.000 N 
ATOM     35  H   UNL     1      -0.983  11.594  17.991  0.00  0.00    +0.000 HD
ATOM     36  H   UNL     1      -2.982  12.342  18.914  0.00  0.00    +0.000 HD
BRANCH  34  37
ATOM     37  C   UNL     1      -3.013  13.440  20.674  0.00  0.00    +0.000 A 
ATOM     38  C   UNL     1      -2.514  14.693  21.049  0.00  0.00    +0.000 A 
ATOM     39  C   UNL     1      -3.121  15.416  22.077  0.00  0.00    +0.000 A 
ATOM     40  C   UNL     1      -4.218  14.879  22.747  0.00  0.00    +0.000 A 
ATOM     41  C   UNL     1      -4.719  13.631  22.376  0.00  0.00    +0.000 A 
ATOM     42  C   UNL     1      -4.131  12.921  21.325  0.00  0.00    +0.000 A 
ENDBRANCH  34  37
ENDBRANCH  28  31
ENDBRANCH  24  25
ENDBRANCH   1  24
TORSDOF 10
ENDMDL
MODEL 7
REMARK VINA RESULT:      -7.9      2.837      3.568
REMARK  Name = 
REMARK  11 active torsions:
REMARK  status: ('A' for Active; 'I' for Inactive)
REMARK    1  A    between atoms: C_1  and  C_2
REMARK    2  A    between atoms: C_2  and  N_3
REMARK    3  A    between atoms: C_2  and  C_31
REMARK    4  A    between atoms: C_4  and  C_6
REMARK    5  A    between atoms: C_6  and  C_7
REMARK    6  A    between atoms: C_6  and  N_24
REMARK    7  A    between atoms: C_7  and  C_8
REMARK    8  A    between atoms: C_11  and  N_12
REMARK    9  A    between atoms: N_15  and  C_16
REMARK   10  A    between atoms: C_25  and  C_27
REMARK   11  A    between atoms: N_29  and  O_30
REMARK                            x       y       z     vdW  Elec       q    Type
REMARK                         _______ _______ _______ _____ _____    ______ ____
ROOT
ATOM      1  C   UNL     1       3.333   5.666  17.915  0.00  0.00    +0.000 C 
ENDROOT
BRANCH   1   3
ATOM      2  N   UNL     1       5.281   5.130  16.529  0.00  0.00    +0.000 N 
ATOM      3  C   UNL     1       4.707   6.084  17.346  0.00  0.00    +0.000 C 
ATOM      4  O   UNL     1       5.264   7.130  17.660  0.00  0.00    +0.000 OA
ATOM      5  H   UNL     1       4.844   4.217  16.454  0.00  0.00    +0.000 HD
BRANCH   2   7
ATOM      6  C   UNL     1       7.672   4.741  16.778  0.00  0.00    +0.000 C 
ATOM      7  C   UNL     1       6.570   5.321  15.888  0.00  0.00    +0.000 C 
BRANCH   7   8
ATOM      8  C   UNL     1       6.533   4.744  14.478  0.00  0.00    +0.000 A 
ATOM      9  C   UNL     1       7.552   5.079  13.572  0.00  0.00    +0.000 A 
ATOM     10  C   UNL     1       7.549   4.568  12.268  0.00  0.00    +0.000 A 
ATOM     11  C   UNL     1       6.526   3.724  11.850  0.00  0.00    +0.000 A 
ATOM     12  C   UNL     1       5.497   3.398  12.731  0.00  0.00    +0.000 A 
ATOM     13  C   UNL     1       5.496   3.911  14.030  0.00  0.00    +0.000 A 
ENDBRANCH   7   8
ENDBRANCH   2   7
ENDBRANCH   1   3
BRANCH   1  14
ATOM     14  N   UNL     1       3.370   4.218  18.108  0.00  0.00    +0.000 N 
ATOM     15  C   UNL     1       4.289   3.635  18.950  0.00  0.00    +0.000 C 
ATOM     16  O   UNL     1       5.190   4.236  19.530  0.00  0.00    +0.000 OA
ATOM     17  H   UNL     1       2.550   3.659  17.872  0.00  0.00    +0.000 HD
BRANCH  15  18
ATOM     18  C   UNL     1       4.120   2.121  19.148  0.00  0.00    +0.000 C 
ATOM     19  O   UNL     1       3.144   1.526  18.705  0.00  0.00    +0.000 OA
ATOM     20  N   UNL     1       5.154   1.546  19.836  0.00  0.00    +0.000 N 
ATOM     21  H   UNL     1       5.964   2.075  20.153  0.00  0.00    +0.000 HD
BRANCH  20  22
ATOM     22  O   UNL     1       5.136   0.151  20.042  0.00  0.00    +0.000 OA
ATOM     23  H   UNL     1       5.054  -0.206  19.135  0.00  0.00    +0.000 HD
ENDBRANCH  20  22
ENDBRANCH  15  18
ENDBRANCH   1  14
BRANCH   1  24
ATOM     24  C   UNL     1       3.026   6.398  19.232  0.00  0.00    +0.000 C 
BRANCH  24  25
ATOM     25  C   UNL     1       2.182   7.657  19.148  0.00  0.00    +0.000 A 
ATOM     26  C   UNL     1       1.987   8.370  17.963  0.00  0.00    +0.000 A 
ATOM     27  C   UNL     1       1.237   9.545  17.947  0.00  0.00    +0.000 A 
ATOM     28  C   UNL     1       0.615  10.021  19.098  0.00  0.00    +0.000 A 
ATOM     29  C   UNL     1       0.810   9.330  20.295  0.00  0.00    +0.000 A 
ATOM     30  C   UNL     1       1.580   8.155  20.317  0.00  0.00    +0.000 A 
BRANCH  28  31
ATOM     31  N   UNL     1      -0.202  11.176  19.080  0.00  0.00    +0.000 N 
ATOM     32  C   UNL     1       0.268  12.451  19.361  0.00  0.00    +0.000 C 
ATOM     33  O   UNL     1       1.445  12.733  19.562  0.00  0.00    +0.000 OA
ATOM     34  N   UNL     1      -0.753  13.387  19.408  0.00  0.00    +0.000 N 
ATOM     35  H   UNL     1      -1.073  11.124  18.574  0.00  0.00    +0.000 HD
ATOM     36  H   UNL     1      -1.619  13.032  19.787  0.00  0.00    +0.000 HD
BRANCH  34  37
ATOM     37  C   UNL     1      -0.456  14.746  19.682  0.00  0.00    +0.000 A 
ATOM     38  C   UNL     1      -0.180  15.653  18.651  0.00  0.00    +0.000 A 
ATOM     39  C   UNL     1       0.151  16.977  18.945  0.00  0.00    +0.000 A 
ATOM     40  C   UNL     1       0.225  17.394  20.272  0.00  0.00    +0.000 A 
ATOM     41  C   UNL     1      -0.049  16.494  21.302  0.00  0.00    +0.000 A 
ATOM     42  C   UNL     1      -0.413  15.176  21.007  0.00  0.00    +0.000 A 
ENDBRANCH  34  37
ENDBRANCH  28  31
ENDBRANCH  24  25
ENDBRANCH   1  24
TORSDOF 10
ENDMDL
MODEL 8
REMARK VINA RESULT:      -7.8      3.379      4.589
REMARK  Name = 
REMARK  11 active torsions:
REMARK  status: ('A' for Active; 'I' for Inactive)
REMARK    1  A    between atoms: C_1  and  C_2
REMARK    2  A    between atoms: C_2  and  N_3
REMARK    3  A    between atoms: C_2  and  C_31
REMARK    4  A    between atoms: C_4  and  C_6
REMARK    5  A    between atoms: C_6  and  C_7
REMARK    6  A    between atoms: C_6  and  N_24
REMARK    7  A    between atoms: C_7  and  C_8
REMARK    8  A    between atoms: C_11  and  N_12
REMARK    9  A    between atoms: N_15  and  C_16
REMARK   10  A    between atoms: C_25  and  C_27
REMARK   11  A    between atoms: N_29  and  O_30
REMARK                            x       y       z     vdW  Elec       q    Type
REMARK                         _______ _______ _______ _____ _____    ______ ____
ROOT
ATOM      1  C   UNL     1       4.973   4.084  17.018  0.00  0.00    +0.000 C 
ENDROOT
BRANCH   1   3
ATOM      2  N   UNL     1       5.977   4.058  14.784  0.00  0.00    +0.000 N 
ATOM      3  C   UNL     1       5.255   4.814  15.687  0.00  0.00    +0.000 C 
ATOM      4  O   UNL     1       4.935   5.981  15.489  0.00  0.00    +0.000 OA
ATOM      5  H   UNL     1       6.359   3.166  15.081  0.00  0.00    +0.000 HD
BRANCH   2   7
ATOM      6  C   UNL     1       7.801   5.034  13.498  0.00  0.00    +0.000 C 
ATOM      7  C   UNL     1       6.348   4.551  13.469  0.00  0.00    +0.000 C 
BRANCH   7   8
ATOM      8  C   UNL     1       6.062   3.484  12.421  0.00  0.00    +0.000 A 
ATOM      9  C   UNL     1       4.769   3.381  11.881  0.00  0.00    +0.000 A 
ATOM     10  C   UNL     1       4.470   2.411  10.916  0.00  0.00    +0.000 A 
ATOM     11  C   UNL     1       5.453   1.528  10.483  0.00  0.00    +0.000 A 
ATOM     12  C   UNL     1       6.735   1.604  11.024  0.00  0.00    +0.000 A 
ATOM     13  C   UNL     1       7.033   2.568  11.990  0.00  0.00    +0.000 A 
ENDBRANCH   7   8
ENDBRANCH   2   7
ENDBRANCH   1   3
BRANCH   1  14
ATOM     14  N   UNL     1       5.764   4.750  18.050  0.00  0.00    +0.000 N 
ATOM     15  C   UNL     1       7.118   4.940  17.898  0.00  0.00    +0.000 C 
ATOM     16  O   UNL     1       7.787   4.508  16.962  0.00  0.00    +0.000 OA
ATOM     17  H   UNL     1       5.296   5.340  18.739  0.00  0.00    +0.000 HD
BRANCH  15  18
ATOM     18  C   UNL     1       7.786   5.769  19.005  0.00  0.00    +0.000 C 
ATOM     19  O   UNL     1       8.209   6.898  18.788  0.00  0.00    +0.000 OA
ATOM     20  N   UNL     1       7.834   5.123  20.210  0.00  0.00    +0.000 N 
ATOM     21  H   UNL     1       7.436   4.196  20.354  0.00  0.00    +0.000 HD
BRANCH  20  22
ATOM     22  O   UNL     1       8.384   5.799  21.319  0.00  0.00    +0.000 OA
ATOM     23  H   UNL     1       8.570   5.075  21.951  0.00  0.00    +0.000 HD
ENDBRANCH  20  22
ENDBRANCH  15  18
ENDBRANCH   1  14
BRANCH   1  24
ATOM     24  C   UNL     1       3.474   4.105  17.361  0.00  0.00    +0.000 C 
BRANCH  24  25
ATOM     25  C   UNL     1       3.019   5.074  18.438  0.00  0.00    +0.000 A 
ATOM     26  C   UNL     1       2.597   4.664  19.705  0.00  0.00    +0.000 A 
ATOM     27  C   UNL     1       2.149   5.590  20.646  0.00  0.00    +0.000 A 
ATOM     28  C   UNL     1       2.153   6.956  20.376  0.00  0.00    +0.000 A 
ATOM     29  C   UNL     1       2.557   7.382  19.109  0.00  0.00    +0.000 A 
ATOM     30  C   UNL     1       2.993   6.449  18.154  0.00  0.00    +0.000 A 
BRANCH  28  31
ATOM     31  N   UNL     1       1.762   7.909  21.344  0.00  0.00    +0.000 N 
ATOM     32  C   UNL     1       0.829   8.908  21.104  0.00  0.00    +0.000 C 
ATOM     33  O   UNL     1       0.177   9.021  20.070  0.00  0.00    +0.000 OA
ATOM     34  N   UNL     1       0.720   9.791  22.167  0.00  0.00    +0.000 N 
ATOM     35  H   UNL     1       1.939   7.690  22.314  0.00  0.00    +0.000 HD
ATOM     36  H   UNL     1       1.592   9.965  22.646  0.00  0.00    +0.000 HD
BRANCH  34  37
ATOM     37  C   UNL     1      -0.189  10.876  22.097  0.00  0.00    +0.000 A 
ATOM     38  C   UNL     1       0.003  11.931  21.196  0.00  0.00    +0.000 A 
ATOM     39  C   UNL     1      -0.881  13.011  21.173  0.00  0.00    +0.000 A 
ATOM     40  C   UNL     1      -1.951  13.048  22.064  0.00  0.00    +0.000 A 
ATOM     41  C   UNL     1      -2.147  11.999  22.962  0.00  0.00    +0.000 A 
ATOM     42  C   UNL     1      -1.280  10.902  22.964  0.00  0.00    +0.000 A 
ENDBRANCH  34  37
ENDBRANCH  28  31
ENDBRANCH  24  25
ENDBRANCH   1  24
TORSDOF 10
ENDMDL
MODEL 9
REMARK VINA RESULT:      -7.7      2.639      3.199
REMARK  Name = 
REMARK  11 active torsions:
REMARK  status: ('A' for Active; 'I' for Inactive)
REMARK    1  A    between atoms: C_1  and  C_2
REMARK    2  A    between atoms: C_2  and  N_3
REMARK    3  A    between atoms: C_2  and  C_31
REMARK    4  A    between atoms: C_4  and  C_6
REMARK    5  A    between atoms: C_6  and  C_7
REMARK    6  A    between atoms: C_6  and  N_24
REMARK    7  A    between atoms: C_7  and  C_8
REMARK    8  A    between atoms: C_11  and  N_12
REMARK    9  A    between atoms: N_15  and  C_16
REMARK   10  A    between atoms: C_25  and  C_27
REMARK   11  A    between atoms: N_29  and  O_30
REMARK                            x       y       z     vdW  Elec       q    Type
REMARK                         _______ _______ _______ _____ _____    ______ ____
ROOT
ATOM      1  C   UNL     1       3.300   5.668  18.077  0.00  0.00    +0.000 C 
ENDROOT
BRANCH   1   3
ATOM      2  N   UNL     1       5.173   5.187  16.573  0.00  0.00    +0.000 N 
ATOM      3  C   UNL     1       4.590   6.148  17.376  0.00  0.00    +0.000 C 
ATOM      4  O   UNL     1       5.086   7.250  17.582  0.00  0.00    +0.000 OA
ATOM      5  H   UNL     1       4.805   4.241  16.587  0.00  0.00    +0.000 HD
BRANCH   2   7
ATOM      6  C   UNL     1       7.599   4.986  16.649  0.00  0.00    +0.000 C 
ATOM      7  C   UNL     1       6.391   5.429  15.820  0.00  0.00    +0.000 C 
BRANCH   7   8
ATOM      8  C   UNL     1       6.290   4.765  14.452  0.00  0.00    +0.000 A 
ATOM      9  C   UNL     1       5.120   4.065  14.114  0.00  0.00    +0.000 A 
ATOM     10  C   UNL     1       4.993   3.441  12.866  0.00  0.00    +0.000 A 
ATOM     11  C   UNL     1       6.033   3.503  11.944  0.00  0.00    +0.000 A 
ATOM     12  C   UNL     1       7.207   4.177  12.273  0.00  0.00    +0.000 A 
ATOM     13  C   UNL     1       7.337   4.794  13.519  0.00  0.00    +0.000 A 
ENDBRANCH   7   8
ENDBRANCH   2   7
ENDBRANCH   1   3
BRANCH   1  14
ATOM     14  N   UNL     1       3.375   4.212  18.165  0.00  0.00    +0.000 N 
ATOM     15  C   UNL     1       4.338   3.593  18.929  0.00  0.00    +0.000 C 
ATOM     16  O   UNL     1       5.249   4.173  19.516  0.00  0.00    +0.000 OA
ATOM     17  H   UNL     1       2.558   3.651  17.921  0.00  0.00    +0.000 HD
BRANCH  15  18
ATOM     18  C   UNL     1       4.208   2.065  19.025  0.00  0.00    +0.000 C 
ATOM     19  O   UNL     1       3.347   1.459  18.399  0.00  0.00    +0.000 OA
ATOM     20  N   UNL     1       5.139   1.494  19.848  0.00  0.00    +0.000 N 
ATOM     21  H   UNL     1       5.862   2.035  20.321  0.00  0.00    +0.000 HD
BRANCH  20  22
ATOM     22  O   UNL     1       5.152   0.090  19.985  0.00  0.00    +0.000 OA
ATOM     23  H   UNL     1       4.508  -0.204  19.309  0.00  0.00    +0.000 HD
ENDBRANCH  20  22
ENDBRANCH  15  18
ENDBRANCH   1  14
BRANCH   1  24
ATOM     24  C   UNL     1       3.149   6.307  19.468  0.00  0.00    +0.000 C 
BRANCH  24  25
ATOM     25  C   UNL     1       2.211   7.494  19.592  0.00  0.00    +0.000 A 
ATOM     26  C   UNL     1       2.023   8.428  18.571  0.00  0.00    +0.000 A 
ATOM     27  C   UNL     1       1.182   9.526  18.750  0.00  0.00    +0.000 A 
ATOM     28  C   UNL     1       0.463   9.702  19.929  0.00  0.00    +0.000 A 
ATOM     29  C   UNL     1       0.650   8.786  20.965  0.00  0.00    +0.000 A 
ATOM     30  C   UNL     1       1.510   7.689  20.794  0.00  0.00    +0.000 A 
BRANCH  28  31
ATOM     31  N   UNL     1      -0.442  10.775  20.097  0.00  0.00    +0.000 N 
ATOM     32  C   UNL     1      -0.739  11.342  21.329  0.00  0.00    +0.000 C 
ATOM     33  O   UNL     1      -0.189  11.046  22.385  0.00  0.00    +0.000 OA
ATOM     34  N   UNL     1      -1.751  12.285  21.242  0.00  0.00    +0.000 N 
ATOM     35  H   UNL     1      -0.660  11.335  19.286  0.00  0.00    +0.000 HD
ATOM     36  H   UNL     1      -2.463  12.061  20.561  0.00  0.00    +0.000 HD
BRANCH  34  37
ATOM     37  C   UNL     1      -2.184  12.969  22.406  0.00  0.00    +0.000 A 
ATOM     38  C   UNL     1      -1.447  14.030  22.944  0.00  0.00    +0.000 A 
ATOM     39  C   UNL     1      -1.869  14.662  24.115  0.00  0.00    +0.000 A 
ATOM     40  C   UNL     1      -3.022  14.223  24.761  0.00  0.00    +0.000 A 
ATOM     41  C   UNL     1      -3.761  13.167  24.228  0.00  0.00    +0.000 A 
ATOM     42  C   UNL     1      -3.355  12.554  23.038  0.00  0.00    +0.000 A 
ENDBRANCH  34  37
ENDBRANCH  28  31
ENDBRANCH  24  25
ENDBRANCH   1  24
TORSDOF 10
ENDMDL
