MODEL 1
REMARK VINA RESULT:      -7.6      0.000      0.000
REMARK  Name = 
REMARK  8 active torsions:
REMARK  status: ('A' for Active; 'I' for Inactive)
REMARK    1  A    between atoms: O_1  and  C_2
REMARK    2  A    between atoms: C_2  and  C_3
REMARK    3  A    between atoms: C_3  and  C_4
REMARK    4  A    between atoms: C_4  and  N_5
REMARK    5  A    between atoms: N_8  and  C_9
REMARK    6  A    between atoms: C_9  and  C_10
REMARK    7  A    between atoms: C_10  and  C_11
REMARK    8  A    between atoms: C_11  and  C_12
REMARK                            x       y       z     vdW  Elec       q    Type
REMARK                         _______ _______ _______ _____ _____    ______ ____
ROOT
ATOM      1  C   UNL     1       3.465   5.747  19.071  0.00  0.00    +0.000 C 
ATOM      2  C   UNL     1       2.571   4.498  19.105  0.00  0.00    +0.000 A 
ATOM      3  C   UNL     1       1.589   4.379  20.125  0.00  0.00    +0.000 A 
ATOM      4  C   UNL     1       0.673   3.338  20.160  0.00  0.00    +0.000 A 
ATOM      5  C   UNL     1       0.732   2.344  19.200  0.00  0.00    +0.000 A 
ATOM      6  C   UNL     1       1.727   2.383  18.228  0.00  0.00    +0.000 A 
ATOM      7  C   UNL     1       2.648   3.443  18.170  0.00  0.00    +0.000 A 
ATOM      8  S   UNL     1       3.845   3.327  16.847  0.00  0.00    +0.000 S 
ATOM      9  C   UNL     1       4.907   4.730  17.163  0.00  0.00    +0.000 A 
ATOM     10  C   UNL     1       6.046   4.814  16.346  0.00  0.00    +0.000 A 
ATOM     11  C   UNL     1       6.926   5.888  16.447  0.00  0.00    +0.000 A 
ATOM     12  C   UNL     1       6.682   6.893  17.373  0.00  0.00    +0.000 A 
ATOM     13 CL   UNL     1       7.770   8.259  17.486  0.00  0.00    +0.000 Cl
ATOM     14  C   UNL     1       5.569   6.815  18.207  0.00  0.00    +0.000 A 
ATOM     15  C   UNL     1       4.654   5.735  18.117  0.00  0.00    +0.000 A 
ENDROOT
BRANCH   1  16
ATOM     16  C   UNL     1       2.617   7.033  18.744  0.00  0.00    +0.000 C 
BRANCH  16  17
ATOM     17  C   UNL     1       2.044   7.789  19.950  0.00  0.00    +0.000 C 
BRANCH  17  18
ATOM     18  C   UNL     1       1.410   9.140  19.520  0.00  0.00    +0.000 C 
BRANCH  18  22
ATOM     19  N   UNL     1       0.109  11.170  22.251  0.00  0.00    +0.000 NA
ATOM     20  C   UNL     1       0.621   9.781  22.343  0.00  0.00    +0.000 C 
ATOM     21  C   UNL     1      -0.150   8.845  21.401  0.00  0.00    +0.000 C 
ATOM     22  N   UNL     1       0.010   9.273  19.999  0.00  0.00    +0.000 NA
ATOM     23  C   UNL     1      -0.524  10.646  19.851  0.00  0.00    +0.000 C 
ATOM     24  C   UNL     1       0.140  11.640  20.836  0.00  0.00    +0.000 C 
BRANCH  19  25
ATOM     25  C   UNL     1      -1.199  11.365  22.912  0.00  0.00    +0.000 C 
BRANCH  25  26
ATOM     26  C   UNL     1      -1.502  12.869  23.092  0.00  0.00    +0.000 C 
BRANCH  26  27
ATOM     27  C   UNL     1      -2.941  13.129  23.513  0.00  0.00    +0.000 C 
BRANCH  27  28
ATOM     28  O   UNL     1      -3.580  11.911  23.797  0.00  0.00    +0.000 OA
ATOM     29  H   UNL     1      -3.138  11.215  23.240  0.00  0.00    +0.000 HD
ENDBRANCH  27  28
ENDBRANCH  26  27
ENDBRANCH  25  26
ENDBRANCH  19  25
ENDBRANCH  18  22
ENDBRANCH  17  18
ENDBRANCH  16  17
ENDBRANCH   1  16
TORSDOF 8
ENDMDL
MODEL 2
REMARK VINA RESULT:      -7.5      1.039      1.222
REMARK  Name = 
REMARK  8 active torsions:
REMARK  status: ('A' for Active; 'I' for Inactive)
REMARK    1  A    between atoms: O_1  and  C_2
REMARK    2  A    between atoms: C_2  and  C_3
REMARK    3  A    between atoms: C_3  and  C_4
REMARK    4  A    between atoms: C_4  and  N_5
REMARK    5  A    between atoms: N_8  and  C_9
REMARK    6  A    between atoms: C_9  and  C_10
REMARK    7  A    between atoms: C_10  and  C_11
REMARK    8  A    between atoms: C_11  and  C_12
REMARK                            x       y       z     vdW  Elec       q    Type
REMARK                         _______ _______ _______ _____ _____    ______ ____
ROOT
ATOM      1  C   UNL     1       3.445   5.835  18.804  0.00  0.00    +0.000 C 
ATOM      2  C   UNL     1       2.595   4.558  18.900  0.00  0.00    +0.000 A 
ATOM      3  C   UNL     1       1.497   4.527  19.801  0.00  0.00    +0.000 A 
ATOM      4  C   UNL     1       0.618   3.455  19.866  0.00  0.00    +0.000 A 
ATOM      5  C   UNL     1       0.830   2.347  19.067  0.00  0.00    +0.000 A 
ATOM      6  C   UNL     1       1.939   2.307  18.227  0.00  0.00    +0.000 A 
ATOM      7  C   UNL     1       2.825   3.394  18.136  0.00  0.00    +0.000 A 
ATOM      8  S   UNL     1       4.184   3.163  16.996  0.00  0.00    +0.000 S 
ATOM      9  C   UNL     1       5.150   4.647  17.243  0.00  0.00    +0.000 A 
ATOM     10  C   UNL     1       6.380   4.679  16.566  0.00  0.00    +0.000 A 
ATOM     11  C   UNL     1       7.205   5.799  16.625  0.00  0.00    +0.000 A 
ATOM     12  C   UNL     1       6.812   6.905  17.367  0.00  0.00    +0.000 A 
ATOM     13 CL   UNL     1       7.832   8.325  17.422  0.00  0.00    +0.000 Cl
ATOM     14  C   UNL     1       5.605   6.882  18.063  0.00  0.00    +0.000 A 
ATOM     15  C   UNL     1       4.745   5.755  18.012  0.00  0.00    +0.000 A 
ENDROOT
BRANCH   1  16
ATOM     16  C   UNL     1       2.604   7.022  18.203  0.00  0.00    +0.000 C 
BRANCH  16  17
ATOM     17  C   UNL     1       2.195   8.127  19.186  0.00  0.00    +0.000 C 
BRANCH  17  18
ATOM     18  C   UNL     1       1.482   9.298  18.457  0.00  0.00    +0.000 C 
BRANCH  18  22
ATOM     19  N   UNL     1       0.288  12.325  20.092  0.00  0.00    +0.000 NA
ATOM     20  C   UNL     1       0.967  11.176  20.739  0.00  0.00    +0.000 C 
ATOM     21  C   UNL     1       0.204   9.869  20.480  0.00  0.00    +0.000 C 
ATOM     22  N   UNL     1       0.143   9.579  19.035  0.00  0.00    +0.000 NA
ATOM     23  C   UNL     1      -0.562  10.687  18.352  0.00  0.00    +0.000 C 
ATOM     24  C   UNL     1       0.095  12.062  18.637  0.00  0.00    +0.000 C 
BRANCH  19  25
ATOM     25  C   UNL     1      -0.945  12.753  20.786  0.00  0.00    +0.000 C 
BRANCH  25  26
ATOM     26  C   UNL     1      -0.691  12.923  22.300  0.00  0.00    +0.000 C 
BRANCH  26  27
ATOM     27  C   UNL     1      -1.680  12.141  23.151  0.00  0.00    +0.000 C 
BRANCH  27  28
ATOM     28  O   UNL     1      -1.147  10.880  23.460  0.00  0.00    +0.000 OA
ATOM     29  H   UNL     1      -0.710  10.539  22.634  0.00  0.00    +0.000 HD
ENDBRANCH  27  28
ENDBRANCH  26  27
ENDBRANCH  25  26
ENDBRANCH  19  25
ENDBRANCH  18  22
ENDBRANCH  17  18
ENDBRANCH  16  17
ENDBRANCH   1  16
TORSDOF 8
ENDMDL
MODEL 3
REMARK VINA RESULT:      -7.4      1.153      1.176
REMARK  Name = 
REMARK  8 active torsions:
REMARK  status: ('A' for Active; 'I' for Inactive)
REMARK    1  A    between atoms: O_1  and  C_2
REMARK    2  A    between atoms: C_2  and  C_3
REMARK    3  A    between atoms: C_3  and  C_4
REMARK    4  A    between atoms: C_4  and  N_5
REMARK    5  A    between atoms: N_8  and  C_9
REMARK    6  A    between atoms: C_9  and  C_10
REMARK    7  A    between atoms: C_10  and  C_11
REMARK    8  A    between atoms: C_11  and  C_12
REMARK                            x       y       z     vdW  Elec       q    Type
REMARK                         _______ _______ _______ _____ _____    ______ ____
ROOT
ATOM      1  C   UNL     1       3.325   5.846  18.879  0.00  0.00    +0.000 C 
ATOM      2  C   UNL     1       2.515   4.555  19.072  0.00  0.00    +0.000 A 
ATOM      3  C   UNL     1       1.398   4.565  19.950  0.00  0.00    +0.000 A 
ATOM      4  C   UNL     1       0.553   3.474  20.093  0.00  0.00    +0.000 A 
ATOM      5  C   UNL     1       0.820   2.308  19.400  0.00  0.00    +0.000 A 
ATOM      6  C   UNL     1       1.948   2.231  18.589  0.00  0.00    +0.000 A 
ATOM      7  C   UNL     1       2.800   3.336  18.420  0.00  0.00    +0.000 A 
ATOM      8  S   UNL     1       4.192   3.052  17.332  0.00  0.00    +0.000 S 
ATOM      9  C   UNL     1       5.104   4.584  17.465  0.00  0.00    +0.000 A 
ATOM     10  C   UNL     1       6.347   4.598  16.813  0.00  0.00    +0.000 A 
ATOM     11  C   UNL     1       7.133   5.747  16.788  0.00  0.00    +0.000 A 
ATOM     12  C   UNL     1       6.688   6.900  17.420  0.00  0.00    +0.000 A 
ATOM     13 CL   UNL     1       7.659   8.354  17.369  0.00  0.00    +0.000 Cl
ATOM     14  C   UNL     1       5.466   6.897  18.091  0.00  0.00    +0.000 A 
ATOM     15  C   UNL     1       4.645   5.741  18.124  0.00  0.00    +0.000 A 
ENDROOT
BRANCH   1  16
ATOM     16  C   UNL     1       2.460   6.946  18.158  0.00  0.00    +0.000 C 
BRANCH  16  17
ATOM     17  C   UNL     1       2.344   8.295  18.879  0.00  0.00    +0.000 C 
BRANCH  17  18
ATOM     18  C   UNL     1       1.698   8.132  20.282  0.00  0.00    +0.000 C 
BRANCH  18  22
ATOM     19  N   UNL     1       0.351  10.895  22.237  0.00  0.00    +0.000 NA
ATOM     20  C   UNL     1       0.440   9.474  22.653  0.00  0.00    +0.000 C 
ATOM     21  C   UNL     1      -0.296   8.562  21.660  0.00  0.00    +0.000 C 
ATOM     22  N   UNL     1       0.309   8.660  20.318  0.00  0.00    +0.000 NA
ATOM     23  C   UNL     1       0.209  10.059  19.846  0.00  0.00    +0.000 C 
ATOM     24  C   UNL     1       0.850  11.059  20.841  0.00  0.00    +0.000 C 
BRANCH  19  25
ATOM     25  C   UNL     1      -0.980  11.498  22.465  0.00  0.00    +0.000 C 
BRANCH  25  26
ATOM     26  C   UNL     1      -1.075  12.885  21.793  0.00  0.00    +0.000 C 
BRANCH  26  27
ATOM     27  C   UNL     1      -2.343  13.050  20.968  0.00  0.00    +0.000 C 
BRANCH  27  28
ATOM     28  O   UNL     1      -2.011  13.200  19.613  0.00  0.00    +0.000 OA
ATOM     29  H   UNL     1      -2.394  14.068  19.313  0.00  0.00    +0.000 HD
ENDBRANCH  27  28
ENDBRANCH  26  27
ENDBRANCH  25  26
ENDBRANCH  19  25
ENDBRANCH  18  22
ENDBRANCH  17  18
ENDBRANCH  16  17
ENDBRANCH   1  16
TORSDOF 8
ENDMDL
MODEL 4
REMARK VINA RESULT:      -7.3      1.206      1.671
REMARK  Name = 
REMARK  8 active torsions:
REMARK  status: ('A' for Active; 'I' for Inactive)
REMARK    1  A    between atoms: O_1  and  C_2
REMARK    2  A    between atoms: C_2  and  C_3
REMARK    3  A    between atoms: C_3  and  C_4
REMARK    4  A    between atoms: C_4  and  N_5
REMARK    5  A    between atoms: N_8  and  C_9
REMARK    6  A    between atoms: C_9  and  C_10
REMARK    7  A    between atoms: C_10  and  C_11
REMARK    8  A    between atoms: C_11  and  C_12
REMARK                            x       y       z     vdW  Elec       q    Type
REMARK                         _______ _______ _______ _____ _____    ______ ____
ROOT
ATOM      1  C   UNL     1       3.446   5.895  18.890  0.00  0.00    +0.000 C 
ATOM      2  C   UNL     1       2.586   4.630  19.024  0.00  0.00    +0.000 A 
ATOM      3  C   UNL     1       1.498   4.629  19.938  0.00  0.00    +0.000 A 
ATOM      4  C   UNL     1       0.609   3.568  20.038  0.00  0.00    +0.000 A 
ATOM      5  C   UNL     1       0.801   2.441  19.261  0.00  0.00    +0.000 A 
ATOM      6  C   UNL     1       1.899   2.370  18.409  0.00  0.00    +0.000 A 
ATOM      7  C   UNL     1       2.795   3.447  18.284  0.00  0.00    +0.000 A 
ATOM      8  S   UNL     1       4.137   3.177  17.133  0.00  0.00    +0.000 S 
ATOM      9  C   UNL     1       5.121   4.656  17.335  0.00  0.00    +0.000 A 
ATOM     10  C   UNL     1       6.343   4.661  16.643  0.00  0.00    +0.000 A 
ATOM     11  C   UNL     1       7.179   5.773  16.667  0.00  0.00    +0.000 A 
ATOM     12  C   UNL     1       6.806   6.899  17.390  0.00  0.00    +0.000 A 
ATOM     13 CL   UNL     1       7.840   8.310  17.401  0.00  0.00    +0.000 Cl
ATOM     14  C   UNL     1       5.608   6.904  18.100  0.00  0.00    +0.000 A 
ATOM     15  C   UNL     1       4.736   5.785  18.084  0.00  0.00    +0.000 A 
ENDROOT
BRANCH   1  16
ATOM     16  C   UNL     1       2.610   7.077  18.273  0.00  0.00    +0.000 C 
BRANCH  16  17
ATOM     17  C   UNL     1       2.052   8.102  19.268  0.00  0.00    +0.000 C 
BRANCH  17  18
ATOM     18  C   UNL     1       1.402   9.307  18.535  0.00  0.00    +0.000 C 
BRANCH  18  22
ATOM     19  N   UNL     1      -1.375  11.219  19.913  0.00  0.00    +0.000 NA
ATOM     20  C   UNL     1      -0.752  11.395  18.579  0.00  0.00    +0.000 C 
ATOM     21  C   UNL     1       0.753  11.674  18.706  0.00  0.00    +0.000 C 
ATOM     22  N   UNL     1       1.438  10.543  19.358  0.00  0.00    +0.000 NA
ATOM     23  C   UNL     1       0.870  10.354  20.713  0.00  0.00    +0.000 C 
ATOM     24  C   UNL     1      -0.666  10.155  20.680  0.00  0.00    +0.000 C 
BRANCH  19  25
ATOM     25  C   UNL     1      -1.539  12.482  20.663  0.00  0.00    +0.000 C 
BRANCH  25  26
ATOM     26  C   UNL     1      -2.085  12.210  22.082  0.00  0.00    +0.000 C 
BRANCH  26  27
ATOM     27  C   UNL     1      -1.670  13.278  23.084  0.00  0.00    +0.000 C 
BRANCH  27  28
ATOM     28  O   UNL     1      -0.272  13.295  23.206  0.00  0.00    +0.000 OA
ATOM     29  H   UNL     1       0.026  14.222  23.002  0.00  0.00    +0.000 HD
ENDBRANCH  27  28
ENDBRANCH  26  27
ENDBRANCH  25  26
ENDBRANCH  19  25
ENDBRANCH  18  22
ENDBRANCH  17  18
ENDBRANCH  16  17
ENDBRANCH   1  16
TORSDOF 8
ENDMDL
MODEL 5
REMARK VINA RESULT:      -7.3      1.457      1.503
REMARK  Name = 
REMARK  8 active torsions:
REMARK  status: ('A' for Active; 'I' for Inactive)
REMARK    1  A    between atoms: O_1  and  C_2
REMARK    2  A    between atoms: C_2  and  C_3
REMARK    3  A    between atoms: C_3  and  C_4
REMARK    4  A    between atoms: C_4  and  N_5
REMARK    5  A    between atoms: N_8  and  C_9
REMARK    6  A    between atoms: C_9  and  C_10
REMARK    7  A    between atoms: C_10  and  C_11
REMARK    8  A    between atoms: C_11  and  C_12
REMARK                            x       y       z     vdW  Elec       q    Type
REMARK                         _______ _______ _______ _____ _____    ______ ____
ROOT
ATOM      1  C   UNL     1       3.489   5.865  18.898  0.00  0.00    +0.000 C 
ATOM      2  C   UNL     1       2.619   4.602  18.983  0.00  0.00    +0.000 A 
ATOM      3  C   UNL     1       1.552   4.560  19.920  0.00  0.00    +0.000 A 
ATOM      4  C   UNL     1       0.656   3.502  19.981  0.00  0.00    +0.000 A 
ATOM      5  C   UNL     1       0.820   2.418  19.139  0.00  0.00    +0.000 A 
ATOM      6  C   UNL     1       1.898   2.386  18.260  0.00  0.00    +0.000 A 
ATOM      7  C   UNL     1       2.801   3.460  18.173  0.00  0.00    +0.000 A 
ATOM      8  S   UNL     1       4.114   3.242  16.980  0.00  0.00    +0.000 S 
ATOM      9  C   UNL     1       5.117   4.700  17.240  0.00  0.00    +0.000 A 
ATOM     10  C   UNL     1       6.323   4.732  16.522  0.00  0.00    +0.000 A 
ATOM     11  C   UNL     1       7.171   5.834  16.589  0.00  0.00    +0.000 A 
ATOM     12  C   UNL     1       6.825   6.922  17.380  0.00  0.00    +0.000 A 
ATOM     13 CL   UNL     1       7.873   8.321  17.445  0.00  0.00    +0.000 Cl
ATOM     14  C   UNL     1       5.642   6.898  18.117  0.00  0.00    +0.000 A 
ATOM     15  C   UNL     1       4.760   5.789  18.059  0.00  0.00    +0.000 A 
ENDROOT
BRANCH   1  16
ATOM     16  C   UNL     1       2.651   7.086  18.366  0.00  0.00    +0.000 C 
BRANCH  16  17
ATOM     17  C   UNL     1       2.090   8.037  19.432  0.00  0.00    +0.000 C 
BRANCH  17  18
ATOM     18  C   UNL     1       1.435   9.288  18.786  0.00  0.00    +0.000 C 
BRANCH  18  22
ATOM     19  N   UNL     1       0.072  12.127  20.616  0.00  0.00    +0.000 NA
ATOM     20  C   UNL     1       0.707  10.919  21.197  0.00  0.00    +0.000 C 
ATOM     21  C   UNL     1      -0.016   9.643  20.742  0.00  0.00    +0.000 C 
ATOM     22  N   UNL     1       0.048   9.504  19.275  0.00  0.00    +0.000 NA
ATOM     23  C   UNL     1      -0.610  10.674  18.652  0.00  0.00    +0.000 C 
ATOM     24  C   UNL     1       0.004  12.014  19.131  0.00  0.00    +0.000 C 
BRANCH  19  25
ATOM     25  C   UNL     1      -1.220  12.477  21.244  0.00  0.00    +0.000 C 
BRANCH  25  26
ATOM     26  C   UNL     1      -2.109  13.270  20.261  0.00  0.00    +0.000 C 
BRANCH  26  27
ATOM     27  C   UNL     1      -3.526  12.721  20.179  0.00  0.00    +0.000 C 
BRANCH  27  28
ATOM     28  O   UNL     1      -3.860  12.471  18.839  0.00  0.00    +0.000 OA
ATOM     29  H   UNL     1      -3.406  11.624  18.580  0.00  0.00    +0.000 HD
ENDBRANCH  27  28
ENDBRANCH  26  27
ENDBRANCH  25  26
ENDBRANCH  19  25
ENDBRANCH  18  22
ENDBRANCH  17  18
ENDBRANCH  16  17
ENDBRANCH   1  16
TORSDOF 8
ENDMDL
MODEL 6
REMARK VINA RESULT:      -7.3      1.978      2.287
REMARK  Name = 
REMARK  8 active torsions:
REMARK  status: ('A' for Active; 'I' for Inactive)
REMARK    1  A    between atoms: O_1  and  C_2
REMARK    2  A    between atoms: C_2  and  C_3
REMARK    3  A    between atoms: C_3  and  C_4
REMARK    4  A    between atoms: C_4  and  N_5
REMARK    5  A    between atoms: N_8  and  C_9
REMARK    6  A    between atoms: C_9  and  C_10
REMARK    7  A    between atoms: C_10  and  C_11
REMARK    8  A    between atoms: C_11  and  C_12
REMARK                            x       y       z     vdW  Elec       q    Type
REMARK                         _______ _______ _______ _____ _____    ______ ____
ROOT
ATOM      1  C   UNL     1       3.489   5.849  18.990  0.00  0.00    +0.000 C 
ATOM      2  C   UNL     1       2.598   4.600  19.077  0.00  0.00    +0.000 A 
ATOM      3  C   UNL     1       1.562   4.558  20.048  0.00  0.00    +0.000 A 
ATOM      4  C   UNL     1       0.648   3.516  20.117  0.00  0.00    +0.000 A 
ATOM      5  C   UNL     1       0.763   2.448  19.248  0.00  0.00    +0.000 A 
ATOM      6  C   UNL     1       1.810   2.414  18.332  0.00  0.00    +0.000 A 
ATOM      7  C   UNL     1       2.730   3.473  18.238  0.00  0.00    +0.000 A 
ATOM      8  S   UNL     1       4.000   3.257  16.997  0.00  0.00    +0.000 S 
ATOM      9  C   UNL     1       5.038   4.689  17.255  0.00  0.00    +0.000 A 
ATOM     10  C   UNL     1       6.220   4.715  16.498  0.00  0.00    +0.000 A 
ATOM     11  C   UNL     1       7.091   5.799  16.558  0.00  0.00    +0.000 A 
ATOM     12  C   UNL     1       6.792   6.876  17.384  0.00  0.00    +0.000 A 
ATOM     13 CL   UNL     1       7.868   8.254  17.443  0.00  0.00    +0.000 Cl
ATOM     14  C   UNL     1       5.634   6.858  18.159  0.00  0.00    +0.000 A 
ATOM     15  C   UNL     1       4.729   5.767  18.107  0.00  0.00    +0.000 A 
ENDROOT
BRANCH   1  16
ATOM     16  C   UNL     1       2.657   7.097  18.512  0.00  0.00    +0.000 C 
BRANCH  16  17
ATOM     17  C   UNL     1       2.014   7.945  19.617  0.00  0.00    +0.000 C 
BRANCH  17  18
ATOM     18  C   UNL     1       1.295   9.189  19.029  0.00  0.00    +0.000 C 
BRANCH  18  22
ATOM     19  N   UNL     1       0.156  12.626  19.432  0.00  0.00    +0.000 NA
ATOM     20  C   UNL     1       1.291  11.978  20.136  0.00  0.00    +0.000 C 
ATOM     21  C   UNL     1       0.827  10.726  20.894  0.00  0.00    +0.000 C 
ATOM     22  N   UNL     1       0.270   9.729  19.960  0.00  0.00    +0.000 NA
ATOM     23  C   UNL     1      -0.892  10.322  19.260  0.00  0.00    +0.000 C 
ATOM     24  C   UNL     1      -0.528  11.646  18.541  0.00  0.00    +0.000 C 
BRANCH  19  25
ATOM     25  C   UNL     1      -0.764  13.351  20.334  0.00  0.00    +0.000 C 
BRANCH  25  26
ATOM     26  C   UNL     1      -0.917  14.823  19.892  0.00  0.00    +0.000 C 
BRANCH  26  27
ATOM     27  C   UNL     1       0.391  15.597  19.975  0.00  0.00    +0.000 C 
BRANCH  27  28
ATOM     28  O   UNL     1       1.142  15.384  18.808  0.00  0.00    +0.000 OA
ATOM     29  H   UNL     1       1.300  14.405  18.738  0.00  0.00    +0.000 HD
ENDBRANCH  27  28
ENDBRANCH  26  27
ENDBRANCH  25  26
ENDBRANCH  19  25
ENDBRANCH  18  22
ENDBRANCH  17  18
ENDBRANCH  16  17
ENDBRANCH   1  16
TORSDOF 8
ENDMDL
MODEL 7
REMARK VINA RESULT:      -7.2      1.329      1.781
REMARK  Name = 
REMARK  8 active torsions:
REMARK  status: ('A' for Active; 'I' for Inactive)
REMARK    1  A    between atoms: O_1  and  C_2
REMARK    2  A    between atoms: C_2  and  C_3
REMARK    3  A    between atoms: C_3  and  C_4
REMARK    4  A    between atoms: C_4  and  N_5
REMARK    5  A    between atoms: N_8  and  C_9
REMARK    6  A    between atoms: C_9  and  C_10
REMARK    7  A    between atoms: C_10  and  C_11
REMARK    8  A    between atoms: C_11  and  C_12
REMARK                            x       y       z     vdW  Elec       q    Type
REMARK                         _______ _______ _______ _____ _____    ______ ____
ROOT
ATOM      1  C   UNL     1       3.482   5.828  18.993  0.00  0.00    +0.000 C 
ATOM      2  C   UNL     1       2.593   4.577  19.072  0.00  0.00    +0.000 A 
ATOM      3  C   UNL     1       1.549   4.532  20.034  0.00  0.00    +0.000 A 
ATOM      4  C   UNL     1       0.637   3.488  20.095  0.00  0.00    +0.000 A 
ATOM      5  C   UNL     1       0.761   2.421  19.226  0.00  0.00    +0.000 A 
ATOM      6  C   UNL     1       1.816   2.390  18.319  0.00  0.00    +0.000 A 
ATOM      7  C   UNL     1       2.735   3.451  18.233  0.00  0.00    +0.000 A 
ATOM      8  S   UNL     1       4.015   3.238  17.003  0.00  0.00    +0.000 S 
ATOM      9  C   UNL     1       5.048   4.673  17.270  0.00  0.00    +0.000 A 
ATOM     10  C   UNL     1       6.236   4.701  16.523  0.00  0.00    +0.000 A 
ATOM     11  C   UNL     1       7.104   5.788  16.592  0.00  0.00    +0.000 A 
ATOM     12  C   UNL     1       6.796   6.863  17.415  0.00  0.00    +0.000 A 
ATOM     13 CL   UNL     1       7.869   8.244  17.485  0.00  0.00    +0.000 Cl
ATOM     14  C   UNL     1       5.632   6.842  18.180  0.00  0.00    +0.000 A 
ATOM     15  C   UNL     1       4.730   5.749  18.121  0.00  0.00    +0.000 A 
ENDROOT
BRANCH   1  16
ATOM     16  C   UNL     1       2.652   7.074  18.509  0.00  0.00    +0.000 C 
BRANCH  16  17
ATOM     17  C   UNL     1       1.931   7.873  19.603  0.00  0.00    +0.000 C 
BRANCH  17  18
ATOM     18  C   UNL     1       1.633   9.325  19.139  0.00  0.00    +0.000 C 
BRANCH  18  22
ATOM     19  N   UNL     1      -0.975  11.852  18.855  0.00  0.00    +0.000 NA
ATOM     20  C   UNL     1       0.489  12.073  18.763  0.00  0.00    +0.000 C 
ATOM     21  C   UNL     1       1.201  11.578  20.030  0.00  0.00    +0.000 C 
ATOM     22  N   UNL     1       0.993  10.130  20.212  0.00  0.00    +0.000 NA
ATOM     23  C   UNL     1      -0.458   9.866  20.346  0.00  0.00    +0.000 C 
ATOM     24  C   UNL     1      -1.266  10.418  19.144  0.00  0.00    +0.000 C 
BRANCH  19  25
ATOM     25  C   UNL     1      -1.661  12.792  19.767  0.00  0.00    +0.000 C 
BRANCH  25  26
ATOM     26  C   UNL     1      -3.156  12.429  19.904  0.00  0.00    +0.000 C 
BRANCH  26  27
ATOM     27  C   UNL     1      -3.855  13.229  20.994  0.00  0.00    +0.000 C 
BRANCH  27  28
ATOM     28  O   UNL     1      -4.380  12.357  21.960  0.00  0.00    +0.000 OA
ATOM     29  H   UNL     1      -3.645  11.741  22.225  0.00  0.00    +0.000 HD
ENDBRANCH  27  28
ENDBRANCH  26  27
ENDBRANCH  25  26
ENDBRANCH  19  25
ENDBRANCH  18  22
ENDBRANCH  17  18
ENDBRANCH  16  17
ENDBRANCH   1  16
TORSDOF 8
ENDMDL
MODEL 8
REMARK VINA RESULT:      -7.1      0.728      1.239
REMARK  Name = 
REMARK  8 active torsions:
REMARK  status: ('A' for Active; 'I' for Inactive)
REMARK    1  A    between atoms: O_1  and  C_2
REMARK    2  A    between atoms: C_2  and  C_3
REMARK    3  A    between atoms: C_3  and  C_4
REMARK    4  A    between atoms: C_4  and  N_5
REMARK    5  A    between atoms: N_8  and  C_9
REMARK    6  A    between atoms: C_9  and  C_10
REMARK    7  A    between atoms: C_10  and  C_11
REMARK    8  A    between atoms: C_11  and  C_12
REMARK                            x       y       z     vdW  Elec       q    Type
REMARK                         _______ _______ _______ _____ _____    ______ ____
ROOT
ATOM      1  C   UNL     1       3.469   5.820  19.045  0.00  0.00    +0.000 C 
ATOM      2  C   UNL     1       2.567   4.577  19.097  0.00  0.00    +0.000 A 
ATOM      3  C   UNL     1       1.585   4.480  20.119  0.00  0.00    +0.000 A 
ATOM      4  C   UNL     1       0.662   3.445  20.169  0.00  0.00    +0.000 A 
ATOM      5  C   UNL     1       0.714   2.437  19.224  0.00  0.00    +0.000 A 
ATOM      6  C   UNL     1       1.710   2.455  18.252  0.00  0.00    +0.000 A 
ATOM      7  C   UNL     1       2.638   3.508  18.178  0.00  0.00    +0.000 A 
ATOM      8  S   UNL     1       3.834   3.364  16.857  0.00  0.00    +0.000 S 
ATOM      9  C   UNL     1       4.905   4.765  17.152  0.00  0.00    +0.000 A 
ATOM     10  C   UNL     1       6.044   4.829  16.334  0.00  0.00    +0.000 A 
ATOM     11  C   UNL     1       6.932   5.899  16.420  0.00  0.00    +0.000 A 
ATOM     12  C   UNL     1       6.694   6.920  17.330  0.00  0.00    +0.000 A 
ATOM     13 CL   UNL     1       7.791   8.279  17.422  0.00  0.00    +0.000 Cl
ATOM     14  C   UNL     1       5.580   6.861  18.165  0.00  0.00    +0.000 A 
ATOM     15  C   UNL     1       4.658   5.785  18.091  0.00  0.00    +0.000 A 
ENDROOT
BRANCH   1  16
ATOM     16  C   UNL     1       2.630   7.105  18.698  0.00  0.00    +0.000 C 
BRANCH  16  17
ATOM     17  C   UNL     1       1.934   7.797  19.878  0.00  0.00    +0.000 C 
BRANCH  17  18
ATOM     18  C   UNL     1       1.235   9.110  19.432  0.00  0.00    +0.000 C 
BRANCH  18  22
ATOM     19  N   UNL     1      -1.176  10.667  21.674  0.00  0.00    +0.000 NA
ATOM     20  C   UNL     1      -0.874  11.069  20.279  0.00  0.00    +0.000 C 
ATOM     21  C   UNL     1       0.618  11.394  20.109  0.00  0.00    +0.000 C 
ATOM     22  N   UNL     1       1.445  10.210  20.408  0.00  0.00    +0.000 NA
ATOM     23  C   UNL     1       1.202   9.795  21.808  0.00  0.00    +0.000 C 
ATOM     24  C   UNL     1      -0.299   9.535  22.089  0.00  0.00    +0.000 C 
BRANCH  19  25
ATOM     25  C   UNL     1      -1.177  11.796  22.629  0.00  0.00    +0.000 C 
BRANCH  25  26
ATOM     26  C   UNL     1      -2.562  11.946  23.297  0.00  0.00    +0.000 C 
BRANCH  26  27
ATOM     27  C   UNL     1      -3.459  12.936  22.568  0.00  0.00    +0.000 C 
BRANCH  27  28
ATOM     28  O   UNL     1      -4.757  12.412  22.465  0.00  0.00    +0.000 OA
ATOM     29  H   UNL     1      -5.388  13.174  22.571  0.00  0.00    +0.000 HD
ENDBRANCH  27  28
ENDBRANCH  26  27
ENDBRANCH  25  26
ENDBRANCH  19  25
ENDBRANCH  18  22
ENDBRANCH  17  18
ENDBRANCH  16  17
ENDBRANCH   1  16
TORSDOF 8
ENDMDL
MODEL 9
REMARK VINA RESULT:      -7.1      2.038      2.325
REMARK  Name = 
REMARK  8 active torsions:
REMARK  status: ('A' for Active; 'I' for Inactive)
REMARK    1  A    between atoms: O_1  and  C_2
REMARK    2  A    between atoms: C_2  and  C_3
REMARK    3  A    between atoms: C_3  and  C_4
REMARK    4  A    between atoms: C_4  and  N_5
REMARK    5  A    between atoms: N_8  and  C_9
REMARK    6  A    between atoms: C_9  and  C_10
REMARK    7  A    between atoms: C_10  and  C_11
REMARK    8  A    between atoms: C_11  and  C_12
REMARK                            x       y       z     vdW  Elec       q    Type
REMARK                         _______ _______ _______ _____ _____    ______ ____
ROOT
ATOM      1  C   UNL     1       3.785   5.391  19.540  0.00  0.00    +0.000 C 
ATOM      2  C   UNL     1       2.723   4.281  19.561  0.00  0.00    +0.000 A 
ATOM      3  C   UNL     1       2.056   3.988  20.781  0.00  0.00    +0.000 A 
ATOM      4  C   UNL     1       1.011   3.078  20.858  0.00  0.00    +0.000 A 
ATOM      5  C   UNL     1       0.622   2.387  19.726  0.00  0.00    +0.000 A 
ATOM      6  C   UNL     1       1.301   2.588  18.528  0.00  0.00    +0.000 A 
ATOM      7  C   UNL     1       2.347   3.522  18.432  0.00  0.00    +0.000 A 
ATOM      8  S   UNL     1       3.093   3.651  16.812  0.00  0.00    +0.000 S 
ATOM      9  C   UNL     1       4.437   4.795  17.095  0.00  0.00    +0.000 A 
ATOM     10  C   UNL     1       5.302   4.982  16.006  0.00  0.00    +0.000 A 
ATOM     11  C   UNL     1       6.357   5.889  16.072  0.00  0.00    +0.000 A 
ATOM     12  C   UNL     1       6.563   6.621  17.235  0.00  0.00    +0.000 A 
ATOM     13 CL   UNL     1       7.870   7.782  17.314  0.00  0.00    +0.000 Cl
ATOM     14  C   UNL     1       5.727   6.431  18.333  0.00  0.00    +0.000 A 
ATOM     15  C   UNL     1       4.643   5.519  18.286  0.00  0.00    +0.000 A 
ENDROOT
BRANCH   1  16
ATOM     16  C   UNL     1       3.128   6.797  19.802  0.00  0.00    +0.000 C 
BRANCH  16  17
ATOM     17  C   UNL     1       2.305   7.384  18.648  0.00  0.00    +0.000 C 
BRANCH  17  18
ATOM     18  C   UNL     1       1.464   8.603  19.116  0.00  0.00    +0.000 C 
BRANCH  18  22
ATOM     19  N   UNL     1       0.012  11.942  19.243  0.00  0.00    +0.000 NA
ATOM     20  C   UNL     1      -0.723  10.657  19.143  0.00  0.00    +0.000 C 
ATOM     21  C   UNL     1      -0.275   9.860  17.910  0.00  0.00    +0.000 C 
ATOM     22  N   UNL     1       1.160   9.532  17.996  0.00  0.00    +0.000 NA
ATOM     23  C   UNL     1       1.938  10.790  18.061  0.00  0.00    +0.000 C 
ATOM     24  C   UNL     1       1.483  11.699  19.230  0.00  0.00    +0.000 C 
BRANCH  19  25
ATOM     25  C   UNL     1      -0.430  12.956  18.262  0.00  0.00    +0.000 C 
BRANCH  25  26
ATOM     26  C   UNL     1      -0.132  14.381  18.776  0.00  0.00    +0.000 C 
BRANCH  26  27
ATOM     27  C   UNL     1      -0.961  14.748  19.999  0.00  0.00    +0.000 C 
BRANCH  27  28
ATOM     28  O   UNL     1      -2.142  13.989  20.015  0.00  0.00    +0.000 OA
ATOM     29  H   UNL     1      -2.003  13.248  20.665  0.00  0.00    +0.000 HD
ENDBRANCH  27  28
ENDBRANCH  26  27
ENDBRANCH  25  26
ENDBRANCH  19  25
ENDBRANCH  18  22
ENDBRANCH  17  18
ENDBRANCH  16  17
ENDBRANCH   1  16
TORSDOF 8
ENDMDL
