MODEL 1
REMARK VINA RESULT:      -7.2      0.000      0.000
REMARK  Name = 
REMARK  2 active torsions:
REMARK  status: ('A' for Active; 'I' for Inactive)
REMARK    1  A    between atoms: C_2  and  C_3
REMARK    2  A    between atoms: C_3  and  C_4
REMARK                            x       y       z     vdW  Elec       q    Type
REMARK                         _______ _______ _______ _____ _____    ______ ____
ROOT
ATOM      1  O   UNL     1       6.401   3.848  14.781  0.00  0.00    +0.000 OA
ATOM      2  C   UNL     1       5.671   4.149  15.734  0.00  0.00    +0.000 C 
ATOM      3  N   UNL     1       5.082   3.134  16.425  0.00  0.00    +0.000 N 
ATOM      4  C   UNL     1       4.145   3.263  17.404  0.00  0.00    +0.000 A 
ATOM      5  N   UNL     1       3.453   4.319  17.726  0.00  0.00    +0.000 NA
ATOM      6  C   UNL     1       2.611   4.017  18.778  0.00  0.00    +0.000 A 
ATOM      7  C   UNL     1       1.704   4.907  19.387  0.00  0.00    +0.000 A 
ATOM      8  C   UNL     1       0.922   4.469  20.459  0.00  0.00    +0.000 A 
ATOM      9  C   UNL     1       1.039   3.166  20.932  0.00  0.00    +0.000 A 
ATOM     10  C   UNL     1       1.924   2.260  20.336  0.00  0.00    +0.000 A 
ATOM     11  C   UNL     1       2.692   2.703  19.249  0.00  0.00    +0.000 A 
ATOM     12  S   UNL     1       3.824   1.837  18.276  0.00  0.00    +0.000 S 
ATOM     13  H   UNL     1       5.370   2.200  16.169  0.00  0.00    +0.000 HD
ENDROOT
BRANCH   2  14
ATOM     14  C   UNL     1       5.527   5.605  16.159  0.00  0.00    +0.000 C 
BRANCH  14  15
ATOM     15  C   UNL     1       6.538   5.919  17.228  0.00  0.00    +0.000 A 
ATOM     16  C   UNL     1       7.071   5.063  18.175  0.00  0.00    +0.000 A 
ATOM     17  C   UNL     1       8.027   5.704  19.013  0.00  0.00    +0.000 A 
ATOM     18  C   UNL     1       8.196   7.029  18.681  0.00  0.00    +0.000 A 
ATOM     19  S   UNL     1       7.207   7.491  17.365  0.00  0.00    +0.000 S 
ENDBRANCH  14  15
ENDBRANCH   2  14
TORSDOF 2
ENDMDL
MODEL 2
REMARK VINA RESULT:      -7.2      0.774      1.007
REMARK  Name = 
REMARK  2 active torsions:
REMARK  status: ('A' for Active; 'I' for Inactive)
REMARK    1  A    between atoms: C_2  and  C_3
REMARK    2  A    between atoms: C_3  and  C_4
REMARK                            x       y       z     vdW  Elec       q    Type
REMARK                         _______ _______ _______ _____ _____    ______ ____
ROOT
ATOM      1  O   UNL     1       6.393   4.252  14.782  0.00  0.00    +0.000 OA
ATOM      2  C   UNL     1       5.637   4.473  15.736  0.00  0.00    +0.000 C 
ATOM      3  N   UNL     1       5.105   3.400  16.383  0.00  0.00    +0.000 N 
ATOM      4  C   UNL     1       4.153   3.437  17.356  0.00  0.00    +0.000 A 
ATOM      5  N   UNL     1       3.395   4.437  17.708  0.00  0.00    +0.000 NA
ATOM      6  C   UNL     1       2.563   4.047  18.739  0.00  0.00    +0.000 A 
ATOM      7  C   UNL     1       1.599   4.858  19.369  0.00  0.00    +0.000 A 
ATOM      8  C   UNL     1       0.835   4.335  20.416  0.00  0.00    +0.000 A 
ATOM      9  C   UNL     1       1.026   3.025  20.843  0.00  0.00    +0.000 A 
ATOM     10  C   UNL     1       1.969   2.195  20.225  0.00  0.00    +0.000 A 
ATOM     11  C   UNL     1       2.719   2.724  19.163  0.00  0.00    +0.000 A 
ATOM     12  S   UNL     1       3.911   1.964  18.173  0.00  0.00    +0.000 S 
ATOM     13  H   UNL     1       5.451   2.496  16.098  0.00  0.00    +0.000 HD
ENDROOT
BRANCH   2  14
ATOM     14  C   UNL     1       5.402   5.902  16.212  0.00  0.00    +0.000 C 
BRANCH  14  15
ATOM     15  C   UNL     1       6.491   6.299  17.170  0.00  0.00    +0.000 A 
ATOM     16  C   UNL     1       7.207   7.482  17.205  0.00  0.00    +0.000 A 
ATOM     17  C   UNL     1       8.147   7.520  18.274  0.00  0.00    +0.000 A 
ATOM     18  C   UNL     1       8.122   6.364  19.022  0.00  0.00    +0.000 A 
ATOM     19  S   UNL     1       6.968   5.247  18.437  0.00  0.00    +0.000 S 
ENDBRANCH  14  15
ENDBRANCH   2  14
TORSDOF 2
ENDMDL
MODEL 3
REMARK VINA RESULT:      -6.8      2.380      3.567
REMARK  Name = 
REMARK  2 active torsions:
REMARK  status: ('A' for Active; 'I' for Inactive)
REMARK    1  A    between atoms: C_2  and  C_3
REMARK    2  A    between atoms: C_3  and  C_4
REMARK                            x       y       z     vdW  Elec       q    Type
REMARK                         _______ _______ _______ _____ _____    ______ ____
ROOT
ATOM      1  O   UNL     1       7.510   7.354  16.936  0.00  0.00    +0.000 OA
ATOM      2  C   UNL     1       6.785   6.386  17.195  0.00  0.00    +0.000 C 
ATOM      3  N   UNL     1       5.550   6.640  17.708  0.00  0.00    +0.000 N 
ATOM      4  C   UNL     1       4.668   5.717  18.183  0.00  0.00    +0.000 A 
ATOM      5  N   UNL     1       4.885   4.463  18.466  0.00  0.00    +0.000 NA
ATOM      6  C   UNL     1       3.718   3.883  18.924  0.00  0.00    +0.000 A 
ATOM      7  C   UNL     1       3.572   2.544  19.335  0.00  0.00    +0.000 A 
ATOM      8  C   UNL     1       2.323   2.086  19.761  0.00  0.00    +0.000 A 
ATOM      9  C   UNL     1       1.225   2.940  19.775  0.00  0.00    +0.000 A 
ATOM     10  C   UNL     1       1.347   4.278  19.382  0.00  0.00    +0.000 A 
ATOM     11  C   UNL     1       2.610   4.734  18.972  0.00  0.00    +0.000 A 
ATOM     12  S   UNL     1       3.102   6.312  18.480  0.00  0.00    +0.000 S 
ATOM     13  H   UNL     1       5.277   7.612  17.743  0.00  0.00    +0.000 HD
ENDROOT
BRANCH   2  14
ATOM     14  C   UNL     1       7.242   4.972  16.854  0.00  0.00    +0.000 C 
BRANCH  14  15
ATOM     15  C   UNL     1       6.921   4.673  15.415  0.00  0.00    +0.000 A 
ATOM     16  C   UNL     1       7.579   5.120  14.284  0.00  0.00    +0.000 A 
ATOM     17  C   UNL     1       7.008   4.609  13.083  0.00  0.00    +0.000 A 
ATOM     18  C   UNL     1       5.931   3.789  13.334  0.00  0.00    +0.000 A 
ATOM     19  S   UNL     1       5.618   3.637  15.008  0.00  0.00    +0.000 S 
ENDBRANCH  14  15
ENDBRANCH   2  14
TORSDOF 2
ENDMDL
MODEL 4
REMARK VINA RESULT:      -6.8      2.555      3.735
REMARK  Name = 
REMARK  2 active torsions:
REMARK  status: ('A' for Active; 'I' for Inactive)
REMARK    1  A    between atoms: C_2  and  C_3
REMARK    2  A    between atoms: C_3  and  C_4
REMARK                            x       y       z     vdW  Elec       q    Type
REMARK                         _______ _______ _______ _____ _____    ______ ____
ROOT
ATOM      1  O   UNL     1       5.542   6.770  15.243  0.00  0.00    +0.000 OA
ATOM      2  C   UNL     1       5.152   5.894  16.025  0.00  0.00    +0.000 C 
ATOM      3  N   UNL     1       4.234   6.248  16.966  0.00  0.00    +0.000 N 
ATOM      4  C   UNL     1       3.792   5.471  17.993  0.00  0.00    +0.000 A 
ATOM      5  N   UNL     1       4.294   4.353  18.434  0.00  0.00    +0.000 NA
ATOM      6  C   UNL     1       3.539   3.893  19.495  0.00  0.00    +0.000 A 
ATOM      7  C   UNL     1       3.786   2.719  20.233  0.00  0.00    +0.000 A 
ATOM      8  C   UNL     1       2.925   2.364  21.275  0.00  0.00    +0.000 A 
ATOM      9  C   UNL     1       1.825   3.158  21.582  0.00  0.00    +0.000 A 
ATOM     10  C   UNL     1       1.564   4.335  20.871  0.00  0.00    +0.000 A 
ATOM     11  C   UNL     1       2.444   4.692  19.838  0.00  0.00    +0.000 A 
ATOM     12  S   UNL     1       2.435   6.083  18.817  0.00  0.00    +0.000 S 
ATOM     13  H   UNL     1       3.861   7.183  16.888  0.00  0.00    +0.000 HD
ENDROOT
BRANCH   2  14
ATOM     14  C   UNL     1       5.625   4.454  15.859  0.00  0.00    +0.000 C 
BRANCH  14  15
ATOM     15  C   UNL     1       5.946   4.193  14.413  0.00  0.00    +0.000 A 
ATOM     16  C   UNL     1       5.150   3.584  13.460  0.00  0.00    +0.000 A 
ATOM     17  C   UNL     1       5.774   3.532  12.181  0.00  0.00    +0.000 A 
ATOM     18  C   UNL     1       7.027   4.103  12.196  0.00  0.00    +0.000 A 
ATOM     19  S   UNL     1       7.441   4.698  13.744  0.00  0.00    +0.000 S 
ENDBRANCH  14  15
ENDBRANCH   2  14
TORSDOF 2
ENDMDL
MODEL 5
REMARK VINA RESULT:      -6.7      2.283      3.495
REMARK  Name = 
REMARK  2 active torsions:
REMARK  status: ('A' for Active; 'I' for Inactive)
REMARK    1  A    between atoms: C_2  and  C_3
REMARK    2  A    between atoms: C_3  and  C_4
REMARK                            x       y       z     vdW  Elec       q    Type
REMARK                         _______ _______ _______ _____ _____    ______ ____
ROOT
ATOM      1  O   UNL     1       7.206   7.381  16.744  0.00  0.00    +0.000 OA
ATOM      2  C   UNL     1       6.517   6.449  17.175  0.00  0.00    +0.000 C 
ATOM      3  N   UNL     1       5.334   6.761  17.773  0.00  0.00    +0.000 N 
ATOM      4  C   UNL     1       4.509   5.897  18.427  0.00  0.00    +0.000 A 
ATOM      5  N   UNL     1       4.761   4.681  18.821  0.00  0.00    +0.000 NA
ATOM      6  C   UNL     1       3.648   4.157  19.448  0.00  0.00    +0.000 A 
ATOM      7  C   UNL     1       3.551   2.871  20.014  0.00  0.00    +0.000 A 
ATOM      8  C   UNL     1       2.352   2.465  20.605  0.00  0.00    +0.000 A 
ATOM      9  C   UNL     1       1.254   3.318  20.630  0.00  0.00    +0.000 A 
ATOM     10  C   UNL     1       1.328   4.605  20.085  0.00  0.00    +0.000 A 
ATOM     11  C   UNL     1       2.542   5.011  19.510  0.00  0.00    +0.000 A 
ATOM     12  S   UNL     1       2.973   6.525  18.805  0.00  0.00    +0.000 S 
ATOM     13  H   UNL     1       5.058   7.731  17.728  0.00  0.00    +0.000 HD
ENDROOT
BRANCH   2  14
ATOM     14  C   UNL     1       6.950   5.006  16.946  0.00  0.00    +0.000 C 
BRANCH  14  15
ATOM     15  C   UNL     1       6.538   4.569  15.567  0.00  0.00    +0.000 A 
ATOM     16  C   UNL     1       5.364   3.945  15.186  0.00  0.00    +0.000 A 
ATOM     17  C   UNL     1       5.305   3.704  13.784  0.00  0.00    +0.000 A 
ATOM     18  C   UNL     1       6.435   4.151  13.137  0.00  0.00    +0.000 A 
ATOM     19  S   UNL     1       7.555   4.859  14.218  0.00  0.00    +0.000 S 
ENDBRANCH  14  15
ENDBRANCH   2  14
TORSDOF 2
ENDMDL
MODEL 6
REMARK VINA RESULT:      -6.7      4.594      6.734
REMARK  Name = 
REMARK  2 active torsions:
REMARK  status: ('A' for Active; 'I' for Inactive)
REMARK    1  A    between atoms: C_2  and  C_3
REMARK    2  A    between atoms: C_3  and  C_4
REMARK                            x       y       z     vdW  Elec       q    Type
REMARK                         _______ _______ _______ _____ _____    ______ ____
ROOT
ATOM      1  O   UNL     1       3.599   6.103  18.127  0.00  0.00    +0.000 OA
ATOM      2  C   UNL     1       2.802   6.545  18.964  0.00  0.00    +0.000 C 
ATOM      3  N   UNL     1       2.359   7.822  18.803  0.00  0.00    +0.000 N 
ATOM      4  C   UNL     1       1.597   8.528  19.683  0.00  0.00    +0.000 A 
ATOM      5  N   UNL     1       1.330   8.247  20.927  0.00  0.00    +0.000 NA
ATOM      6  C   UNL     1       0.520   9.230  21.461  0.00  0.00    +0.000 A 
ATOM      7  C   UNL     1       0.037   9.269  22.783  0.00  0.00    +0.000 A 
ATOM      8  C   UNL     1      -0.792  10.320  23.184  0.00  0.00    +0.000 A 
ATOM      9  C   UNL     1      -1.148  11.320  22.285  0.00  0.00    +0.000 A 
ATOM     10  C   UNL     1      -0.671  11.310  20.969  0.00  0.00    +0.000 A 
ATOM     11  C   UNL     1       0.175  10.260  20.581  0.00  0.00    +0.000 A 
ATOM     12  S   UNL     1       0.960   9.982  19.070  0.00  0.00    +0.000 S 
ATOM     13  H   UNL     1       2.637   8.281  17.948  0.00  0.00    +0.000 HD
ENDROOT
BRANCH   2  14
ATOM     14  C   UNL     1       2.276   5.641  20.073  0.00  0.00    +0.000 C 
BRANCH  14  15
ATOM     15  C   UNL     1       2.180   4.228  19.567  0.00  0.00    +0.000 A 
ATOM     16  C   UNL     1       1.215   3.683  18.740  0.00  0.00    +0.000 A 
ATOM     17  C   UNL     1       1.461   2.311  18.445  0.00  0.00    +0.000 A 
ATOM     18  C   UNL     1       2.606   1.851  19.056  0.00  0.00    +0.000 A 
ATOM     19  S   UNL     1       3.376   3.070  19.975  0.00  0.00    +0.000 S 
ENDBRANCH  14  15
ENDBRANCH   2  14
TORSDOF 2
ENDMDL
MODEL 7
REMARK VINA RESULT:      -6.6      4.685      6.420
REMARK  Name = 
REMARK  2 active torsions:
REMARK  status: ('A' for Active; 'I' for Inactive)
REMARK    1  A    between atoms: C_2  and  C_3
REMARK    2  A    between atoms: C_3  and  C_4
REMARK                            x       y       z     vdW  Elec       q    Type
REMARK                         _______ _______ _______ _____ _____    ______ ____
ROOT
ATOM      1  O   UNL     1       3.700   7.138  17.171  0.00  0.00    +0.000 OA
ATOM      2  C   UNL     1       2.983   7.360  18.154  0.00  0.00    +0.000 C 
ATOM      3  N   UNL     1       2.301   8.538  18.186  0.00  0.00    +0.000 N 
ATOM      4  C   UNL     1       1.578   9.022  19.234  0.00  0.00    +0.000 A 
ATOM      5  N   UNL     1       1.567   8.607  20.469  0.00  0.00    +0.000 NA
ATOM      6  C   UNL     1       0.693   9.378  21.210  0.00  0.00    +0.000 A 
ATOM      7  C   UNL     1       0.429   9.231  22.585  0.00  0.00    +0.000 A 
ATOM      8  C   UNL     1      -0.497  10.075  23.204  0.00  0.00    +0.000 A 
ATOM      9  C   UNL     1      -1.163  11.051  22.470  0.00  0.00    +0.000 A 
ATOM     10  C   UNL     1      -0.910  11.225  21.105  0.00  0.00    +0.000 A 
ATOM     11  C   UNL     1       0.035  10.385  20.496  0.00  0.00    +0.000 A 
ATOM     12  S   UNL     1       0.605  10.369  18.867  0.00  0.00    +0.000 S 
ATOM     13  H   UNL     1       2.352   9.101  17.350  0.00  0.00    +0.000 HD
ENDROOT
BRANCH   2  14
ATOM     14  C   UNL     1       2.809   6.296  19.232  0.00  0.00    +0.000 C 
BRANCH  14  15
ATOM     15  C   UNL     1       2.922   4.930  18.613  0.00  0.00    +0.000 A 
ATOM     16  C   UNL     1       2.011   4.285  17.797  0.00  0.00    +0.000 A 
ATOM     17  C   UNL     1       2.468   3.005  17.373  0.00  0.00    +0.000 A 
ATOM     18  C   UNL     1       3.715   2.712  17.877  0.00  0.00    +0.000 A 
ATOM     19  S   UNL     1       4.326   3.976  18.852  0.00  0.00    +0.000 S 
ENDBRANCH  14  15
ENDBRANCH   2  14
TORSDOF 2
ENDMDL
MODEL 8
REMARK VINA RESULT:      -6.6      2.316      3.304
REMARK  Name = 
REMARK  2 active torsions:
REMARK  status: ('A' for Active; 'I' for Inactive)
REMARK    1  A    between atoms: C_2  and  C_3
REMARK    2  A    between atoms: C_3  and  C_4
REMARK                            x       y       z     vdW  Elec       q    Type
REMARK                         _______ _______ _______ _____ _____    ______ ____
ROOT
ATOM      1  O   UNL     1       8.088   4.497  16.750  0.00  0.00    +0.000 OA
ATOM      2  C   UNL     1       6.863   4.514  16.920  0.00  0.00    +0.000 C 
ATOM      3  N   UNL     1       6.376   3.970  18.069  0.00  0.00    +0.000 N 
ATOM      4  C   UNL     1       5.063   3.770  18.373  0.00  0.00    +0.000 A 
ATOM      5  N   UNL     1       4.032   3.827  17.578  0.00  0.00    +0.000 NA
ATOM      6  C   UNL     1       2.882   3.556  18.293  0.00  0.00    +0.000 A 
ATOM      7  C   UNL     1       1.576   3.517  17.765  0.00  0.00    +0.000 A 
ATOM      8  C   UNL     1       0.498   3.246  18.611  0.00  0.00    +0.000 A 
ATOM      9  C   UNL     1       0.705   3.023  19.969  0.00  0.00    +0.000 A 
ATOM     10  C   UNL     1       1.993   3.045  20.515  0.00  0.00    +0.000 A 
ATOM     11  C   UNL     1       3.072   3.300  19.654  0.00  0.00    +0.000 A 
ATOM     12  S   UNL     1       4.763   3.350  19.994  0.00  0.00    +0.000 S 
ATOM     13  H   UNL     1       7.065   3.684  18.749  0.00  0.00    +0.000 HD
ENDROOT
BRANCH   2  14
ATOM     14  C   UNL     1       5.959   5.211  15.910  0.00  0.00    +0.000 C 
BRANCH  14  15
ATOM     15  C   UNL     1       6.332   4.779  14.518  0.00  0.00    +0.000 A 
ATOM     16  C   UNL     1       7.385   5.224  13.740  0.00  0.00    +0.000 A 
ATOM     17  C   UNL     1       7.447   4.568  12.478  0.00  0.00    +0.000 A 
ATOM     18  C   UNL     1       6.440   3.641  12.331  0.00  0.00    +0.000 A 
ATOM     19  S   UNL     1       5.432   3.565  13.709  0.00  0.00    +0.000 S 
ENDBRANCH  14  15
ENDBRANCH   2  14
TORSDOF 2
ENDMDL
MODEL 9
REMARK VINA RESULT:      -6.5      2.519      6.517
REMARK  Name = 
REMARK  2 active torsions:
REMARK  status: ('A' for Active; 'I' for Inactive)
REMARK    1  A    between atoms: C_2  and  C_3
REMARK    2  A    between atoms: C_3  and  C_4
REMARK                            x       y       z     vdW  Elec       q    Type
REMARK                         _______ _______ _______ _____ _____    ______ ____
ROOT
ATOM      1  O   UNL     1       4.852   5.348  19.682  0.00  0.00    +0.000 OA
ATOM      2  C   UNL     1       4.911   4.824  18.563  0.00  0.00    +0.000 C 
ATOM      3  N   UNL     1       5.833   5.307  17.686  0.00  0.00    +0.000 N 
ATOM      4  C   UNL     1       5.957   4.960  16.375  0.00  0.00    +0.000 A 
ATOM      5  N   UNL     1       5.116   4.300  15.630  0.00  0.00    +0.000 NA
ATOM      6  C   UNL     1       5.631   4.166  14.356  0.00  0.00    +0.000 A 
ATOM      7  C   UNL     1       4.997   3.520  13.276  0.00  0.00    +0.000 A 
ATOM      8  C   UNL     1       5.645   3.444  12.041  0.00  0.00    +0.000 A 
ATOM      9  C   UNL     1       6.912   3.994  11.874  0.00  0.00    +0.000 A 
ATOM     10  C   UNL     1       7.558   4.651  12.928  0.00  0.00    +0.000 A 
ATOM     11  C   UNL     1       6.891   4.738  14.160  0.00  0.00    +0.000 A 
ATOM     12  S   UNL     1       7.381   5.509  15.623  0.00  0.00    +0.000 S 
ATOM     13  H   UNL     1       6.474   5.995  18.053  0.00  0.00    +0.000 HD
ENDROOT
BRANCH   2  14
ATOM     14  C   UNL     1       4.039   3.617  18.236  0.00  0.00    +0.000 C 
BRANCH  14  15
ATOM     15  C   UNL     1       2.867   3.573  19.178  0.00  0.00    +0.000 A 
ATOM     16  C   UNL     1       1.632   4.176  19.032  0.00  0.00    +0.000 A 
ATOM     17  C   UNL     1       0.754   3.893  20.116  0.00  0.00    +0.000 A 
ATOM     18  C   UNL     1       1.346   3.082  21.058  0.00  0.00    +0.000 A 
ATOM     19  S   UNL     1       2.948   2.666  20.631  0.00  0.00    +0.000 S 
ENDBRANCH  14  15
ENDBRANCH   2  14
TORSDOF 2
ENDMDL
