MODEL 1
REMARK VINA RESULT:      -6.5      0.000      0.000
REMARK  Name = 
REMARK  11 active torsions:
REMARK  status: ('A' for Active; 'I' for Inactive)
REMARK    1  A    between atoms: C_1  and  O_2
REMARK    2  A    between atoms: O_2  and  C_3
REMARK    3  A    between atoms: C_5  and  O_6
REMARK    4  A    between atoms: O_6  and  C_7
REMARK    5  A    between atoms: C_8  and  C_9
REMARK    6  A    between atoms: C_11  and  C_12
REMARK    7  A    between atoms: C_11  and  O_13
REMARK    8  A    between atoms: C_17  and  C_18
REMARK    9  A    between atoms: C_19  and  O_20
REMARK   10  A    between atoms: C_24  and  O_25
REMARK   11  A    between atoms: O_25  and  C_26
REMARK                            x       y       z     vdW  Elec       q    Type
REMARK                         _______ _______ _______ _____ _____    ______ ____
ROOT
ATOM      1  C   UNL     1       1.869   8.037  20.305  0.00  0.00    +0.000 C 
ATOM      2  C   UNL     1       0.994   7.946  21.568  0.00  0.00    +0.000 C 
ATOM      3  C   UNL     1       0.975   9.291  22.298  0.00  0.00    +0.000 C 
ATOM      4  C   UNL     1       0.080   9.228  23.539  0.00  0.00    +0.000 C 
ATOM      5  C   UNL     1       0.590  10.430  21.325  0.00  0.00    +0.000 C 
ATOM      6  C   UNL     1      -0.907  10.410  20.951  0.00  0.00    +0.000 C 
ATOM      7  C   UNL     1      -1.262  11.210  19.726  0.00  0.00    +0.000 C 
ATOM      8  C   UNL     1      -0.355  11.700  18.869  0.00  0.00    +0.000 C 
ATOM      9  C   UNL     1      -0.754  12.483  17.644  0.00  0.00    +0.000 C 
ATOM     10  C   UNL     1       1.125  11.480  19.060  0.00  0.00    +0.000 C 
ATOM     11  C   UNL     1       1.467  10.351  20.058  0.00  0.00    +0.000 C 
ATOM     12  O   UNL     1       1.322   9.050  19.440  0.00  0.00    +0.000 OA
ENDROOT
BRANCH   1  16
ATOM     13  C   UNL     1       2.228   4.020  18.689  0.00  0.00    +0.000 A 
ATOM     14  C   UNL     1       2.746   5.117  17.981  0.00  0.00    +0.000 A 
ATOM     15  C   UNL     1       2.671   6.427  18.470  0.00  0.00    +0.000 A 
ATOM     16  C   UNL     1       1.955   6.678  19.648  0.00  0.00    +0.000 A 
ATOM     17  C   UNL     1       1.328   5.583  20.283  0.00  0.00    +0.000 A 
ATOM     18  C   UNL     1       1.464   4.259  19.833  0.00  0.00    +0.000 A 
BRANCH  13  20
ATOM     19  C   UNL     1       3.692   2.161  18.666  0.00  0.00    +0.000 C 
ATOM     20  O   UNL     1       2.450   2.739  18.256  0.00  0.00    +0.000 OA
ENDBRANCH  13  20
BRANCH  15  21
ATOM     21  O   UNL     1       3.273   7.330  17.636  0.00  0.00    +0.000 OA
ATOM     22  C   UNL     1       4.513   6.998  17.029  0.00  0.00    +0.000 C 
ENDBRANCH  15  21
BRANCH  18  23
ATOM     23  O   UNL     1       0.813   3.373  20.647  0.00  0.00    +0.000 OA
ATOM     24  C   UNL     1       1.534   2.688  21.658  0.00  0.00    +0.000 C 
ENDBRANCH  18  23
ENDBRANCH   1  16
BRANCH   3  25
ATOM     25  O   UNL     1       2.309   9.555  22.768  0.00  0.00    +0.000 OA
ATOM     26  H   UNL     1       2.813   8.722  22.750  0.00  0.00    +0.000 HD
ENDBRANCH   3  25
BRANCH  10  27
ATOM     27  O   UNL     1       1.669  12.720  19.532  0.00  0.00    +0.000 OA
ATOM     28  H   UNL     1       1.760  12.645  20.498  0.00  0.00    +0.000 HD
ENDBRANCH  10  27
TORSDOF 6
ENDMDL
MODEL 2
REMARK VINA RESULT:      -6.3      1.896      6.748
REMARK  Name = 
REMARK  11 active torsions:
REMARK  status: ('A' for Active; 'I' for Inactive)
REMARK    1  A    between atoms: C_1  and  O_2
REMARK    2  A    between atoms: O_2  and  C_3
REMARK    3  A    between atoms: C_5  and  O_6
REMARK    4  A    between atoms: O_6  and  C_7
REMARK    5  A    between atoms: C_8  and  C_9
REMARK    6  A    between atoms: C_11  and  C_12
REMARK    7  A    between atoms: C_11  and  O_13
REMARK    8  A    between atoms: C_17  and  C_18
REMARK    9  A    between atoms: C_19  and  O_20
REMARK   10  A    between atoms: C_24  and  O_25
REMARK   11  A    between atoms: O_25  and  C_26
REMARK                            x       y       z     vdW  Elec       q    Type
REMARK                         _______ _______ _______ _____ _____    ______ ____
ROOT
ATOM      1  C   UNL     1       2.100   7.356  18.619  0.00  0.00    +0.000 C 
ATOM      2  C   UNL     1       1.998   6.125  19.536  0.00  0.00    +0.000 C 
ATOM      3  C   UNL     1       2.516   4.880  18.811  0.00  0.00    +0.000 C 
ATOM      4  C   UNL     1       2.455   3.651  19.723  0.00  0.00    +0.000 C 
ATOM      5  C   UNL     1       3.926   5.140  18.230  0.00  0.00    +0.000 C 
ATOM      6  C   UNL     1       5.019   5.178  19.319  0.00  0.00    +0.000 C 
ATOM      7  C   UNL     1       6.314   5.816  18.890  0.00  0.00    +0.000 C 
ATOM      8  C   UNL     1       6.457   6.521  17.759  0.00  0.00    +0.000 C 
ATOM      9  C   UNL     1       7.769   7.156  17.374  0.00  0.00    +0.000 C 
ATOM     10  C   UNL     1       5.310   6.746  16.807  0.00  0.00    +0.000 C 
ATOM     11  C   UNL     1       3.921   6.452  17.419  0.00  0.00    +0.000 C 
ATOM     12  O   UNL     1       3.481   7.546  18.257  0.00  0.00    +0.000 OA
ENDROOT
BRANCH   1  16
ATOM     13  C   UNL     1       0.099  10.648  20.629  0.00  0.00    +0.000 A 
ATOM     14  C   UNL     1       0.846  10.880  19.462  0.00  0.00    +0.000 A 
ATOM     15  C   UNL     1       1.493   9.849  18.769  0.00  0.00    +0.000 A 
ATOM     16  C   UNL     1       1.498   8.558  19.313  0.00  0.00    +0.000 A 
ATOM     17  C   UNL     1       0.852   8.362  20.554  0.00  0.00    +0.000 A 
ATOM     18  C   UNL     1       0.141   9.381  21.213  0.00  0.00    +0.000 A 
BRANCH  13  20
ATOM     19  C   UNL     1       0.089  12.820  21.567  0.00  0.00    +0.000 C 
ATOM     20  O   UNL     1      -0.644  11.650  21.196  0.00  0.00    +0.000 OA
ENDBRANCH  13  20
BRANCH  15  21
ATOM     21  O   UNL     1       2.127  10.296  17.642  0.00  0.00    +0.000 OA
ATOM     22  C   UNL     1       2.658  11.613  17.617  0.00  0.00    +0.000 C 
ENDBRANCH  15  21
BRANCH  18  23
ATOM     23  O   UNL     1      -0.445   8.932  22.365  0.00  0.00    +0.000 OA
ATOM     24  C   UNL     1      -0.032   9.459  23.614  0.00  0.00    +0.000 C 
ENDBRANCH  18  23
ENDBRANCH   1  16
BRANCH   3  25
ATOM     25  O   UNL     1       1.633   4.615  17.707  0.00  0.00    +0.000 OA
ATOM     26  H   UNL     1       1.019   5.365  17.616  0.00  0.00    +0.000 HD
ENDBRANCH   3  25
BRANCH  10  27
ATOM     27  O   UNL     1       5.532   5.884  15.682  0.00  0.00    +0.000 OA
ATOM     28  H   UNL     1       5.003   6.232  14.943  0.00  0.00    +0.000 HD
ENDBRANCH  10  27
TORSDOF 6
ENDMDL
MODEL 3
REMARK VINA RESULT:      -6.2      2.123      4.297
REMARK  Name = 
REMARK  11 active torsions:
REMARK  status: ('A' for Active; 'I' for Inactive)
REMARK    1  A    between atoms: C_1  and  O_2
REMARK    2  A    between atoms: O_2  and  C_3
REMARK    3  A    between atoms: C_5  and  O_6
REMARK    4  A    between atoms: O_6  and  C_7
REMARK    5  A    between atoms: C_8  and  C_9
REMARK    6  A    between atoms: C_11  and  C_12
REMARK    7  A    between atoms: C_11  and  O_13
REMARK    8  A    between atoms: C_17  and  C_18
REMARK    9  A    between atoms: C_19  and  O_20
REMARK   10  A    between atoms: C_24  and  O_25
REMARK   11  A    between atoms: O_25  and  C_26
REMARK                            x       y       z     vdW  Elec       q    Type
REMARK                         _______ _______ _______ _____ _____    ______ ____
ROOT
ATOM      1  C   UNL     1       0.739  10.212  18.507  0.00  0.00    +0.000 C 
ATOM      2  C   UNL     1       1.055  11.402  19.432  0.00  0.00    +0.000 C 
ATOM      3  C   UNL     1       0.509  12.700  18.831  0.00  0.00    +0.000 C 
ATOM      4  C   UNL     1       0.783  13.888  19.757  0.00  0.00    +0.000 C 
ATOM      5  C   UNL     1      -0.986  12.541  18.468  0.00  0.00    +0.000 C 
ATOM      6  C   UNL     1      -1.900  12.523  19.711  0.00  0.00    +0.000 C 
ATOM      7  C   UNL     1      -3.282  11.975  19.470  0.00  0.00    +0.000 C 
ATOM      8  C   UNL     1      -3.639  11.322  18.355  0.00  0.00    +0.000 C 
ATOM      9  C   UNL     1      -5.031  10.775  18.160  0.00  0.00    +0.000 C 
ATOM     10  C   UNL     1      -2.666  11.069  17.231  0.00  0.00    +0.000 C 
ATOM     11  C   UNL     1      -1.185  11.261  17.629  0.00  0.00    +0.000 C 
ATOM     12  O   UNL     1      -0.689  10.114  18.358  0.00  0.00    +0.000 OA
ENDROOT
BRANCH   1  16
ATOM     13  C   UNL     1       2.421   6.443  19.866  0.00  0.00    +0.000 A 
ATOM     14  C   UNL     1       1.683   7.249  20.749  0.00  0.00    +0.000 A 
ATOM     15  C   UNL     1       1.107   8.462  20.352  0.00  0.00    +0.000 A 
ATOM     16  C   UNL     1       1.366   8.954  19.067  0.00  0.00    +0.000 A 
ATOM     17  C   UNL     1       2.216   8.197  18.230  0.00  0.00    +0.000 A 
ATOM     18  C   UNL     1       2.736   6.946  18.602  0.00  0.00    +0.000 A 
BRANCH  13  20
ATOM     19  C   UNL     1       1.854   4.380  20.876  0.00  0.00    +0.000 C 
ATOM     20  O   UNL     1       2.843   5.195  20.242  0.00  0.00    +0.000 OA
ENDBRANCH  13  20
BRANCH  15  21
ATOM     21  O   UNL     1       0.401   9.058  21.362  0.00  0.00    +0.000 OA
ATOM     22  C   UNL     1       1.032   9.282  22.615  0.00  0.00    +0.000 C 
ENDBRANCH  15  21
BRANCH  18  23
ATOM     23  O   UNL     1       3.481   6.384  17.601  0.00  0.00    +0.000 OA
ATOM     24  C   UNL     1       4.892   6.514  17.619  0.00  0.00    +0.000 C 
ENDBRANCH  18  23
ENDBRANCH   1  16
BRANCH   3  25
ATOM     25  O   UNL     1       1.228  12.955  17.611  0.00  0.00    +0.000 OA
ATOM     26  H   UNL     1       1.466  12.101  17.209  0.00  0.00    +0.000 HD
ENDBRANCH   3  25
BRANCH  10  27
ATOM     27  O   UNL     1      -3.004  11.983  16.179  0.00  0.00    +0.000 OA
ATOM     28  H   UNL     1      -2.347  12.700  16.199  0.00  0.00    +0.000 HD
ENDBRANCH  10  27
TORSDOF 6
ENDMDL
MODEL 4
REMARK VINA RESULT:      -6.2      3.969      7.528
REMARK  Name = 
REMARK  11 active torsions:
REMARK  status: ('A' for Active; 'I' for Inactive)
REMARK    1  A    between atoms: C_1  and  O_2
REMARK    2  A    between atoms: O_2  and  C_3
REMARK    3  A    between atoms: C_5  and  O_6
REMARK    4  A    between atoms: O_6  and  C_7
REMARK    5  A    between atoms: C_8  and  C_9
REMARK    6  A    between atoms: C_11  and  C_12
REMARK    7  A    between atoms: C_11  and  O_13
REMARK    8  A    between atoms: C_17  and  C_18
REMARK    9  A    between atoms: C_19  and  O_20
REMARK   10  A    between atoms: C_24  and  O_25
REMARK   11  A    between atoms: O_25  and  C_26
REMARK                            x       y       z     vdW  Elec       q    Type
REMARK                         _______ _______ _______ _____ _____    ______ ____
ROOT
ATOM      1  C   UNL     1      -1.189  11.322  18.140  0.00  0.00    +0.000 C 
ATOM      2  C   UNL     1      -0.937  10.373  19.326  0.00  0.00    +0.000 C 
ATOM      3  C   UNL     1       0.559  10.072  19.454  0.00  0.00    +0.000 C 
ATOM      4  C   UNL     1       0.831   9.158  20.652  0.00  0.00    +0.000 C 
ATOM      5  C   UNL     1       1.374  11.386  19.491  0.00  0.00    +0.000 C 
ATOM      6  C   UNL     1       1.230  12.137  20.831  0.00  0.00    +0.000 C 
ATOM      7  C   UNL     1       1.650  13.582  20.792  0.00  0.00    +0.000 C 
ATOM      8  C   UNL     1       1.894  14.256  19.659  0.00  0.00    +0.000 C 
ATOM      9  C   UNL     1       2.299  15.709  19.663  0.00  0.00    +0.000 C 
ATOM     10  C   UNL     1       1.758  13.612  18.302  0.00  0.00    +0.000 C 
ATOM     11  C   UNL     1       0.957  12.291  18.313  0.00  0.00    +0.000 C 
ATOM     12  O   UNL     1      -0.466  12.546  18.370  0.00  0.00    +0.000 OA
ENDROOT
BRANCH   1  16
ATOM     13  C   UNL     1      -5.508  11.723  17.878  0.00  0.00    +0.000 A 
ATOM     14  C   UNL     1      -4.745  11.505  16.719  0.00  0.00    +0.000 A 
ATOM     15  C   UNL     1      -3.354  11.351  16.756  0.00  0.00    +0.000 A 
ATOM     16  C   UNL     1      -2.677  11.535  17.968  0.00  0.00    +0.000 A 
ATOM     17  C   UNL     1      -3.442  11.881  19.104  0.00  0.00    +0.000 A 
ATOM     18  C   UNL     1      -4.845  11.965  19.083  0.00  0.00    +0.000 A 
BRANCH  13  20
ATOM     19  C   UNL     1      -7.492  13.009  17.771  0.00  0.00    +0.000 C 
ATOM     20  O   UNL     1      -6.877  11.719  17.827  0.00  0.00    +0.000 OA
ENDBRANCH  13  20
BRANCH  15  21
ATOM     21  O   UNL     1      -2.823  11.109  15.517  0.00  0.00    +0.000 OA
ATOM     22  C   UNL     1      -3.301  10.009  14.757  0.00  0.00    +0.000 C 
ENDBRANCH  15  21
BRANCH  18  23
ATOM     23  O   UNL     1      -5.358  12.257  20.317  0.00  0.00    +0.000 OA
ATOM     24  C   UNL     1      -4.568  12.968  21.255  0.00  0.00    +0.000 C 
ENDBRANCH  18  23
ENDBRANCH   1  16
BRANCH   3  25
ATOM     25  O   UNL     1       0.962   9.343  18.281  0.00  0.00    +0.000 OA
ATOM     26  H   UNL     1       1.379   8.510  18.563  0.00  0.00    +0.000 HD
ENDBRANCH   3  25
BRANCH  10  27
ATOM     27  O   UNL     1       3.088  13.365  17.827  0.00  0.00    +0.000 OA
ATOM     28  H   UNL     1       3.069  13.453  16.858  0.00  0.00    +0.000 HD
ENDBRANCH  10  27
TORSDOF 6
ENDMDL
MODEL 5
REMARK VINA RESULT:      -6.1      3.749      8.093
REMARK  Name = 
REMARK  11 active torsions:
REMARK  status: ('A' for Active; 'I' for Inactive)
REMARK    1  A    between atoms: C_1  and  O_2
REMARK    2  A    between atoms: O_2  and  C_3
REMARK    3  A    between atoms: C_5  and  O_6
REMARK    4  A    between atoms: O_6  and  C_7
REMARK    5  A    between atoms: C_8  and  C_9
REMARK    6  A    between atoms: C_11  and  C_12
REMARK    7  A    between atoms: C_11  and  O_13
REMARK    8  A    between atoms: C_17  and  C_18
REMARK    9  A    between atoms: C_19  and  O_20
REMARK   10  A    between atoms: C_24  and  O_25
REMARK   11  A    between atoms: O_25  and  C_26
REMARK                            x       y       z     vdW  Elec       q    Type
REMARK                         _______ _______ _______ _____ _____    ______ ____
ROOT
ATOM      1  C   UNL     1      -1.744  11.678  19.943  0.00  0.00    +0.000 C 
ATOM      2  C   UNL     1      -0.932  12.974  19.768  0.00  0.00    +0.000 C 
ATOM      3  C   UNL     1       0.401  12.869  20.513  0.00  0.00    +0.000 C 
ATOM      4  C   UNL     1       1.237  14.138  20.319  0.00  0.00    +0.000 C 
ATOM      5  C   UNL     1       1.149  11.578  20.104  0.00  0.00    +0.000 C 
ATOM      6  C   UNL     1       1.744  11.661  18.683  0.00  0.00    +0.000 C 
ATOM      7  C   UNL     1       2.119  10.335  18.077  0.00  0.00    +0.000 C 
ATOM      8  C   UNL     1       1.751   9.152  18.591  0.00  0.00    +0.000 C 
ATOM      9  C   UNL     1       2.135   7.845  17.944  0.00  0.00    +0.000 C 
ATOM     10  C   UNL     1       0.909   9.050  19.838  0.00  0.00    +0.000 C 
ATOM     11  C   UNL     1       0.200  10.367  20.225  0.00  0.00    +0.000 C 
ATOM     12  O   UNL     1      -0.977  10.582  19.410  0.00  0.00    +0.000 OA
ENDROOT
BRANCH   1  16
ATOM     13  C   UNL     1      -5.481  12.262  17.806  0.00  0.00    +0.000 A 
ATOM     14  C   UNL     1      -5.370  12.640  19.154  0.00  0.00    +0.000 A 
ATOM     15  C   UNL     1      -4.181  12.489  19.878  0.00  0.00    +0.000 A 
ATOM     16  C   UNL     1      -3.096  11.833  19.283  0.00  0.00    +0.000 A 
ATOM     17  C   UNL     1      -3.263  11.341  17.970  0.00  0.00    +0.000 A 
ATOM     18  C   UNL     1      -4.430  11.556  17.217  0.00  0.00    +0.000 A 
BRANCH  13  20
ATOM     19  C   UNL     1      -6.806  13.948  16.806  0.00  0.00    +0.000 C 
ATOM     20  O   UNL     1      -6.607  12.560  17.085  0.00  0.00    +0.000 OA
ENDBRANCH  13  20
BRANCH  15  21
ATOM     21  O   UNL     1      -4.288  12.960  21.159  0.00  0.00    +0.000 OA
ATOM     22  C   UNL     1      -5.522  12.829  21.849  0.00  0.00    +0.000 C 
ENDBRANCH  15  21
BRANCH  18  23
ATOM     23  O   UNL     1      -4.328  11.036  15.956  0.00  0.00    +0.000 OA
ATOM     24  C   UNL     1      -3.048  10.799  15.395  0.00  0.00    +0.000 C 
ENDBRANCH  18  23
ENDBRANCH   1  16
BRANCH   3  25
ATOM     25  O   UNL     1       0.114  12.778  21.919  0.00  0.00    +0.000 OA
ATOM     26  H   UNL     1       0.955  12.791  22.408  0.00  0.00    +0.000 HD
ENDBRANCH   3  25
BRANCH  10  27
ATOM     27  O   UNL     1       1.789   8.648  20.897  0.00  0.00    +0.000 OA
ATOM     28  H   UNL     1       1.280   8.692  21.726  0.00  0.00    +0.000 HD
ENDBRANCH  10  27
TORSDOF 6
ENDMDL
MODEL 6
REMARK VINA RESULT:      -6.1      3.633      8.169
REMARK  Name = 
REMARK  11 active torsions:
REMARK  status: ('A' for Active; 'I' for Inactive)
REMARK    1  A    between atoms: C_1  and  O_2
REMARK    2  A    between atoms: O_2  and  C_3
REMARK    3  A    between atoms: C_5  and  O_6
REMARK    4  A    between atoms: O_6  and  C_7
REMARK    5  A    between atoms: C_8  and  C_9
REMARK    6  A    between atoms: C_11  and  C_12
REMARK    7  A    between atoms: C_11  and  O_13
REMARK    8  A    between atoms: C_17  and  C_18
REMARK    9  A    between atoms: C_19  and  O_20
REMARK   10  A    between atoms: C_24  and  O_25
REMARK   11  A    between atoms: O_25  and  C_26
REMARK                            x       y       z     vdW  Elec       q    Type
REMARK                         _______ _______ _______ _____ _____    ______ ____
ROOT
ATOM      1  C   UNL     1      -1.546  12.005  19.707  0.00  0.00    +0.000 C 
ATOM      2  C   UNL     1      -0.614  12.634  18.655  0.00  0.00    +0.000 C 
ATOM      3  C   UNL     1       0.806  12.759  19.212  0.00  0.00    +0.000 C 
ATOM      4  C   UNL     1       1.754  13.350  18.165  0.00  0.00    +0.000 C 
ATOM      5  C   UNL     1       1.288  11.400  19.774  0.00  0.00    +0.000 C 
ATOM      6  C   UNL     1       1.622  10.383  18.663  0.00  0.00    +0.000 C 
ATOM      7  C   UNL     1       1.700   8.951  19.122  0.00  0.00    +0.000 C 
ATOM      8  C   UNL     1       1.277   8.531  20.323  0.00  0.00    +0.000 C 
ATOM      9  C   UNL     1       1.359   7.083  20.738  0.00  0.00    +0.000 C 
ATOM     10  C   UNL     1       0.669   9.474  21.331  0.00  0.00    +0.000 C 
ATOM     11  C   UNL     1       0.224  10.827  20.734  0.00  0.00    +0.000 C 
ATOM     12  O   UNL     1      -1.042  10.699  20.044  0.00  0.00    +0.000 OA
ENDROOT
BRANCH   1  16
ATOM     13  C   UNL     1      -5.514  12.088  17.937  0.00  0.00    +0.000 A 
ATOM     14  C   UNL     1      -5.332  12.439  19.285  0.00  0.00    +0.000 A 
ATOM     15  C   UNL     1      -4.071  12.446  19.894  0.00  0.00    +0.000 A 
ATOM     16  C   UNL     1      -2.963  11.976  19.177  0.00  0.00    +0.000 A 
ATOM     17  C   UNL     1      -3.179  11.503  17.863  0.00  0.00    +0.000 A 
ATOM     18  C   UNL     1      -4.431  11.564  17.227  0.00  0.00    +0.000 A 
BRANCH  13  20
ATOM     19  C   UNL     1      -7.018  13.547  16.839  0.00  0.00    +0.000 C 
ATOM     20  O   UNL     1      -6.734  12.236  17.333  0.00  0.00    +0.000 OA
ENDBRANCH  13  20
BRANCH  15  21
ATOM     21  O   UNL     1      -4.124  12.858  21.198  0.00  0.00    +0.000 OA
ATOM     22  C   UNL     1      -5.387  13.082  21.807  0.00  0.00    +0.000 C 
ENDBRANCH  15  21
BRANCH  18  23
ATOM     23  O   UNL     1      -4.374  11.101  15.941  0.00  0.00    +0.000 OA
ATOM     24  C   UNL     1      -3.117  10.804  15.357  0.00  0.00    +0.000 C 
ENDBRANCH  18  23
ENDBRANCH   1  16
BRANCH   3  25
ATOM     25  O   UNL     1       0.768  13.693  20.306  0.00  0.00    +0.000 OA
ATOM     26  H   UNL     1       1.669  14.032  20.453  0.00  0.00    +0.000 HD
ENDBRANCH   3  25
BRANCH  10  27
ATOM     27  O   UNL     1       1.664   9.697  22.339  0.00  0.00    +0.000 OA
ATOM     28  H   UNL     1       1.616  10.637  22.589  0.00  0.00    +0.000 HD
ENDBRANCH  10  27
TORSDOF 6
ENDMDL
MODEL 7
REMARK VINA RESULT:      -6.1      1.224      1.240
REMARK  Name = 
REMARK  11 active torsions:
REMARK  status: ('A' for Active; 'I' for Inactive)
REMARK    1  A    between atoms: C_1  and  O_2
REMARK    2  A    between atoms: O_2  and  C_3
REMARK    3  A    between atoms: C_5  and  O_6
REMARK    4  A    between atoms: O_6  and  C_7
REMARK    5  A    between atoms: C_8  and  C_9
REMARK    6  A    between atoms: C_11  and  C_12
REMARK    7  A    between atoms: C_11  and  O_13
REMARK    8  A    between atoms: C_17  and  C_18
REMARK    9  A    between atoms: C_19  and  O_20
REMARK   10  A    between atoms: C_24  and  O_25
REMARK   11  A    between atoms: O_25  and  C_26
REMARK                            x       y       z     vdW  Elec       q    Type
REMARK                         _______ _______ _______ _____ _____    ______ ____
ROOT
ATOM      1  C   UNL     1       1.902   8.151  19.986  0.00  0.00    +0.000 C 
ATOM      2  C   UNL     1       1.104   8.143  21.303  0.00  0.00    +0.000 C 
ATOM      3  C   UNL     1       0.670   9.565  21.667  0.00  0.00    +0.000 C 
ATOM      4  C   UNL     1      -0.157   9.571  22.956  0.00  0.00    +0.000 C 
ATOM      5  C   UNL     1      -0.054  10.233  20.475  0.00  0.00    +0.000 C 
ATOM      6  C   UNL     1      -1.472   9.668  20.249  0.00  0.00    +0.000 C 
ATOM      7  C   UNL     1      -2.063   9.967  18.897  0.00  0.00    +0.000 C 
ATOM      8  C   UNL     1      -1.356  10.458  17.869  0.00  0.00    +0.000 C 
ATOM      9  C   UNL     1      -1.983  10.729  16.525  0.00  0.00    +0.000 C 
ATOM     10  C   UNL     1       0.120  10.750  17.980  0.00  0.00    +0.000 C 
ATOM     11  C   UNL     1       0.800  10.084  19.198  0.00  0.00    +0.000 C 
ATOM     12  O   UNL     1       1.064   8.684  18.944  0.00  0.00    +0.000 OA
ENDROOT
BRANCH   1  16
ATOM     13  C   UNL     1       3.475   4.140  19.419  0.00  0.00    +0.000 A 
ATOM     14  C   UNL     1       3.672   5.124  18.436  0.00  0.00    +0.000 A 
ATOM     15  C   UNL     1       3.201   6.435  18.583  0.00  0.00    +0.000 A 
ATOM     16  C   UNL     1       2.404   6.755  19.689  0.00  0.00    +0.000 A 
ATOM     17  C   UNL     1       2.104   5.724  20.607  0.00  0.00    +0.000 A 
ATOM     18  C   UNL     1       2.636   4.427  20.498  0.00  0.00    +0.000 A 
BRANCH  13  20
ATOM     19  C   UNL     1       3.452   2.001  18.407  0.00  0.00    +0.000 C 
ATOM     20  O   UNL     1       4.076   2.914  19.314  0.00  0.00    +0.000 OA
ENDBRANCH  13  20
BRANCH  15  21
ATOM     21  O   UNL     1       3.540   7.232  17.523  0.00  0.00    +0.000 OA
ATOM     22  C   UNL     1       4.673   6.898  16.734  0.00  0.00    +0.000 C 
ENDBRANCH  15  21
BRANCH  18  23
ATOM     23  O   UNL     1       2.247   3.626  21.537  0.00  0.00    +0.000 OA
ATOM     24  C   UNL     1       1.235   2.655  21.333  0.00  0.00    +0.000 C 
ENDBRANCH  18  23
ENDBRANCH   1  16
BRANCH   3  25
ATOM     25  O   UNL     1       1.858  10.331  21.938  0.00  0.00    +0.000 OA
ATOM     26  H   UNL     1       1.799  11.173  21.454  0.00  0.00    +0.000 HD
ENDBRANCH   3  25
BRANCH  10  27
ATOM     27  O   UNL     1       0.252  12.174  18.075  0.00  0.00    +0.000 OA
ATOM     28  H   UNL     1       1.179  12.363  18.304  0.00  0.00    +0.000 HD
ENDBRANCH  10  27
TORSDOF 6
ENDMDL
MODEL 8
REMARK VINA RESULT:      -6.0      4.015      7.589
REMARK  Name = 
REMARK  11 active torsions:
REMARK  status: ('A' for Active; 'I' for Inactive)
REMARK    1  A    between atoms: C_1  and  O_2
REMARK    2  A    between atoms: O_2  and  C_3
REMARK    3  A    between atoms: C_5  and  O_6
REMARK    4  A    between atoms: O_6  and  C_7
REMARK    5  A    between atoms: C_8  and  C_9
REMARK    6  A    between atoms: C_11  and  C_12
REMARK    7  A    between atoms: C_11  and  O_13
REMARK    8  A    between atoms: C_17  and  C_18
REMARK    9  A    between atoms: C_19  and  O_20
REMARK   10  A    between atoms: C_24  and  O_25
REMARK   11  A    between atoms: O_25  and  C_26
REMARK                            x       y       z     vdW  Elec       q    Type
REMARK                         _______ _______ _______ _____ _____    ______ ____
ROOT
ATOM      1  C   UNL     1      -1.404  11.530  18.346  0.00  0.00    +0.000 C 
ATOM      2  C   UNL     1      -0.898  10.404  19.267  0.00  0.00    +0.000 C 
ATOM      3  C   UNL     1       0.610  10.214  19.092  0.00  0.00    +0.000 C 
ATOM      4  C   UNL     1       1.136   9.122  20.028  0.00  0.00    +0.000 C 
ATOM      5  C   UNL     1       1.349  11.564  19.253  0.00  0.00    +0.000 C 
ATOM      6  C   UNL     1       1.400  12.041  20.720  0.00  0.00    +0.000 C 
ATOM      7  C   UNL     1       1.729  13.499  20.898  0.00  0.00    +0.000 C 
ATOM      8  C   UNL     1       1.736  14.388  19.894  0.00  0.00    +0.000 C 
ATOM      9  C   UNL     1       2.057  15.844  20.117  0.00  0.00    +0.000 C 
ATOM     10  C   UNL     1       1.399  13.995  18.477  0.00  0.00    +0.000 C 
ATOM     11  C   UNL     1       0.685  12.630  18.358  0.00  0.00    +0.000 C 
ATOM     12  O   UNL     1      -0.718  12.748  18.692  0.00  0.00    +0.000 OA
ENDROOT
BRANCH   1  16
ATOM     13  C   UNL     1      -5.696  11.766  18.979  0.00  0.00    +0.000 A 
ATOM     14  C   UNL     1      -5.180  11.059  17.880  0.00  0.00    +0.000 A 
ATOM     15  C   UNL     1      -3.805  10.940  17.646  0.00  0.00    +0.000 A 
ATOM     16  C   UNL     1      -2.908  11.642  18.461  0.00  0.00    +0.000 A 
ATOM     17  C   UNL     1      -3.445  12.454  19.485  0.00  0.00    +0.000 A 
ATOM     18  C   UNL     1      -4.821  12.517  19.766  0.00  0.00    +0.000 A 
BRANCH  13  20
ATOM     19  C   UNL     1      -7.434  10.778  20.246  0.00  0.00    +0.000 C 
ATOM     20  O   UNL     1      -7.036  11.738  19.263  0.00  0.00    +0.000 OA
ENDBRANCH  13  20
BRANCH  15  21
ATOM     21  O   UNL     1      -3.528  10.176  16.543  0.00  0.00    +0.000 OA
ATOM     22  C   UNL     1      -3.279  10.813  15.299  0.00  0.00    +0.000 C 
ENDBRANCH  15  21
BRANCH  18  23
ATOM     23  O   UNL     1      -5.087  13.324  20.838  0.00  0.00    +0.000 OA
ATOM     24  C   UNL     1      -4.896  12.831  22.153  0.00  0.00    +0.000 C 
ENDBRANCH  18  23
ENDBRANCH   1  16
BRANCH   3  25
ATOM     25  O   UNL     1       0.841   9.750  17.750  0.00  0.00    +0.000 OA
ATOM     26  H   UNL     1       1.725  10.046  17.468  0.00  0.00    +0.000 HD
ENDBRANCH   3  25
BRANCH  10  27
ATOM     27  O   UNL     1       2.638  13.954  17.755  0.00  0.00    +0.000 OA
ATOM     28  H   UNL     1       2.714  13.067  17.364  0.00  0.00    +0.000 HD
ENDBRANCH  10  27
TORSDOF 6
ENDMDL
MODEL 9
REMARK VINA RESULT:      -5.9      2.721      7.636
REMARK  Name = 
REMARK  11 active torsions:
REMARK  status: ('A' for Active; 'I' for Inactive)
REMARK    1  A    between atoms: C_1  and  O_2
REMARK    2  A    between atoms: O_2  and  C_3
REMARK    3  A    between atoms: C_5  and  O_6
REMARK    4  A    between atoms: O_6  and  C_7
REMARK    5  A    between atoms: C_8  and  C_9
REMARK    6  A    between atoms: C_11  and  C_12
REMARK    7  A    between atoms: C_11  and  O_13
REMARK    8  A    between atoms: C_17  and  C_18
REMARK    9  A    between atoms: C_19  and  O_20
REMARK   10  A    between atoms: C_24  and  O_25
REMARK   11  A    between atoms: O_25  and  C_26
REMARK                            x       y       z     vdW  Elec       q    Type
REMARK                         _______ _______ _______ _____ _____    ______ ____
ROOT
ATOM      1  C   UNL     1       4.141   5.682  18.633  0.00  0.00    +0.000 C 
ATOM      2  C   UNL     1       5.497   6.320  18.986  0.00  0.00    +0.000 C 
ATOM      3  C   UNL     1       6.628   5.310  18.777  0.00  0.00    +0.000 C 
ATOM      4  C   UNL     1       7.988   5.940  19.089  0.00  0.00    +0.000 C 
ATOM      5  C   UNL     1       6.550   4.698  17.358  0.00  0.00    +0.000 C 
ATOM      6  C   UNL     1       6.990   5.688  16.259  0.00  0.00    +0.000 C 
ATOM      7  C   UNL     1       6.563   5.313  14.865  0.00  0.00    +0.000 C 
ATOM      8  C   UNL     1       5.669   4.351  14.594  0.00  0.00    +0.000 C 
ATOM      9  C   UNL     1       5.257   4.017  13.183  0.00  0.00    +0.000 C 
ATOM     10  C   UNL     1       4.997   3.555  15.685  0.00  0.00    +0.000 C 
ATOM     11  C   UNL     1       5.119   4.188  17.089  0.00  0.00    +0.000 C 
ATOM     12  O   UNL     1       4.173   5.271  17.254  0.00  0.00    +0.000 OA
ENDROOT
BRANCH   1  16
ATOM     13  C   UNL     1       1.156   8.719  19.502  0.00  0.00    +0.000 A 
ATOM     14  C   UNL     1       1.214   7.542  20.268  0.00  0.00    +0.000 A 
ATOM     15  C   UNL     1       2.169   6.544  20.037  0.00  0.00    +0.000 A 
ATOM     16  C   UNL     1       3.026   6.659  18.936  0.00  0.00    +0.000 A 
ATOM     17  C   UNL     1       2.874   7.785  18.096  0.00  0.00    +0.000 A 
ATOM     18  C   UNL     1       1.964   8.822  18.368  0.00  0.00    +0.000 A 
BRANCH  13  20
ATOM     19  C   UNL     1       0.619  10.401  21.076  0.00  0.00    +0.000 C 
ATOM     20  O   UNL     1       0.310   9.739  19.847  0.00  0.00    +0.000 OA
ENDBRANCH  13  20
BRANCH  15  21
ATOM     21  O   UNL     1       2.065   5.508  20.926  0.00  0.00    +0.000 OA
ATOM     22  C   UNL     1       1.248   4.392  20.602  0.00  0.00    +0.000 C 
ENDBRANCH  15  21
BRANCH  18  23
ATOM     23  O   UNL     1       2.044   9.827  17.443  0.00  0.00    +0.000 OA
ATOM     24  C   UNL     1       2.427  11.129  17.853  0.00  0.00    +0.000 C 
ENDBRANCH  18  23
ENDBRANCH   1  16
BRANCH   3  25
ATOM     25  O   UNL     1       6.444   4.241  19.722  0.00  0.00    +0.000 OA
ATOM     26  H   UNL     1       6.227   4.629  20.588  0.00  0.00    +0.000 HD
ENDBRANCH   3  25
BRANCH  10  27
ATOM     27  O   UNL     1       5.612   2.259  15.687  0.00  0.00    +0.000 OA
ATOM     28  H   UNL     1       5.627   1.946  14.766  0.00  0.00    +0.000 HD
ENDBRANCH  10  27
TORSDOF 6
ENDMDL
