MODEL 1
REMARK VINA RESULT:      -8.2      0.000      0.000
REMARK  Name = 
REMARK  6 active torsions:
REMARK  status: ('A' for Active; 'I' for Inactive)
REMARK    1  A    between atoms: C_1  and  C_2
REMARK    2  A    between atoms: C_2  and  C_3
REMARK    3  A    between atoms: C_2  and  C_4
REMARK    4  A    between atoms: C_4  and  C_5
REMARK    5  A    between atoms: C_5  and  N_6
REMARK    6  A    between atoms: C_12  and  C_13
REMARK                            x       y       z     vdW  Elec       q    Type
REMARK                         _______ _______ _______ _____ _____    ______ ____
ROOT
ATOM      1  N   UNL     1       5.442   5.078  16.967  0.00  0.00    +0.000 N 
ATOM      2  C   UNL     1       4.889   4.673  18.152  0.00  0.00    +0.000 C 
ATOM      3  O   UNL     1       5.102   3.672  18.802  0.00  0.00    +0.000 OA
ATOM      4  C   UNL     1       3.940   5.717  18.549  0.00  0.00    +0.000 A 
ATOM      5  C   UNL     1       3.105   5.791  19.645  0.00  0.00    +0.000 A 
ATOM      6  C   UNL     1       2.284   6.921  19.754  0.00  0.00    +0.000 A 
ATOM      7  C   UNL     1       2.319   7.934  18.767  0.00  0.00    +0.000 A 
ATOM      8  C   UNL     1       3.183   7.832  17.664  0.00  0.00    +0.000 A 
ATOM      9  C   UNL     1       3.984   6.708  17.587  0.00  0.00    +0.000 A 
ATOM     10  C   UNL     1       4.965   6.304  16.580  0.00  0.00    +0.000 C 
ATOM     11  O   UNL     1       5.269   6.980  15.617  0.00  0.00    +0.000 OA
ENDROOT
BRANCH   7  12
ATOM     12  C   UNL     1       1.371   9.079  18.828  0.00  0.00    +0.000 C 
ATOM     13  O   UNL     1       1.206   9.747  17.810  0.00  0.00    +0.000 OA
ATOM     14  N   UNL     1       0.807   9.325  20.058  0.00  0.00    +0.000 N 
ATOM     15  C   UNL     1      -0.036  10.418  20.292  0.00  0.00    +0.000 A 
ATOM     16  C   UNL     1      -1.056  10.763  19.413  0.00  0.00    +0.000 A 
ATOM     17  C   UNL     1      -1.835  11.882  19.698  0.00  0.00    +0.000 A 
ATOM     18  C   UNL     1      -1.544  12.638  20.826  0.00  0.00    +0.000 A 
ATOM     19  C   UNL     1      -0.518  12.208  21.652  0.00  0.00    +0.000 A 
ATOM     20  N   UNL     1       0.209  11.088  21.435  0.00  0.00    +0.000 NA
ATOM     21  H   UNL     1       1.326   9.050  20.881  0.00  0.00    +0.000 HD
ENDBRANCH   7  12
BRANCH   1  22
ATOM     22  C   UNL     1       6.466   4.339  16.252  0.00  0.00    +0.000 C 
BRANCH  22  23
ATOM     23  C   UNL     1       5.935   3.585  15.025  0.00  0.00    +0.000 C 
BRANCH  23  25
ATOM     24  C   UNL     1       7.492   5.013  13.603  0.00  0.00    +0.000 C 
ATOM     25  C   UNL     1       6.136   4.312  13.682  0.00  0.00    +0.000 C 
ATOM     26  C   UNL     1       6.001   3.317  12.525  0.00  0.00    +0.000 C 
ENDBRANCH  23  25
ENDBRANCH  22  23
ENDBRANCH   1  22
TORSDOF 4
ENDMDL
MODEL 2
REMARK VINA RESULT:      -8.1      1.381      1.804
REMARK  Name = 
REMARK  6 active torsions:
REMARK  status: ('A' for Active; 'I' for Inactive)
REMARK    1  A    between atoms: C_1  and  C_2
REMARK    2  A    between atoms: C_2  and  C_3
REMARK    3  A    between atoms: C_2  and  C_4
REMARK    4  A    between atoms: C_4  and  C_5
REMARK    5  A    between atoms: C_5  and  N_6
REMARK    6  A    between atoms: C_12  and  C_13
REMARK                            x       y       z     vdW  Elec       q    Type
REMARK                         _______ _______ _______ _____ _____    ______ ____
ROOT
ATOM      1  N   UNL     1       5.024   4.610  16.298  0.00  0.00    +0.000 N 
ATOM      2  C   UNL     1       4.338   3.859  17.214  0.00  0.00    +0.000 C 
ATOM      3  O   UNL     1       4.315   2.657  17.366  0.00  0.00    +0.000 OA
ATOM      4  C   UNL     1       3.590   4.802  18.050  0.00  0.00    +0.000 A 
ATOM      5  C   UNL     1       2.725   4.569  19.100  0.00  0.00    +0.000 A 
ATOM      6  C   UNL     1       2.136   5.685  19.710  0.00  0.00    +0.000 A 
ATOM      7  C   UNL     1       2.423   6.992  19.250  0.00  0.00    +0.000 A 
ATOM      8  C   UNL     1       3.311   7.197  18.181  0.00  0.00    +0.000 A 
ATOM      9  C   UNL     1       3.881   6.077  17.604  0.00  0.00    +0.000 A 
ATOM     10  C   UNL     1       4.818   5.952  16.488  0.00  0.00    +0.000 C 
ATOM     11  O   UNL     1       5.301   6.897  15.897  0.00  0.00    +0.000 OA
ENDROOT
BRANCH   7  12
ATOM     12  C   UNL     1       1.715   8.166  19.826  0.00  0.00    +0.000 C 
ATOM     13  O   UNL     1       1.449   8.147  21.027  0.00  0.00    +0.000 OA
ATOM     14  N   UNL     1       1.361   9.151  18.935  0.00  0.00    +0.000 N 
ATOM     15  C   UNL     1       0.616  10.273  19.313  0.00  0.00    +0.000 A 
ATOM     16  C   UNL     1       0.904  10.994  20.466  0.00  0.00    +0.000 A 
ATOM     17  C   UNL     1       0.099  12.084  20.792  0.00  0.00    +0.000 A 
ATOM     18  C   UNL     1      -0.985  12.390  19.981  0.00  0.00    +0.000 A 
ATOM     19  C   UNL     1      -1.184  11.624  18.843  0.00  0.00    +0.000 A 
ATOM     20  N   UNL     1      -0.379  10.604  18.466  0.00  0.00    +0.000 NA
ATOM     21  H   UNL     1       1.203   8.883  17.972  0.00  0.00    +0.000 HD
ENDBRANCH   7  12
BRANCH   1  22
ATOM     22  C   UNL     1       5.923   4.056  15.301  0.00  0.00    +0.000 C 
BRANCH  22  23
ATOM     23  C   UNL     1       5.469   4.311  13.857  0.00  0.00    +0.000 C 
BRANCH  23  25
ATOM     24  C   UNL     1       5.236   2.839  11.792  0.00  0.00    +0.000 C 
ATOM     25  C   UNL     1       6.202   3.474  12.792  0.00  0.00    +0.000 C 
ATOM     26  C   UNL     1       7.215   4.347  12.047  0.00  0.00    +0.000 C 
ENDBRANCH  23  25
ENDBRANCH  22  23
ENDBRANCH   1  22
TORSDOF 4
ENDMDL
MODEL 3
REMARK VINA RESULT:      -7.9      1.391      1.887
REMARK  Name = 
REMARK  6 active torsions:
REMARK  status: ('A' for Active; 'I' for Inactive)
REMARK    1  A    between atoms: C_1  and  C_2
REMARK    2  A    between atoms: C_2  and  C_3
REMARK    3  A    between atoms: C_2  and  C_4
REMARK    4  A    between atoms: C_4  and  C_5
REMARK    5  A    between atoms: C_5  and  N_6
REMARK    6  A    between atoms: C_12  and  C_13
REMARK                            x       y       z     vdW  Elec       q    Type
REMARK                         _______ _______ _______ _____ _____    ______ ____
ROOT
ATOM      1  N   UNL     1       5.460   5.097  16.915  0.00  0.00    +0.000 N 
ATOM      2  C   UNL     1       5.017   4.645  18.129  0.00  0.00    +0.000 C 
ATOM      3  O   UNL     1       5.329   3.647  18.742  0.00  0.00    +0.000 OA
ATOM      4  C   UNL     1       4.047   5.631  18.614  0.00  0.00    +0.000 A 
ATOM      5  C   UNL     1       3.291   5.644  19.768  0.00  0.00    +0.000 A 
ATOM      6  C   UNL     1       2.423   6.727  19.959  0.00  0.00    +0.000 A 
ATOM      7  C   UNL     1       2.334   7.756  18.991  0.00  0.00    +0.000 A 
ATOM      8  C   UNL     1       3.119   7.717  17.827  0.00  0.00    +0.000 A 
ATOM      9  C   UNL     1       3.970   6.638  17.671  0.00  0.00    +0.000 A 
ATOM     10  C   UNL     1       4.893   6.303  16.588  0.00  0.00    +0.000 C 
ATOM     11  O   UNL     1       5.091   7.009  15.619  0.00  0.00    +0.000 OA
ENDROOT
BRANCH   7  12
ATOM     12  C   UNL     1       1.335   8.847  19.143  0.00  0.00    +0.000 C 
ATOM     13  O   UNL     1       1.135   9.294  20.271  0.00  0.00    +0.000 OA
ATOM     14  N   UNL     1       0.671   9.217  17.997  0.00  0.00    +0.000 N 
ATOM     15  C   UNL     1      -0.356  10.168  17.999  0.00  0.00    +0.000 A 
ATOM     16  C   UNL     1      -0.247  11.369  18.690  0.00  0.00    +0.000 A 
ATOM     17  C   UNL     1      -1.324  12.253  18.668  0.00  0.00    +0.000 A 
ATOM     18  C   UNL     1      -2.482  11.892  17.993  0.00  0.00    +0.000 A 
ATOM     19  C   UNL     1      -2.492  10.681  17.320  0.00  0.00    +0.000 A 
ATOM     20  N   UNL     1      -1.439   9.834  17.267  0.00  0.00    +0.000 NA
ATOM     21  H   UNL     1       0.559   8.523  17.270  0.00  0.00    +0.000 HD
ENDBRANCH   7  12
BRANCH   1  22
ATOM     22  C   UNL     1       6.467   4.425  16.114  0.00  0.00    +0.000 C 
BRANCH  22  23
ATOM     23  C   UNL     1       5.882   3.618  14.947  0.00  0.00    +0.000 C 
BRANCH  23  25
ATOM     24  C   UNL     1       5.769   3.501  12.405  0.00  0.00    +0.000 C 
ATOM     25  C   UNL     1       6.661   3.738  13.623  0.00  0.00    +0.000 C 
ATOM     26  C   UNL     1       7.313   5.120  13.523  0.00  0.00    +0.000 C 
ENDBRANCH  23  25
ENDBRANCH  22  23
ENDBRANCH   1  22
TORSDOF 4
ENDMDL
MODEL 4
REMARK VINA RESULT:      -7.9      1.605      2.942
REMARK  Name = 
REMARK  6 active torsions:
REMARK  status: ('A' for Active; 'I' for Inactive)
REMARK    1  A    between atoms: C_1  and  C_2
REMARK    2  A    between atoms: C_2  and  C_3
REMARK    3  A    between atoms: C_2  and  C_4
REMARK    4  A    between atoms: C_4  and  C_5
REMARK    5  A    between atoms: C_5  and  N_6
REMARK    6  A    between atoms: C_12  and  C_13
REMARK                            x       y       z     vdW  Elec       q    Type
REMARK                         _______ _______ _______ _____ _____    ______ ____
ROOT
ATOM      1  N   UNL     1       4.204   5.616  18.347  0.00  0.00    +0.000 N 
ATOM      2  C   UNL     1       3.996   6.694  17.529  0.00  0.00    +0.000 C 
ATOM      3  O   UNL     1       4.505   6.966  16.464  0.00  0.00    +0.000 OA
ATOM      4  C   UNL     1       2.980   7.524  18.183  0.00  0.00    +0.000 A 
ATOM      5  C   UNL     1       2.430   8.729  17.796  0.00  0.00    +0.000 A 
ATOM      6  C   UNL     1       1.475   9.304  18.645  0.00  0.00    +0.000 A 
ATOM      7  C   UNL     1       1.106   8.663  19.852  0.00  0.00    +0.000 A 
ATOM      8  C   UNL     1       1.681   7.435  20.217  0.00  0.00    +0.000 A 
ATOM      9  C   UNL     1       2.615   6.890  19.356  0.00  0.00    +0.000 A 
ATOM     10  C   UNL     1       3.390   5.653  19.450  0.00  0.00    +0.000 C 
ATOM     11  O   UNL     1       3.274   4.845  20.349  0.00  0.00    +0.000 OA
ENDROOT
BRANCH   7  12
ATOM     12  C   UNL     1       0.174   9.327  20.802  0.00  0.00    +0.000 C 
ATOM     13  O   UNL     1      -0.310   8.648  21.706  0.00  0.00    +0.000 OA
ATOM     14  N   UNL     1      -0.114  10.645  20.539  0.00  0.00    +0.000 N 
ATOM     15  C   UNL     1      -1.039  11.377  21.292  0.00  0.00    +0.000 A 
ATOM     16  C   UNL     1      -1.057  11.332  22.682  0.00  0.00    +0.000 A 
ATOM     17  C   UNL     1      -2.026  12.066  23.362  0.00  0.00    +0.000 A 
ATOM     18  C   UNL     1      -2.966  12.784  22.633  0.00  0.00    +0.000 A 
ATOM     19  C   UNL     1      -2.859  12.782  21.252  0.00  0.00    +0.000 A 
ATOM     20  N   UNL     1      -1.887  12.134  20.568  0.00  0.00    +0.000 NA
ATOM     21  H   UNL     1      -0.057  10.960  19.579  0.00  0.00    +0.000 HD
ENDBRANCH   7  12
BRANCH   1  22
ATOM     22  C   UNL     1       5.114   4.527  18.041  0.00  0.00    +0.000 C 
BRANCH  22  23
ATOM     23  C   UNL     1       4.813   3.832  16.707  0.00  0.00    +0.000 C 
BRANCH  23  25
ATOM     24  C   UNL     1       5.602   4.286  14.329  0.00  0.00    +0.000 C 
ATOM     25  C   UNL     1       5.994   3.788  15.719  0.00  0.00    +0.000 C 
ATOM     26  C   UNL     1       7.157   4.624  16.258  0.00  0.00    +0.000 C 
ENDBRANCH  23  25
ENDBRANCH  22  23
ENDBRANCH   1  22
TORSDOF 4
ENDMDL
MODEL 5
REMARK VINA RESULT:      -7.8      2.372      3.690
REMARK  Name = 
REMARK  6 active torsions:
REMARK  status: ('A' for Active; 'I' for Inactive)
REMARK    1  A    between atoms: C_1  and  C_2
REMARK    2  A    between atoms: C_2  and  C_3
REMARK    3  A    between atoms: C_2  and  C_4
REMARK    4  A    between atoms: C_4  and  C_5
REMARK    5  A    between atoms: C_5  and  N_6
REMARK    6  A    between atoms: C_12  and  C_13
REMARK                            x       y       z     vdW  Elec       q    Type
REMARK                         _______ _______ _______ _____ _____    ______ ____
ROOT
ATOM      1  N   UNL     1       3.958   5.621  18.504  0.00  0.00    +0.000 N 
ATOM      2  C   UNL     1       3.811   6.685  17.656  0.00  0.00    +0.000 C 
ATOM      3  O   UNL     1       4.332   6.894  16.581  0.00  0.00    +0.000 OA
ATOM      4  C   UNL     1       2.850   7.593  18.287  0.00  0.00    +0.000 A 
ATOM      5  C   UNL     1       2.372   8.817  17.866  0.00  0.00    +0.000 A 
ATOM      6  C   UNL     1       1.457   9.474  18.699  0.00  0.00    +0.000 A 
ATOM      7  C   UNL     1       1.055   8.893  19.926  0.00  0.00    +0.000 A 
ATOM      8  C   UNL     1       1.556   7.643  20.325  0.00  0.00    +0.000 A 
ATOM      9  C   UNL     1       2.453   7.017  19.479  0.00  0.00    +0.000 A 
ATOM     10  C   UNL     1       3.152   5.740  19.608  0.00  0.00    +0.000 C 
ATOM     11  O   UNL     1       2.992   4.967  20.531  0.00  0.00    +0.000 OA
ENDROOT
BRANCH   7  12
ATOM     12  C   UNL     1       0.169   9.639  20.858  0.00  0.00    +0.000 C 
ATOM     13  O   UNL     1      -0.160   9.089  21.907  0.00  0.00    +0.000 OA
ATOM     14  N   UNL     1      -0.260  10.871  20.422  0.00  0.00    +0.000 N 
ATOM     15  C   UNL     1      -1.165  11.652  21.150  0.00  0.00    +0.000 A 
ATOM     16  C   UNL     1      -1.038  11.840  22.522  0.00  0.00    +0.000 A 
ATOM     17  C   UNL     1      -1.996  12.607  23.182  0.00  0.00    +0.000 A 
ATOM     18  C   UNL     1      -3.063  13.124  22.460  0.00  0.00    +0.000 A 
ATOM     19  C   UNL     1      -3.096  12.898  21.094  0.00  0.00    +0.000 A 
ATOM     20  N   UNL     1      -2.146  12.215  20.416  0.00  0.00    +0.000 NA
ATOM     21  H   UNL     1      -0.327  11.023  19.424  0.00  0.00    +0.000 HD
ENDBRANCH   7  12
BRANCH   1  22
ATOM     22  C   UNL     1       4.799   4.470  18.229  0.00  0.00    +0.000 C 
BRANCH  22  23
ATOM     23  C   UNL     1       4.160   3.458  17.269  0.00  0.00    +0.000 C 
BRANCH  23  25
ATOM     24  C   UNL     1       4.041   1.977  19.337  0.00  0.00    +0.000 C 
ATOM     25  C   UNL     1       3.460   2.269  17.955  0.00  0.00    +0.000 C 
ATOM     26  C   UNL     1       1.959   2.544  18.073  0.00  0.00    +0.000 C 
ENDBRANCH  23  25
ENDBRANCH  22  23
ENDBRANCH   1  22
TORSDOF 4
ENDMDL
MODEL 6
REMARK VINA RESULT:      -7.8      3.151      9.972
REMARK  Name = 
REMARK  6 active torsions:
REMARK  status: ('A' for Active; 'I' for Inactive)
REMARK    1  A    between atoms: C_1  and  C_2
REMARK    2  A    between atoms: C_2  and  C_3
REMARK    3  A    between atoms: C_2  and  C_4
REMARK    4  A    between atoms: C_4  and  C_5
REMARK    5  A    between atoms: C_5  and  N_6
REMARK    6  A    between atoms: C_12  and  C_13
REMARK                            x       y       z     vdW  Elec       q    Type
REMARK                         _______ _______ _______ _____ _____    ______ ____
ROOT
ATOM      1  N   UNL     1      -0.768  11.450  22.069  0.00  0.00    +0.000 N 
ATOM      2  C   UNL     1      -0.734  11.722  20.728  0.00  0.00    +0.000 C 
ATOM      3  O   UNL     1      -1.247  12.630  20.109  0.00  0.00    +0.000 OA
ATOM      4  C   UNL     1       0.088  10.677  20.111  0.00  0.00    +0.000 A 
ATOM      5  C   UNL     1       0.420  10.470  18.787  0.00  0.00    +0.000 A 
ATOM      6  C   UNL     1       1.221   9.360  18.490  0.00  0.00    +0.000 A 
ATOM      7  C   UNL     1       1.660   8.493  19.518  0.00  0.00    +0.000 A 
ATOM      8  C   UNL     1       1.309   8.732  20.857  0.00  0.00    +0.000 A 
ATOM      9  C   UNL     1       0.522   9.838  21.119  0.00  0.00    +0.000 A 
ATOM     10  C   UNL     1      -0.015  10.348  22.381  0.00  0.00    +0.000 C 
ATOM     11  O   UNL     1       0.216   9.855  23.467  0.00  0.00    +0.000 OA
ENDROOT
BRANCH   7  12
ATOM     12  C   UNL     1       2.419   7.257  19.188  0.00  0.00    +0.000 C 
ATOM     13  O   UNL     1       2.796   7.103  18.028  0.00  0.00    +0.000 OA
ATOM     14  N   UNL     1       2.577   6.357  20.216  0.00  0.00    +0.000 N 
ATOM     15  C   UNL     1       3.192   5.113  20.036  0.00  0.00    +0.000 A 
ATOM     16  C   UNL     1       4.378   4.974  19.324  0.00  0.00    +0.000 A 
ATOM     17  C   UNL     1       4.915   3.699  19.163  0.00  0.00    +0.000 A 
ATOM     18  C   UNL     1       4.232   2.606  19.682  0.00  0.00    +0.000 A 
ATOM     19  C   UNL     1       3.066   2.845  20.391  0.00  0.00    +0.000 A 
ATOM     20  N   UNL     1       2.558   4.077  20.621  0.00  0.00    +0.000 NA
ATOM     21  H   UNL     1       1.876   6.344  20.946  0.00  0.00    +0.000 HD
ENDBRANCH   7  12
BRANCH   1  22
ATOM     22  C   UNL     1      -1.451  12.276  23.049  0.00  0.00    +0.000 C 
BRANCH  22  23
ATOM     23  C   UNL     1      -2.886  11.820  23.342  0.00  0.00    +0.000 C 
BRANCH  23  25
ATOM     24  C   UNL     1      -4.794  12.396  24.927  0.00  0.00    +0.000 C 
ATOM     25  C   UNL     1      -3.820  12.923  23.874  0.00  0.00    +0.000 C 
ATOM     26  C   UNL     1      -2.993  14.068  24.464  0.00  0.00    +0.000 C 
ENDBRANCH  23  25
ENDBRANCH  22  23
ENDBRANCH   1  22
TORSDOF 4
ENDMDL
MODEL 7
REMARK VINA RESULT:      -7.7      1.017      1.304
REMARK  Name = 
REMARK  6 active torsions:
REMARK  status: ('A' for Active; 'I' for Inactive)
REMARK    1  A    between atoms: C_1  and  C_2
REMARK    2  A    between atoms: C_2  and  C_3
REMARK    3  A    between atoms: C_2  and  C_4
REMARK    4  A    between atoms: C_4  and  C_5
REMARK    5  A    between atoms: C_5  and  N_6
REMARK    6  A    between atoms: C_12  and  C_13
REMARK                            x       y       z     vdW  Elec       q    Type
REMARK                         _______ _______ _______ _____ _____    ______ ____
ROOT
ATOM      1  N   UNL     1       5.175   4.630  16.226  0.00  0.00    +0.000 N 
ATOM      2  C   UNL     1       4.401   3.995  17.160  0.00  0.00    +0.000 C 
ATOM      3  O   UNL     1       4.329   2.816  17.432  0.00  0.00    +0.000 OA
ATOM      4  C   UNL     1       3.624   5.037  17.837  0.00  0.00    +0.000 A 
ATOM      5  C   UNL     1       2.678   4.936  18.837  0.00  0.00    +0.000 A 
ATOM      6  C   UNL     1       2.081   6.122  19.283  0.00  0.00    +0.000 A 
ATOM      7  C   UNL     1       2.442   7.367  18.714  0.00  0.00    +0.000 A 
ATOM      8  C   UNL     1       3.411   7.439  17.700  0.00  0.00    +0.000 A 
ATOM      9  C   UNL     1       3.986   6.252  17.286  0.00  0.00    +0.000 A 
ATOM     10  C   UNL     1       4.998   5.989  16.263  0.00  0.00    +0.000 C 
ATOM     11  O   UNL     1       5.552   6.856  15.617  0.00  0.00    +0.000 OA
ENDROOT
BRANCH   7  12
ATOM     12  C   UNL     1       1.731   8.611  19.113  0.00  0.00    +0.000 C 
ATOM     13  O   UNL     1       2.003   9.649  18.513  0.00  0.00    +0.000 OA
ATOM     14  N   UNL     1       0.867   8.494  20.177  0.00  0.00    +0.000 N 
ATOM     15  C   UNL     1       0.193   9.593  20.720  0.00  0.00    +0.000 A 
ATOM     16  C   UNL     1      -0.434  10.543  19.921  0.00  0.00    +0.000 A 
ATOM     17  C   UNL     1      -1.060  11.625  20.534  0.00  0.00    +0.000 A 
ATOM     18  C   UNL     1      -1.005  11.744  21.917  0.00  0.00    +0.000 A 
ATOM     19  C   UNL     1      -0.372  10.740  22.632  0.00  0.00    +0.000 A 
ATOM     20  N   UNL     1       0.185   9.644  22.068  0.00  0.00    +0.000 NA
ATOM     21  H   UNL     1       1.054   7.773  20.861  0.00  0.00    +0.000 HD
ENDBRANCH   7  12
BRANCH   1  22
ATOM     22  C   UNL     1       6.126   3.954  15.362  0.00  0.00    +0.000 C 
BRANCH  22  23
ATOM     23  C   UNL     1       6.178   4.529  13.941  0.00  0.00    +0.000 C 
BRANCH  23  25
ATOM     24  C   UNL     1       4.754   3.439  12.133  0.00  0.00    +0.000 C 
ATOM     25  C   UNL     1       6.121   3.478  12.815  0.00  0.00    +0.000 C 
ATOM     26  C   UNL     1       7.208   3.765  11.777  0.00  0.00    +0.000 C 
ENDBRANCH  23  25
ENDBRANCH  22  23
ENDBRANCH   1  22
TORSDOF 4
ENDMDL
MODEL 8
REMARK VINA RESULT:      -7.6      2.445      9.784
REMARK  Name = 
REMARK  6 active torsions:
REMARK  status: ('A' for Active; 'I' for Inactive)
REMARK    1  A    between atoms: C_1  and  C_2
REMARK    2  A    between atoms: C_2  and  C_3
REMARK    3  A    between atoms: C_2  and  C_4
REMARK    4  A    between atoms: C_4  and  C_5
REMARK    5  A    between atoms: C_5  and  N_6
REMARK    6  A    between atoms: C_12  and  C_13
REMARK                            x       y       z     vdW  Elec       q    Type
REMARK                         _______ _______ _______ _____ _____    ______ ____
ROOT
ATOM      1  N   UNL     1      -0.765  11.767  21.609  0.00  0.00    +0.000 N 
ATOM      2  C   UNL     1      -0.400  10.679  22.354  0.00  0.00    +0.000 C 
ATOM      3  O   UNL     1      -0.627  10.427  23.518  0.00  0.00    +0.000 OA
ATOM      4  C   UNL     1       0.354   9.795  21.461  0.00  0.00    +0.000 A 
ATOM      5  C   UNL     1       0.966   8.584  21.714  0.00  0.00    +0.000 A 
ATOM      6  C   UNL     1       1.638   7.966  20.651  0.00  0.00    +0.000 A 
ATOM      7  C   UNL     1       1.683   8.578  19.375  0.00  0.00    +0.000 A 
ATOM      8  C   UNL     1       1.047   9.810  19.148  0.00  0.00    +0.000 A 
ATOM      9  C   UNL     1       0.388  10.391  20.215  0.00  0.00    +0.000 A 
ATOM     10  C   UNL     1      -0.349  11.651  20.307  0.00  0.00    +0.000 C 
ATOM     11  O   UNL     1      -0.538  12.399  19.368  0.00  0.00    +0.000 OA
ENDROOT
BRANCH   7  12
ATOM     12  C   UNL     1       2.487   7.975  18.279  0.00  0.00    +0.000 C 
ATOM     13  O   UNL     1       2.456   8.516  17.175  0.00  0.00    +0.000 OA
ATOM     14  N   UNL     1       3.149   6.811  18.591  0.00  0.00    +0.000 N 
ATOM     15  C   UNL     1       3.874   6.082  17.641  0.00  0.00    +0.000 A 
ATOM     16  C   UNL     1       4.742   6.698  16.746  0.00  0.00    +0.000 A 
ATOM     17  C   UNL     1       5.407   5.909  15.810  0.00  0.00    +0.000 A 
ATOM     18  C   UNL     1       5.154   4.544  15.774  0.00  0.00    +0.000 A 
ATOM     19  C   UNL     1       4.285   4.018  16.716  0.00  0.00    +0.000 A 
ATOM     20  N   UNL     1       3.678   4.749  17.679  0.00  0.00    +0.000 NA
ATOM     21  H   UNL     1       2.761   6.225  19.319  0.00  0.00    +0.000 HD
ENDBRANCH   7  12
BRANCH   1  22
ATOM     22  C   UNL     1      -1.565  12.868  22.114  0.00  0.00    +0.000 C 
BRANCH  22  23
ATOM     23  C   UNL     1      -3.024  12.487  22.396  0.00  0.00    +0.000 C 
BRANCH  23  25
ATOM     24  C   UNL     1      -4.867  14.187  22.840  0.00  0.00    +0.000 C 
ATOM     25  C   UNL     1      -3.731  13.364  23.446  0.00  0.00    +0.000 C 
ATOM     26  C   UNL     1      -4.275  12.489  24.578  0.00  0.00    +0.000 C 
ENDBRANCH  23  25
ENDBRANCH  22  23
ENDBRANCH   1  22
TORSDOF 4
ENDMDL
MODEL 9
REMARK VINA RESULT:      -7.6      2.650      3.770
REMARK  Name = 
REMARK  6 active torsions:
REMARK  status: ('A' for Active; 'I' for Inactive)
REMARK    1  A    between atoms: C_1  and  C_2
REMARK    2  A    between atoms: C_2  and  C_3
REMARK    3  A    between atoms: C_2  and  C_4
REMARK    4  A    between atoms: C_4  and  C_5
REMARK    5  A    between atoms: C_5  and  N_6
REMARK    6  A    between atoms: C_12  and  C_13
REMARK                            x       y       z     vdW  Elec       q    Type
REMARK                         _______ _______ _______ _____ _____    ______ ____
ROOT
ATOM      1  N   UNL     1       3.593   4.893  19.331  0.00  0.00    +0.000 N 
ATOM      2  C   UNL     1       3.821   5.606  18.185  0.00  0.00    +0.000 C 
ATOM      3  O   UNL     1       4.486   5.317  17.214  0.00  0.00    +0.000 OA
ATOM      4  C   UNL     1       3.073   6.859  18.319  0.00  0.00    +0.000 A 
ATOM      5  C   UNL     1       2.981   7.937  17.461  0.00  0.00    +0.000 A 
ATOM      6  C   UNL     1       2.191   9.020  17.869  0.00  0.00    +0.000 A 
ATOM      7  C   UNL     1       1.526   8.995  19.118  0.00  0.00    +0.000 A 
ATOM      8  C   UNL     1       1.636   7.882  19.968  0.00  0.00    +0.000 A 
ATOM      9  C   UNL     1       2.418   6.827  19.535  0.00  0.00    +0.000 A 
ATOM     10  C   UNL     1       2.738   5.553  20.176  0.00  0.00    +0.000 C 
ATOM     11  O   UNL     1       2.285   5.197  21.246  0.00  0.00    +0.000 OA
ENDROOT
BRANCH   7  12
ATOM     12  C   UNL     1       0.777  10.188  19.596  0.00  0.00    +0.000 C 
ATOM     13  O   UNL     1       1.057  11.280  19.106  0.00  0.00    +0.000 OA
ATOM     14  N   UNL     1      -0.130   9.963  20.605  0.00  0.00    +0.000 N 
ATOM     15  C   UNL     1      -0.846  10.998  21.216  0.00  0.00    +0.000 A 
ATOM     16  C   UNL     1      -1.454  12.008  20.478  0.00  0.00    +0.000 A 
ATOM     17  C   UNL     1      -2.125  13.022  21.159  0.00  0.00    +0.000 A 
ATOM     18  C   UNL     1      -2.133  13.013  22.548  0.00  0.00    +0.000 A 
ATOM     19  C   UNL     1      -1.513  11.957  23.196  0.00  0.00    +0.000 A 
ATOM     20  N   UNL     1      -0.913  10.925  22.560  0.00  0.00    +0.000 NA
ATOM     21  H   UNL     1       0.039   9.184  21.229  0.00  0.00    +0.000 HD
ENDBRANCH   7  12
BRANCH   1  22
ATOM     22  C   UNL     1       4.125   3.565  19.583  0.00  0.00    +0.000 C 
BRANCH  22  23
ATOM     23  C   UNL     1       3.068   2.563  20.064  0.00  0.00    +0.000 C 
BRANCH  23  25
ATOM     24  C   UNL     1       0.813   2.672  18.886  0.00  0.00    +0.000 C 
ATOM     25  C   UNL     1       2.174   1.981  18.952  0.00  0.00    +0.000 C 
ATOM     26  C   UNL     1       2.880   2.101  17.598  0.00  0.00    +0.000 C 
ENDBRANCH  23  25
ENDBRANCH  22  23
ENDBRANCH   1  22
TORSDOF 4
ENDMDL
