MODEL 1
REMARK VINA RESULT:      -8.9      0.000      0.000
REMARK  Name = 
REMARK  5 active torsions:
REMARK  status: ('A' for Active; 'I' for Inactive)
REMARK    1  A    between atoms: C_1  and  C_2
REMARK    2  A    between atoms: C_7  and  C_8
REMARK    3  A    between atoms: C_16  and  C_17
REMARK    4  A    between atoms: C_21  and  C_22
REMARK    5  A    between atoms: C_26  and  C_27
REMARK                            x       y       z     vdW  Elec       q    Type
REMARK                         _______ _______ _______ _____ _____    ______ ____
ROOT
ATOM      1  C   UNL     1      -5.033  13.720  20.179  0.00  0.00    +0.000 C 
ATOM      2  C   UNL     1      -3.944  13.083  20.998  0.00  0.00    +0.000 A 
ATOM      3  C   UNL     1      -2.926  12.377  20.329  0.00  0.00    +0.000 A 
ATOM      4  C   UNL     1      -1.888  11.720  21.008  0.00  0.00    +0.000 A 
ATOM      5  C   UNL     1      -1.854  11.820  22.414  0.00  0.00    +0.000 A 
ATOM      6  C   UNL     1      -2.836  12.562  23.086  0.00  0.00    +0.000 A 
ATOM      7  C   UNL     1      -3.910  13.168  22.401  0.00  0.00    +0.000 A 
ATOM      8  N   UNL     1      -0.889  11.201  23.233  0.00  0.00    +0.000 N 
ATOM      9  C   UNL     1      -0.228  10.034  22.974  0.00  0.00    +0.000 C 
ATOM     10  O   UNL     1       0.624   9.605  23.751  0.00  0.00    +0.000 OA
ATOM     11  C   UNL     1      -0.660   9.262  21.765  0.00  0.00    +0.000 C 
ATOM     12  C   UNL     1      -0.313  10.017  20.516  0.00  0.00    +0.000 C 
ATOM     13  N   UNL     1      -0.903  11.127  20.188  0.00  0.00    +0.000 NA
ATOM     14  H   UNL     1      -0.731  11.560  24.166  0.00  0.00    +0.000 HD
ENDROOT
BRANCH  12  15
ATOM     15  C   UNL     1       0.767   9.473  19.639  0.00  0.00    +0.000 A 
ATOM     16  C   UNL     1       1.201  10.173  18.512  0.00  0.00    +0.000 A 
ATOM     17  C   UNL     1       2.183   9.628  17.694  0.00  0.00    +0.000 A 
ATOM     18  C   UNL     1       2.707   8.364  17.975  0.00  0.00    +0.000 A 
ATOM     19  C   UNL     1       2.281   7.620  19.090  0.00  0.00    +0.000 A 
ATOM     20  C   UNL     1       1.316   8.216  19.928  0.00  0.00    +0.000 A 
BRANCH  19  21
ATOM     21  C   UNL     1       2.794   6.254  19.355  0.00  0.00    +0.000 A 
ATOM     22  C   UNL     1       3.951   5.772  18.723  0.00  0.00    +0.000 A 
ATOM     23  C   UNL     1       4.413   4.495  19.002  0.00  0.00    +0.000 A 
ATOM     24  N   UNL     1       3.815   3.659  19.871  0.00  0.00    +0.000 NA
ATOM     25  C   UNL     1       2.704   4.125  20.484  0.00  0.00    +0.000 A 
ATOM     26  C   UNL     1       2.166   5.388  20.262  0.00  0.00    +0.000 A 
BRANCH  25  27
ATOM     27  C   UNL     1       2.075   3.219  21.406  0.00  0.00    +0.000 C 
ATOM     28  N   UNL     1       1.522   2.518  22.148  0.00  0.00    +0.000 NA
ENDBRANCH  25  27
ENDBRANCH  19  21
ENDBRANCH  12  15
BRANCH   7  29
ATOM     29  C   UNL     1      -4.976  13.838  23.245  0.00  0.00    +0.000 C 
ATOM     30  F   UNL     1      -4.746  13.842  24.585  0.00  0.00    +0.000 F 
ATOM     31  F   UNL     1      -5.143  15.147  22.898  0.00  0.00    +0.000 F 
ATOM     32  F   UNL     1      -6.199  13.258  23.082  0.00  0.00    +0.000 F 
ENDBRANCH   7  29
TORSDOF 4
ENDMDL
MODEL 2
REMARK VINA RESULT:      -8.2      5.716      9.896
REMARK  Name = 
REMARK  5 active torsions:
REMARK  status: ('A' for Active; 'I' for Inactive)
REMARK    1  A    between atoms: C_1  and  C_2
REMARK    2  A    between atoms: C_7  and  C_8
REMARK    3  A    between atoms: C_16  and  C_17
REMARK    4  A    between atoms: C_21  and  C_22
REMARK    5  A    between atoms: C_26  and  C_27
REMARK                            x       y       z     vdW  Elec       q    Type
REMARK                         _______ _______ _______ _____ _____    ______ ____
ROOT
ATOM      1  C   UNL     1       1.703   3.419  21.006  0.00  0.00    +0.000 C 
ATOM      2  C   UNL     1       2.027   4.678  20.250  0.00  0.00    +0.000 A 
ATOM      3  C   UNL     1       1.528   5.901  20.737  0.00  0.00    +0.000 A 
ATOM      4  C   UNL     1       1.747   7.123  20.081  0.00  0.00    +0.000 A 
ATOM      5  C   UNL     1       2.540   7.112  18.915  0.00  0.00    +0.000 A 
ATOM      6  C   UNL     1       3.082   5.906  18.450  0.00  0.00    +0.000 A 
ATOM      7  C   UNL     1       2.806   4.674  19.080  0.00  0.00    +0.000 A 
ATOM      8  N   UNL     1       2.831   8.252  18.141  0.00  0.00    +0.000 N 
ATOM      9  C   UNL     1       2.042   9.357  17.986  0.00  0.00    +0.000 C 
ATOM     10  O   UNL     1       2.418  10.311  17.308  0.00  0.00    +0.000 OA
ATOM     11  C   UNL     1       0.673   9.304  18.594  0.00  0.00    +0.000 C 
ATOM     12  C   UNL     1       0.770   9.283  20.090  0.00  0.00    +0.000 C 
ATOM     13  N   UNL     1       1.248   8.267  20.743  0.00  0.00    +0.000 NA
ATOM     14  H   UNL     1       3.636   8.238  17.527  0.00  0.00    +0.000 HD
ENDROOT
BRANCH  12  15
ATOM     15  C   UNL     1       0.317  10.491  20.843  0.00  0.00    +0.000 A 
ATOM     16  C   UNL     1      -0.288  10.375  22.096  0.00  0.00    +0.000 A 
ATOM     17  C   UNL     1      -0.732  11.512  22.760  0.00  0.00    +0.000 A 
ATOM     18  C   UNL     1      -0.610  12.767  22.158  0.00  0.00    +0.000 A 
ATOM     19  C   UNL     1      -0.024  12.922  20.888  0.00  0.00    +0.000 A 
ATOM     20  C   UNL     1       0.457  11.757  20.257  0.00  0.00    +0.000 A 
BRANCH  19  21
ATOM     21  C   UNL     1       0.050  14.246  20.225  0.00  0.00    +0.000 A 
ATOM     22  C   UNL     1      -1.063  15.097  20.164  0.00  0.00    +0.000 A 
ATOM     23  C   UNL     1      -0.957  16.335  19.548  0.00  0.00    +0.000 A 
ATOM     24  N   UNL     1       0.178  16.797  18.991  0.00  0.00    +0.000 NA
ATOM     25  C   UNL     1       1.252  15.979  19.054  0.00  0.00    +0.000 A 
ATOM     26  C   UNL     1       1.237  14.721  19.647  0.00  0.00    +0.000 A 
BRANCH  25  27
ATOM     27  C   UNL     1       2.456  16.485  18.453  0.00  0.00    +0.000 C 
ATOM     28  N   UNL     1       3.429  16.933  18.006  0.00  0.00    +0.000 NA
ENDBRANCH  25  27
ENDBRANCH  19  21
ENDBRANCH  12  15
BRANCH   7  29
ATOM     29  C   UNL     1       3.346   3.423  18.415  0.00  0.00    +0.000 C 
ATOM     30  F   UNL     1       2.416   2.484  18.094  0.00  0.00    +0.000 F 
ATOM     31  F   UNL     1       3.993   3.711  17.249  0.00  0.00    +0.000 F 
ATOM     32  F   UNL     1       4.263   2.783  19.195  0.00  0.00    +0.000 F 
ENDBRANCH   7  29
TORSDOF 4
ENDMDL
MODEL 3
REMARK VINA RESULT:      -8.1      4.371      5.719
REMARK  Name = 
REMARK  5 active torsions:
REMARK  status: ('A' for Active; 'I' for Inactive)
REMARK    1  A    between atoms: C_1  and  C_2
REMARK    2  A    between atoms: C_7  and  C_8
REMARK    3  A    between atoms: C_16  and  C_17
REMARK    4  A    between atoms: C_21  and  C_22
REMARK    5  A    between atoms: C_26  and  C_27
REMARK                            x       y       z     vdW  Elec       q    Type
REMARK                         _______ _______ _______ _____ _____    ______ ____
ROOT
ATOM      1  C   UNL     1       3.864  16.064  17.753  0.00  0.00    +0.000 C 
ATOM      2  C   UNL     1       2.538  15.496  18.181  0.00  0.00    +0.000 A 
ATOM      3  C   UNL     1       2.491  14.161  18.626  0.00  0.00    +0.000 A 
ATOM      4  C   UNL     1       1.297  13.534  19.012  0.00  0.00    +0.000 A 
ATOM      5  C   UNL     1       0.113  14.300  18.991  0.00  0.00    +0.000 A 
ATOM      6  C   UNL     1       0.158  15.644  18.596  0.00  0.00    +0.000 A 
ATOM      7  C   UNL     1       1.351  16.250  18.150  0.00  0.00    +0.000 A 
ATOM      8  N   UNL     1      -1.161  13.805  19.331  0.00  0.00    +0.000 N 
ATOM      9  C   UNL     1      -1.604  12.521  19.184  0.00  0.00    +0.000 C 
ATOM     10  O   UNL     1      -2.732  12.196  19.549  0.00  0.00    +0.000 OA
ATOM     11  C   UNL     1      -0.694  11.566  18.472  0.00  0.00    +0.000 C 
ATOM     12  C   UNL     1       0.533  11.307  19.296  0.00  0.00    +0.000 C 
ATOM     13  N   UNL     1       1.432  12.219  19.510  0.00  0.00    +0.000 NA
ATOM     14  H   UNL     1      -1.888  14.457  19.598  0.00  0.00    +0.000 HD
ENDROOT
BRANCH  12  15
ATOM     15  C   UNL     1       0.701   9.953  19.903  0.00  0.00    +0.000 A 
ATOM     16  C   UNL     1       0.060   9.613  21.095  0.00  0.00    +0.000 A 
ATOM     17  C   UNL     1       0.261   8.358  21.657  0.00  0.00    +0.000 A 
ATOM     18  C   UNL     1       1.135   7.451  21.051  0.00  0.00    +0.000 A 
ATOM     19  C   UNL     1       1.814   7.765  19.860  0.00  0.00    +0.000 A 
ATOM     20  C   UNL     1       1.558   9.028  19.288  0.00  0.00    +0.000 A 
BRANCH  19  21
ATOM     21  C   UNL     1       2.786   6.826  19.250  0.00  0.00    +0.000 A 
ATOM     22  C   UNL     1       3.127   5.617  19.876  0.00  0.00    +0.000 A 
ATOM     23  C   UNL     1       4.029   4.753  19.273  0.00  0.00    +0.000 A 
ATOM     24  N   UNL     1       4.616   4.997  18.087  0.00  0.00    +0.000 NA
ATOM     25  C   UNL     1       4.284   6.159  17.481  0.00  0.00    +0.000 A 
ATOM     26  C   UNL     1       3.394   7.086  18.013  0.00  0.00    +0.000 A 
BRANCH  25  27
ATOM     27  C   UNL     1       4.922   6.406  16.217  0.00  0.00    +0.000 C 
ATOM     28  N   UNL     1       5.449   6.657  15.213  0.00  0.00    +0.000 NA
ENDBRANCH  25  27
ENDBRANCH  19  21
ENDBRANCH  12  15
BRANCH   7  29
ATOM     29  C   UNL     1       1.253  17.671  17.631  0.00  0.00    +0.000 C 
ATOM     30  F   UNL     1       0.025  18.046  17.183  0.00  0.00    +0.000 F 
ATOM     31  F   UNL     1       1.586  18.581  18.591  0.00  0.00    +0.000 F 
ATOM     32  F   UNL     1       2.110  17.900  16.597  0.00  0.00    +0.000 F 
ENDBRANCH   7  29
TORSDOF 4
ENDMDL
MODEL 4
REMARK VINA RESULT:      -8.1      4.072      5.280
REMARK  Name = 
REMARK  5 active torsions:
REMARK  status: ('A' for Active; 'I' for Inactive)
REMARK    1  A    between atoms: C_1  and  C_2
REMARK    2  A    between atoms: C_7  and  C_8
REMARK    3  A    between atoms: C_16  and  C_17
REMARK    4  A    between atoms: C_21  and  C_22
REMARK    5  A    between atoms: C_26  and  C_27
REMARK                            x       y       z     vdW  Elec       q    Type
REMARK                         _______ _______ _______ _____ _____    ______ ____
ROOT
ATOM      1  C   UNL     1       3.173  15.764  19.475  0.00  0.00    +0.000 C 
ATOM      2  C   UNL     1       2.001  14.841  19.285  0.00  0.00    +0.000 A 
ATOM      3  C   UNL     1       2.183  13.466  19.527  0.00  0.00    +0.000 A 
ATOM      4  C   UNL     1       1.159  12.523  19.344  0.00  0.00    +0.000 A 
ATOM      5  C   UNL     1      -0.108  12.995  18.944  0.00  0.00    +0.000 A 
ATOM      6  C   UNL     1      -0.312  14.369  18.748  0.00  0.00    +0.000 A 
ATOM      7  C   UNL     1       0.738  15.303  18.874  0.00  0.00    +0.000 A 
ATOM      8  N   UNL     1      -1.224  12.172  18.702  0.00  0.00    +0.000 N 
ATOM      9  C   UNL     1      -1.204  10.881  18.254  0.00  0.00    +0.000 C 
ATOM     10  O   UNL     1      -2.246  10.245  18.111  0.00  0.00    +0.000 OA
ATOM     11  C   UNL     1       0.128  10.321  17.856  0.00  0.00    +0.000 C 
ATOM     12  C   UNL     1       1.010  10.174  19.061  0.00  0.00    +0.000 C 
ATOM     13  N   UNL     1       1.479  11.196  19.708  0.00  0.00    +0.000 NA
ATOM     14  H   UNL     1      -2.151  12.576  18.733  0.00  0.00    +0.000 HD
ENDROOT
BRANCH  12  15
ATOM     15  C   UNL     1       1.333   8.794  19.533  0.00  0.00    +0.000 A 
ATOM     16  C   UNL     1       1.006   8.380  20.826  0.00  0.00    +0.000 A 
ATOM     17  C   UNL     1       1.349   7.103  21.252  0.00  0.00    +0.000 A 
ATOM     18  C   UNL     1       2.055   6.247  20.403  0.00  0.00    +0.000 A 
ATOM     19  C   UNL     1       2.420   6.636  19.102  0.00  0.00    +0.000 A 
ATOM     20  C   UNL     1       2.021   7.921  18.679  0.00  0.00    +0.000 A 
BRANCH  19  21
ATOM     21  C   UNL     1       3.222   5.750  18.223  0.00  0.00    +0.000 A 
ATOM     22  C   UNL     1       2.770   4.469  17.868  0.00  0.00    +0.000 A 
ATOM     23  C   UNL     1       3.537   3.671  17.033  0.00  0.00    +0.000 A 
ATOM     24  N   UNL     1       4.720   4.051  16.516  0.00  0.00    +0.000 NA
ATOM     25  C   UNL     1       5.152   5.287  16.853  0.00  0.00    +0.000 A 
ATOM     26  C   UNL     1       4.454   6.153  17.687  0.00  0.00    +0.000 A 
BRANCH  25  27
ATOM     27  C   UNL     1       6.418   5.677  16.296  0.00  0.00    +0.000 C 
ATOM     28  N   UNL     1       7.463   5.948  15.869  0.00  0.00    +0.000 NA
ENDBRANCH  25  27
ENDBRANCH  19  21
ENDBRANCH  12  15
BRANCH   7  29
ATOM     29  C   UNL     1       0.428  16.743  18.517  0.00  0.00    +0.000 C 
ATOM     30  F   UNL     1       1.262  17.312  17.606  0.00  0.00    +0.000 F 
ATOM     31  F   UNL     1      -0.827  16.873  17.996  0.00  0.00    +0.000 F 
ATOM     32  F   UNL     1       0.458  17.560  19.607  0.00  0.00    +0.000 F 
ENDBRANCH   7  29
TORSDOF 4
ENDMDL
MODEL 5
REMARK VINA RESULT:      -8.1      6.123     10.193
REMARK  Name = 
REMARK  5 active torsions:
REMARK  status: ('A' for Active; 'I' for Inactive)
REMARK    1  A    between atoms: C_1  and  C_2
REMARK    2  A    between atoms: C_7  and  C_8
REMARK    3  A    between atoms: C_16  and  C_17
REMARK    4  A    between atoms: C_21  and  C_22
REMARK    5  A    between atoms: C_26  and  C_27
REMARK                            x       y       z     vdW  Elec       q    Type
REMARK                         _______ _______ _______ _____ _____    ______ ____
ROOT
ATOM      1  C   UNL     1       6.462   6.717  15.581  0.00  0.00    +0.000 C 
ATOM      2  C   UNL     1       5.341   6.103  16.375  0.00  0.00    +0.000 A 
ATOM      3  C   UNL     1       4.532   6.948  17.158  0.00  0.00    +0.000 A 
ATOM      4  C   UNL     1       3.486   6.465  17.959  0.00  0.00    +0.000 A 
ATOM      5  C   UNL     1       3.220   5.080  17.931  0.00  0.00    +0.000 A 
ATOM      6  C   UNL     1       3.989   4.238  17.115  0.00  0.00    +0.000 A 
ATOM      7  C   UNL     1       5.077   4.722  16.361  0.00  0.00    +0.000 A 
ATOM      8  N   UNL     1       2.218   4.447  18.692  0.00  0.00    +0.000 N 
ATOM      9  C   UNL     1       1.749   4.842  19.913  0.00  0.00    +0.000 C 
ATOM     10  O   UNL     1       0.844   4.226  20.471  0.00  0.00    +0.000 OA
ATOM     11  C   UNL     1       2.455   5.987  20.573  0.00  0.00    +0.000 C 
ATOM     12  C   UNL     1       2.221   7.253  19.803  0.00  0.00    +0.000 C 
ATOM     13  N   UNL     1       2.719   7.450  18.620  0.00  0.00    +0.000 NA
ATOM     14  H   UNL     1       1.875   3.542  18.398  0.00  0.00    +0.000 HD
ENDROOT
BRANCH  12  15
ATOM     15  C   UNL     1       1.365   8.308  20.424  0.00  0.00    +0.000 A 
ATOM     16  C   UNL     1       1.428   8.575  21.793  0.00  0.00    +0.000 A 
ATOM     17  C   UNL     1       0.596   9.537  22.351  0.00  0.00    +0.000 A 
ATOM     18  C   UNL     1      -0.331  10.211  21.551  0.00  0.00    +0.000 A 
ATOM     19  C   UNL     1      -0.438   9.956  20.172  0.00  0.00    +0.000 A 
ATOM     20  C   UNL     1       0.449   9.006  19.624  0.00  0.00    +0.000 A 
BRANCH  19  21
ATOM     21  C   UNL     1      -1.462  10.627  19.335  0.00  0.00    +0.000 A 
ATOM     22  C   UNL     1      -2.272  11.649  19.851  0.00  0.00    +0.000 A 
ATOM     23  C   UNL     1      -3.211  12.267  19.039  0.00  0.00    +0.000 A 
ATOM     24  N   UNL     1      -3.404  11.949  17.745  0.00  0.00    +0.000 NA
ATOM     25  C   UNL     1      -2.619  10.967  17.246  0.00  0.00    +0.000 A 
ATOM     26  C   UNL     1      -1.656  10.290  17.987  0.00  0.00    +0.000 A 
BRANCH  25  27
ATOM     27  C   UNL     1      -2.838  10.637  15.865  0.00  0.00    +0.000 C 
ATOM     28  N   UNL     1      -2.964  10.348  14.747  0.00  0.00    +0.000 NA
ENDBRANCH  25  27
ENDBRANCH  19  21
ENDBRANCH  12  15
BRANCH   7  29
ATOM     29  C   UNL     1       5.911   3.699  15.615  0.00  0.00    +0.000 C 
ATOM     30  F   UNL     1       7.254   3.783  15.813  0.00  0.00    +0.000 F 
ATOM     31  F   UNL     1       5.570   2.424  15.960  0.00  0.00    +0.000 F 
ATOM     32  F   UNL     1       5.731   3.774  14.266  0.00  0.00    +0.000 F 
ENDBRANCH   7  29
TORSDOF 4
ENDMDL
MODEL 6
REMARK VINA RESULT:      -8.1      5.830      9.952
REMARK  Name = 
REMARK  5 active torsions:
REMARK  status: ('A' for Active; 'I' for Inactive)
REMARK    1  A    between atoms: C_1  and  C_2
REMARK    2  A    between atoms: C_7  and  C_8
REMARK    3  A    between atoms: C_16  and  C_17
REMARK    4  A    between atoms: C_21  and  C_22
REMARK    5  A    between atoms: C_26  and  C_27
REMARK                            x       y       z     vdW  Elec       q    Type
REMARK                         _______ _______ _______ _____ _____    ______ ____
ROOT
ATOM      1  C   UNL     1       2.001   3.020  21.214  0.00  0.00    +0.000 C 
ATOM      2  C   UNL     1       2.294   4.241  20.386  0.00  0.00    +0.000 A 
ATOM      3  C   UNL     1       1.801   5.484  20.825  0.00  0.00    +0.000 A 
ATOM      4  C   UNL     1       1.992   6.672  20.103  0.00  0.00    +0.000 A 
ATOM      5  C   UNL     1       2.750   6.607  18.915  0.00  0.00    +0.000 A 
ATOM      6  C   UNL     1       3.287   5.382  18.496  0.00  0.00    +0.000 A 
ATOM      7  C   UNL     1       3.038   4.182  19.194  0.00  0.00    +0.000 A 
ATOM      8  N   UNL     1       3.010   7.708  18.076  0.00  0.00    +0.000 N 
ATOM      9  C   UNL     1       2.210   8.799  17.890  0.00  0.00    +0.000 C 
ATOM     10  O   UNL     1       2.558   9.720  17.154  0.00  0.00    +0.000 OA
ATOM     11  C   UNL     1       0.860   8.770  18.540  0.00  0.00    +0.000 C 
ATOM     12  C   UNL     1       1.001   8.825  20.032  0.00  0.00    +0.000 C 
ATOM     13  N   UNL     1       1.505   7.846  20.720  0.00  0.00    +0.000 NA
ATOM     14  H   UNL     1       3.797   7.667  17.441  0.00  0.00    +0.000 HD
ENDROOT
BRANCH  12  15
ATOM     15  C   UNL     1       0.562  10.067  20.736  0.00  0.00    +0.000 A 
ATOM     16  C   UNL     1      -0.367  10.015  21.777  0.00  0.00    +0.000 A 
ATOM     17  C   UNL     1      -0.786  11.189  22.392  0.00  0.00    +0.000 A 
ATOM     18  C   UNL     1      -0.308  12.423  21.945  0.00  0.00    +0.000 A 
ATOM     19  C   UNL     1       0.614  12.517  20.886  0.00  0.00    +0.000 A 
ATOM     20  C   UNL     1       1.055  11.308  20.309  0.00  0.00    +0.000 A 
BRANCH  19  21
ATOM     21  C   UNL     1       1.075  13.830  20.373  0.00  0.00    +0.000 A 
ATOM     22  C   UNL     1       2.396  14.264  20.558  0.00  0.00    +0.000 A 
ATOM     23  C   UNL     1       2.800  15.491  20.053  0.00  0.00    +0.000 A 
ATOM     24  N   UNL     1       1.990  16.320  19.369  0.00  0.00    +0.000 NA
ATOM     25  C   UNL     1       0.718  15.899  19.186  0.00  0.00    +0.000 A 
ATOM     26  C   UNL     1       0.225  14.688  19.660  0.00  0.00    +0.000 A 
BRANCH  25  27
ATOM     27  C   UNL     1      -0.135  16.796  18.456  0.00  0.00    +0.000 C 
ATOM     28  N   UNL     1      -0.792  17.514  17.822  0.00  0.00    +0.000 NA
ENDBRANCH  25  27
ENDBRANCH  19  21
ENDBRANCH  12  15
BRANCH   7  29
ATOM     29  C   UNL     1       3.567   2.902  18.578  0.00  0.00    +0.000 C 
ATOM     30  F   UNL     1       2.626   1.970  18.267  0.00  0.00    +0.000 F 
ATOM     31  F   UNL     1       4.240   3.143  17.416  0.00  0.00    +0.000 F 
ATOM     32  F   UNL     1       4.457   2.269  19.393  0.00  0.00    +0.000 F 
ENDBRANCH   7  29
TORSDOF 4
ENDMDL
MODEL 7
REMARK VINA RESULT:      -8.0      5.707      9.935
REMARK  Name = 
REMARK  5 active torsions:
REMARK  status: ('A' for Active; 'I' for Inactive)
REMARK    1  A    between atoms: C_1  and  C_2
REMARK    2  A    between atoms: C_7  and  C_8
REMARK    3  A    between atoms: C_16  and  C_17
REMARK    4  A    between atoms: C_21  and  C_22
REMARK    5  A    between atoms: C_26  and  C_27
REMARK                            x       y       z     vdW  Elec       q    Type
REMARK                         _______ _______ _______ _____ _____    ______ ____
ROOT
ATOM      1  C   UNL     1       1.933   3.476  20.740  0.00  0.00    +0.000 C 
ATOM      2  C   UNL     1       2.177   4.790  20.049  0.00  0.00    +0.000 A 
ATOM      3  C   UNL     1       1.656   5.961  20.630  0.00  0.00    +0.000 A 
ATOM      4  C   UNL     1       1.802   7.227  20.041  0.00  0.00    +0.000 A 
ATOM      5  C   UNL     1       2.543   7.316  18.844  0.00  0.00    +0.000 A 
ATOM      6  C   UNL     1       3.108   6.161  18.285  0.00  0.00    +0.000 A 
ATOM      7  C   UNL     1       2.905   4.885  18.849  0.00  0.00    +0.000 A 
ATOM      8  N   UNL     1       2.759   8.510  18.129  0.00  0.00    +0.000 N 
ATOM      9  C   UNL     1       1.925   9.591  18.075  0.00  0.00    +0.000 C 
ATOM     10  O   UNL     1       2.235  10.597  17.441  0.00  0.00    +0.000 OA
ATOM     11  C   UNL     1       0.586   9.449  18.734  0.00  0.00    +0.000 C 
ATOM     12  C   UNL     1       0.749   9.344  20.221  0.00  0.00    +0.000 C 
ATOM     13  N   UNL     1       1.291   8.311  20.790  0.00  0.00    +0.000 NA
ATOM     14  H   UNL     1       3.536   8.564  17.483  0.00  0.00    +0.000 HD
ENDROOT
BRANCH  12  15
ATOM     15  C   UNL     1       0.285  10.487  21.064  0.00  0.00    +0.000 A 
ATOM     16  C   UNL     1      -0.575  10.283  22.145  0.00  0.00    +0.000 A 
ATOM     17  C   UNL     1      -1.019  11.367  22.891  0.00  0.00    +0.000 A 
ATOM     18  C   UNL     1      -0.638  12.664  22.538  0.00  0.00    +0.000 A 
ATOM     19  C   UNL     1       0.211  12.911  21.444  0.00  0.00    +0.000 A 
ATOM     20  C   UNL     1       0.682  11.789  20.731  0.00  0.00    +0.000 A 
BRANCH  19  21
ATOM     21  C   UNL     1       0.567  14.291  21.033  0.00  0.00    +0.000 A 
ATOM     22  C   UNL     1       1.752  14.902  21.473  0.00  0.00    +0.000 A 
ATOM     23  C   UNL     1       2.063  16.188  21.059  0.00  0.00    +0.000 A 
ATOM     24  N   UNL     1       1.287  16.915  20.234  0.00  0.00    +0.000 NA
ATOM     25  C   UNL     1       0.148  16.325  19.806  0.00  0.00    +0.000 A 
ATOM     26  C   UNL     1      -0.246  15.043  20.172  0.00  0.00    +0.000 A 
BRANCH  25  27
ATOM     27  C   UNL     1      -0.670  17.114  18.928  0.00  0.00    +0.000 C 
ATOM     28  N   UNL     1      -1.297  17.794  18.225  0.00  0.00    +0.000 NA
ENDBRANCH  25  27
ENDBRANCH  19  21
ENDBRANCH  12  15
BRANCH   7  29
ATOM     29  C   UNL     1       3.460   3.697  18.088  0.00  0.00    +0.000 C 
ATOM     30  F   UNL     1       4.385   2.956  18.755  0.00  0.00    +0.000 F 
ATOM     31  F   UNL     1       2.476   2.821  17.735  0.00  0.00    +0.000 F 
ATOM     32  F   UNL     1       4.056   4.069  16.920  0.00  0.00    +0.000 F 
ENDBRANCH   7  29
TORSDOF 4
ENDMDL
MODEL 8
REMARK VINA RESULT:      -8.0      5.176      9.599
REMARK  Name = 
REMARK  5 active torsions:
REMARK  status: ('A' for Active; 'I' for Inactive)
REMARK    1  A    between atoms: C_1  and  C_2
REMARK    2  A    between atoms: C_7  and  C_8
REMARK    3  A    between atoms: C_16  and  C_17
REMARK    4  A    between atoms: C_21  and  C_22
REMARK    5  A    between atoms: C_26  and  C_27
REMARK                            x       y       z     vdW  Elec       q    Type
REMARK                         _______ _______ _______ _____ _____    ______ ____
ROOT
ATOM      1  C   UNL     1       1.567   4.024  21.169  0.00  0.00    +0.000 C 
ATOM      2  C   UNL     1       1.914   5.231  20.341  0.00  0.00    +0.000 A 
ATOM      3  C   UNL     1       1.447   6.491  20.762  0.00  0.00    +0.000 A 
ATOM      4  C   UNL     1       1.689   7.668  20.037  0.00  0.00    +0.000 A 
ATOM      5  C   UNL     1       2.472   7.574  18.868  0.00  0.00    +0.000 A 
ATOM      6  C   UNL     1       2.983   6.331  18.469  0.00  0.00    +0.000 A 
ATOM      7  C   UNL     1       2.684   5.143  19.168  0.00  0.00    +0.000 A 
ATOM      8  N   UNL     1       2.783   8.661  18.029  0.00  0.00    +0.000 N 
ATOM      9  C   UNL     1       2.019   9.774  17.818  0.00  0.00    +0.000 C 
ATOM     10  O   UNL     1       2.411  10.679  17.085  0.00  0.00    +0.000 OA
ATOM     11  C   UNL     1       0.654   9.787  18.436  0.00  0.00    +0.000 C 
ATOM     12  C   UNL     1       0.762   9.849  19.931  0.00  0.00    +0.000 C 
ATOM     13  N   UNL     1       1.222   8.860  20.636  0.00  0.00    +0.000 NA
ATOM     14  H   UNL     1       3.583   8.594  17.412  0.00  0.00    +0.000 HD
ENDROOT
BRANCH  12  15
ATOM     15  C   UNL     1       0.343  11.107  20.617  0.00  0.00    +0.000 A 
ATOM     16  C   UNL     1       1.246  12.151  20.824  0.00  0.00    +0.000 A 
ATOM     17  C   UNL     1       0.840  13.297  21.497  0.00  0.00    +0.000 A 
ATOM     18  C   UNL     1      -0.460  13.389  22.000  0.00  0.00    +0.000 A 
ATOM     19  C   UNL     1      -1.393  12.351  21.829  0.00  0.00    +0.000 A 
ATOM     20  C   UNL     1      -0.967  11.218  21.105  0.00  0.00    +0.000 A 
BRANCH  19  21
ATOM     21  C   UNL     1      -2.754  12.424  22.415  0.00  0.00    +0.000 A 
ATOM     22  C   UNL     1      -2.960  12.325  23.799  0.00  0.00    +0.000 A 
ATOM     23  C   UNL     1      -4.243  12.412  24.317  0.00  0.00    +0.000 A 
ATOM     24  N   UNL     1      -5.342  12.596  23.562  0.00  0.00    +0.000 NA
ATOM     25  C   UNL     1      -5.143  12.697  22.229  0.00  0.00    +0.000 A 
ATOM     26  C   UNL     1      -3.895  12.617  21.622  0.00  0.00    +0.000 A 
BRANCH  25  27
ATOM     27  C   UNL     1      -6.326  12.891  21.436  0.00  0.00    +0.000 C 
ATOM     28  N   UNL     1      -7.287  13.098  20.819  0.00  0.00    +0.000 NA
ENDBRANCH  25  27
ENDBRANCH  19  21
ENDBRANCH  12  15
BRANCH   7  29
ATOM     29  C   UNL     1       3.189   3.844  18.571  0.00  0.00    +0.000 C 
ATOM     30  F   UNL     1       4.027   3.124  19.364  0.00  0.00    +0.000 F 
ATOM     31  F   UNL     1       2.164   3.000  18.261  0.00  0.00    +0.000 F 
ATOM     32  F   UNL     1       3.865   4.044  17.405  0.00  0.00    +0.000 F 
ENDBRANCH   7  29
TORSDOF 4
ENDMDL
MODEL 9
REMARK VINA RESULT:      -7.9      5.743      9.966
REMARK  Name = 
REMARK  5 active torsions:
REMARK  status: ('A' for Active; 'I' for Inactive)
REMARK    1  A    between atoms: C_1  and  C_2
REMARK    2  A    between atoms: C_7  and  C_8
REMARK    3  A    between atoms: C_16  and  C_17
REMARK    4  A    between atoms: C_21  and  C_22
REMARK    5  A    between atoms: C_26  and  C_27
REMARK                            x       y       z     vdW  Elec       q    Type
REMARK                         _______ _______ _______ _____ _____    ______ ____
ROOT
ATOM      1  C   UNL     1       1.973   3.254  20.961  0.00  0.00    +0.000 C 
ATOM      2  C   UNL     1       2.211   4.542  20.221  0.00  0.00    +0.000 A 
ATOM      3  C   UNL     1       1.681   5.732  20.757  0.00  0.00    +0.000 A 
ATOM      4  C   UNL     1       1.821   6.976  20.122  0.00  0.00    +0.000 A 
ATOM      5  C   UNL     1       2.563   7.025  18.924  0.00  0.00    +0.000 A 
ATOM      6  C   UNL     1       3.135   5.853  18.408  0.00  0.00    +0.000 A 
ATOM      7  C   UNL     1       2.939   4.597  19.020  0.00  0.00    +0.000 A 
ATOM      8  N   UNL     1       2.772   8.192  18.164  0.00  0.00    +0.000 N 
ATOM      9  C   UNL     1       1.931   9.265  18.069  0.00  0.00    +0.000 C 
ATOM     10  O   UNL     1       2.236  10.249  17.398  0.00  0.00    +0.000 OA
ATOM     11  C   UNL     1       0.593   9.140  18.732  0.00  0.00    +0.000 C 
ATOM     12  C   UNL     1       0.755   9.091  20.222  0.00  0.00    +0.000 C 
ATOM     13  N   UNL     1       1.303   8.083  20.830  0.00  0.00    +0.000 NA
ATOM     14  H   UNL     1       3.550   8.226  17.518  0.00  0.00    +0.000 HD
ENDROOT
BRANCH  12  15
ATOM     15  C   UNL     1       0.283  10.262  21.021  0.00  0.00    +0.000 A 
ATOM     16  C   UNL     1      -0.400  10.084  22.225  0.00  0.00    +0.000 A 
ATOM     17  C   UNL     1      -0.859  11.189  22.932  0.00  0.00    +0.000 A 
ATOM     18  C   UNL     1      -0.672  12.475  22.419  0.00  0.00    +0.000 A 
ATOM     19  C   UNL     1      -0.005  12.693  21.200  0.00  0.00    +0.000 A 
ATOM     20  C   UNL     1       0.488  11.557  20.525  0.00  0.00    +0.000 A 
BRANCH  19  21
ATOM     21  C   UNL     1       0.140  14.053  20.627  0.00  0.00    +0.000 A 
ATOM     22  C   UNL     1      -0.337  14.361  19.344  0.00  0.00    +0.000 A 
ATOM     23  C   UNL     1      -0.199  15.646  18.842  0.00  0.00    +0.000 A 
ATOM     24  N   UNL     1       0.376  16.655  19.523  0.00  0.00    +0.000 NA
ATOM     25  C   UNL     1       0.831  16.360  20.761  0.00  0.00    +0.000 A 
ATOM     26  C   UNL     1       0.739  15.101  21.342  0.00  0.00    +0.000 A 
BRANCH  25  27
ATOM     27  C   UNL     1       1.443  17.447  21.474  0.00  0.00    +0.000 C 
ATOM     28  N   UNL     1       1.988  18.303  22.039  0.00  0.00    +0.000 NA
ENDBRANCH  25  27
ENDBRANCH  19  21
ENDBRANCH  12  15
BRANCH   7  29
ATOM     29  C   UNL     1       3.502   3.385  18.304  0.00  0.00    +0.000 C 
ATOM     30  F   UNL     1       2.597   2.423  17.983  0.00  0.00    +0.000 F 
ATOM     31  F   UNL     1       4.103   3.729  17.129  0.00  0.00    +0.000 F 
ATOM     32  F   UNL     1       4.464   2.757  19.038  0.00  0.00    +0.000 F 
ENDBRANCH   7  29
TORSDOF 4
ENDMDL
