MODEL 1
REMARK VINA RESULT:      -7.5      0.000      0.000
REMARK  Name = 
REMARK  3 active torsions:
REMARK  status: ('A' for Active; 'I' for Inactive)
REMARK    1  A    between atoms: C_2  and  C_21
REMARK    2  A    between atoms: N_3  and  C_4
REMARK    3  A    between atoms: C_9  and  C_10
REMARK                            x       y       z     vdW  Elec       q    Type
REMARK                         _______ _______ _______ _____ _____    ______ ____
ROOT
ATOM      1  C   UNL     1       0.855  10.278  19.746  0.00  0.00    +0.000 A 
ATOM      2  C   UNL     1       1.357  10.381  18.439  0.00  0.00    +0.000 A 
ATOM      3  C   UNL     1       2.002   9.310  17.801  0.00  0.00    +0.000 A 
ATOM      4  C   UNL     1       2.093   8.142  18.540  0.00  0.00    +0.000 A 
ATOM      5  O   UNL     1       2.608   6.947  18.139  0.00  0.00    +0.000 OA
ATOM      6  C   UNL     1       2.415   6.122  19.223  0.00  0.00    +0.000 A 
ATOM      7  N   UNL     1       1.878   6.719  20.271  0.00  0.00    +0.000 NA
ATOM      8  C   UNL     1       1.645   7.999  19.839  0.00  0.00    +0.000 A 
ATOM      9  C   UNL     1       1.037   9.090  20.477  0.00  0.00    +0.000 A 
ENDROOT
BRANCH   6  10
ATOM     10  C   UNL     1       2.809   4.726  19.032  0.00  0.00    +0.000 A 
ATOM     11  C   UNL     1       1.814   3.750  18.817  0.00  0.00    +0.000 A 
ATOM     12  C   UNL     1       2.148   2.408  18.622  0.00  0.00    +0.000 A 
ATOM     13  C   UNL     1       3.481   2.028  18.645  0.00  0.00    +0.000 A 
ATOM     14  F   UNL     1       3.804   0.741  18.460  0.00  0.00    +0.000 F 
ATOM     15  C   UNL     1       4.486   2.960  18.863  0.00  0.00    +0.000 A 
ATOM     16  C   UNL     1       4.154   4.306  19.059  0.00  0.00    +0.000 A 
ATOM     17 CL   UNL     1       5.475   5.379  19.381  0.00  0.00    +0.000 Cl
ENDBRANCH   6  10
BRANCH   1  20
ATOM     18  O   UNL     1       1.897  12.615  21.161  0.00  0.00    +0.000 OA
ATOM     19  C   UNL     1       0.682  12.412  21.065  0.00  0.00    +0.000 C 
ATOM     20  N   UNL     1       0.143  11.318  20.386  0.00  0.00    +0.000 N 
ATOM     21  H   UNL     1      -0.863  11.329  20.235  0.00  0.00    +0.000 HD
BRANCH  19  22
ATOM     22  C   UNL     1      -0.343  13.406  21.674  0.00  0.00    +0.000 C 
ATOM     23 CL   UNL     1      -1.578  13.908  20.479  0.00  0.00    +0.000 Cl
ATOM     24 CL   UNL     1      -1.151  12.604  23.045  0.00  0.00    +0.000 Cl
ATOM     25 CL   UNL     1       0.542  14.851  22.230  0.00  0.00    +0.000 Cl
ENDBRANCH  19  22
ENDBRANCH   1  20
TORSDOF 3
ENDMDL
MODEL 2
REMARK VINA RESULT:      -7.5      0.059      1.035
REMARK  Name = 
REMARK  3 active torsions:
REMARK  status: ('A' for Active; 'I' for Inactive)
REMARK    1  A    between atoms: C_2  and  C_21
REMARK    2  A    between atoms: N_3  and  C_4
REMARK    3  A    between atoms: C_9  and  C_10
REMARK                            x       y       z     vdW  Elec       q    Type
REMARK                         _______ _______ _______ _____ _____    ______ ____
ROOT
ATOM      1  C   UNL     1       0.867  10.320  19.771  0.00  0.00    +0.000 A 
ATOM      2  C   UNL     1       1.372  10.426  18.465  0.00  0.00    +0.000 A 
ATOM      3  C   UNL     1       2.010   9.354  17.821  0.00  0.00    +0.000 A 
ATOM      4  C   UNL     1       2.093   8.182  18.555  0.00  0.00    +0.000 A 
ATOM      5  O   UNL     1       2.601   6.986  18.149  0.00  0.00    +0.000 OA
ATOM      6  C   UNL     1       2.402   6.157  19.229  0.00  0.00    +0.000 A 
ATOM      7  N   UNL     1       1.868   6.753  20.279  0.00  0.00    +0.000 NA
ATOM      8  C   UNL     1       1.644   8.036  19.853  0.00  0.00    +0.000 A 
ATOM      9  C   UNL     1       1.041   9.127  20.496  0.00  0.00    +0.000 A 
ENDROOT
BRANCH   6  10
ATOM     10  C   UNL     1       2.788   4.760  19.031  0.00  0.00    +0.000 A 
ATOM     11  C   UNL     1       1.786   3.790  18.815  0.00  0.00    +0.000 A 
ATOM     12  C   UNL     1       2.113   2.446  18.615  0.00  0.00    +0.000 A 
ATOM     13  C   UNL     1       3.443   2.059  18.632  0.00  0.00    +0.000 A 
ATOM     14  F   UNL     1       3.759   0.771  18.441  0.00  0.00    +0.000 F 
ATOM     15  C   UNL     1       4.454   2.984  18.851  0.00  0.00    +0.000 A 
ATOM     16  C   UNL     1       4.130   4.332  19.052  0.00  0.00    +0.000 A 
ATOM     17 CL   UNL     1       5.458   5.396  19.375  0.00  0.00    +0.000 Cl
ENDBRANCH   6  10
BRANCH   1  20
ATOM     18  O   UNL     1       1.922  12.679  21.139  0.00  0.00    +0.000 OA
ATOM     19  C   UNL     1       0.707  12.466  21.072  0.00  0.00    +0.000 C 
ATOM     20  N   UNL     1       0.162  11.361  20.416  0.00  0.00    +0.000 N 
ATOM     21  H   UNL     1      -0.847  11.363  20.287  0.00  0.00    +0.000 HD
BRANCH  19  22
ATOM     22  C   UNL     1      -0.312  13.459  21.693  0.00  0.00    +0.000 C 
ATOM     23 CL   UNL     1      -1.166  12.749  23.097  0.00  0.00    +0.000 Cl
ATOM     24 CL   UNL     1       0.576  14.910  22.224  0.00  0.00    +0.000 Cl
ATOM     25 CL   UNL     1      -1.511  13.883  20.443  0.00  0.00    +0.000 Cl
ENDBRANCH  19  22
ENDBRANCH   1  20
TORSDOF 3
ENDMDL
MODEL 3
REMARK VINA RESULT:      -7.5      0.071      1.030
REMARK  Name = 
REMARK  3 active torsions:
REMARK  status: ('A' for Active; 'I' for Inactive)
REMARK    1  A    between atoms: C_2  and  C_21
REMARK    2  A    between atoms: N_3  and  C_4
REMARK    3  A    between atoms: C_9  and  C_10
REMARK                            x       y       z     vdW  Elec       q    Type
REMARK                         _______ _______ _______ _____ _____    ______ ____
ROOT
ATOM      1  C   UNL     1       0.850  10.286  19.706  0.00  0.00    +0.000 A 
ATOM      2  C   UNL     1       1.359  10.384  18.401  0.00  0.00    +0.000 A 
ATOM      3  C   UNL     1       2.009   9.312  17.771  0.00  0.00    +0.000 A 
ATOM      4  C   UNL     1       2.099   8.148  18.516  0.00  0.00    +0.000 A 
ATOM      5  O   UNL     1       2.619   6.952  18.123  0.00  0.00    +0.000 OA
ATOM      6  C   UNL     1       2.422   6.131  19.211  0.00  0.00    +0.000 A 
ATOM      7  N   UNL     1       1.878   6.732  20.252  0.00  0.00    +0.000 NA
ATOM      8  C   UNL     1       1.645   8.010  19.813  0.00  0.00    +0.000 A 
ATOM      9  C   UNL     1       1.031   9.102  20.444  0.00  0.00    +0.000 A 
ENDROOT
BRANCH   6  10
ATOM     10  C   UNL     1       2.820   4.736  19.028  0.00  0.00    +0.000 A 
ATOM     11  C   UNL     1       1.828   3.756  18.815  0.00  0.00    +0.000 A 
ATOM     12  C   UNL     1       2.166   2.413  18.629  0.00  0.00    +0.000 A 
ATOM     13  C   UNL     1       3.500   2.037  18.657  0.00  0.00    +0.000 A 
ATOM     14  F   UNL     1       3.827   0.750  18.480  0.00  0.00    +0.000 F 
ATOM     15  C   UNL     1       4.502   2.973  18.872  0.00  0.00    +0.000 A 
ATOM     16  C   UNL     1       4.166   4.319  19.060  0.00  0.00    +0.000 A 
ATOM     17 CL   UNL     1       5.483   5.397  19.379  0.00  0.00    +0.000 Cl
ENDBRANCH   6  10
BRANCH   1  20
ATOM     18  O   UNL     1       1.867  12.488  21.339  0.00  0.00    +0.000 OA
ATOM     19  C   UNL     1       0.659  12.355  21.123  0.00  0.00    +0.000 C 
ATOM     20  N   UNL     1       0.133  11.327  20.338  0.00  0.00    +0.000 N 
ATOM     21  H   UNL     1      -0.853  11.400  20.098  0.00  0.00    +0.000 HD
BRANCH  19  22
ATOM     22  C   UNL     1      -0.369  13.369  21.694  0.00  0.00    +0.000 C 
ATOM     23 CL   UNL     1       0.420  14.873  22.259  0.00  0.00    +0.000 Cl
ATOM     24 CL   UNL     1      -1.530  13.771  20.403  0.00  0.00    +0.000 Cl
ATOM     25 CL   UNL     1      -1.205  12.604  23.070  0.00  0.00    +0.000 Cl
ENDBRANCH  19  22
ENDBRANCH   1  20
TORSDOF 3
ENDMDL
MODEL 4
REMARK VINA RESULT:      -7.4      2.083      2.691
REMARK  Name = 
REMARK  3 active torsions:
REMARK  status: ('A' for Active; 'I' for Inactive)
REMARK    1  A    between atoms: C_2  and  C_21
REMARK    2  A    between atoms: N_3  and  C_4
REMARK    3  A    between atoms: C_9  and  C_10
REMARK                            x       y       z     vdW  Elec       q    Type
REMARK                         _______ _______ _______ _____ _____    ______ ____
ROOT
ATOM      1  C   UNL     1       0.456  10.325  20.323  0.00  0.00    +0.000 A 
ATOM      2  C   UNL     1       0.603   9.426  21.391  0.00  0.00    +0.000 A 
ATOM      3  C   UNL     1       1.278   8.203  21.249  0.00  0.00    +0.000 A 
ATOM      4  C   UNL     1       1.801   7.952  19.992  0.00  0.00    +0.000 A 
ATOM      5  O   UNL     1       2.547   6.881  19.604  0.00  0.00    +0.000 OA
ATOM      6  C   UNL     1       2.845   7.143  18.286  0.00  0.00    +0.000 A 
ATOM      7  N   UNL     1       2.302   8.251  17.817  0.00  0.00    +0.000 NA
ATOM      8  C   UNL     1       1.656   8.787  18.901  0.00  0.00    +0.000 A 
ATOM      9  C   UNL     1       0.947   9.989  19.048  0.00  0.00    +0.000 A 
ENDROOT
BRANCH   6  10
ATOM     10  C   UNL     1       3.725   6.174  17.633  0.00  0.00    +0.000 A 
ATOM     11  C   UNL     1       4.993   6.590  17.177  0.00  0.00    +0.000 A 
ATOM     12  C   UNL     1       5.867   5.695  16.556  0.00  0.00    +0.000 A 
ATOM     13  C   UNL     1       5.480   4.376  16.382  0.00  0.00    +0.000 A 
ATOM     14  F   UNL     1       6.315   3.515  15.785  0.00  0.00    +0.000 F 
ATOM     15  C   UNL     1       4.236   3.934  16.809  0.00  0.00    +0.000 A 
ATOM     16  C   UNL     1       3.358   4.829  17.433  0.00  0.00    +0.000 A 
ATOM     17 CL   UNL     1       1.809   4.194  17.877  0.00  0.00    +0.000 Cl
ENDBRANCH   6  10
BRANCH   1  20
ATOM     18  O   UNL     1       1.615  12.840  21.263  0.00  0.00    +0.000 OA
ATOM     19  C   UNL     1       0.430  12.767  20.924  0.00  0.00    +0.000 C 
ATOM     20  N   UNL     1      -0.159  11.591  20.455  0.00  0.00    +0.000 N 
ATOM     21  H   UNL     1      -1.092  11.678  20.059  0.00  0.00    +0.000 HD
BRANCH  19  22
ATOM     22  C   UNL     1      -0.488  14.019  20.961  0.00  0.00    +0.000 C 
ATOM     23 CL   UNL     1      -0.090  15.178  19.656  0.00  0.00    +0.000 Cl
ATOM     24 CL   UNL     1      -2.175  13.479  20.765  0.00  0.00    +0.000 Cl
ATOM     25 CL   UNL     1      -0.269  14.826  22.536  0.00  0.00    +0.000 Cl
ENDBRANCH  19  22
ENDBRANCH   1  20
TORSDOF 3
ENDMDL
MODEL 5
REMARK VINA RESULT:      -7.4      2.099      2.871
REMARK  Name = 
REMARK  3 active torsions:
REMARK  status: ('A' for Active; 'I' for Inactive)
REMARK    1  A    between atoms: C_2  and  C_21
REMARK    2  A    between atoms: N_3  and  C_4
REMARK    3  A    between atoms: C_9  and  C_10
REMARK                            x       y       z     vdW  Elec       q    Type
REMARK                         _______ _______ _______ _____ _____    ______ ____
ROOT
ATOM      1  C   UNL     1       0.453  10.250  20.400  0.00  0.00    +0.000 A 
ATOM      2  C   UNL     1       0.589   9.324  21.447  0.00  0.00    +0.000 A 
ATOM      3  C   UNL     1       1.260   8.103  21.281  0.00  0.00    +0.000 A 
ATOM      4  C   UNL     1       1.791   7.880  20.022  0.00  0.00    +0.000 A 
ATOM      5  O   UNL     1       2.536   6.816  19.614  0.00  0.00    +0.000 OA
ATOM      6  C   UNL     1       2.844   7.108  18.304  0.00  0.00    +0.000 A 
ATOM      7  N   UNL     1       2.308   8.229  17.859  0.00  0.00    +0.000 NA
ATOM      8  C   UNL     1       1.657   8.742  18.950  0.00  0.00    +0.000 A 
ATOM      9  C   UNL     1       0.952   9.942  19.121  0.00  0.00    +0.000 A 
ENDROOT
BRANCH   6  10
ATOM     10  C   UNL     1       3.725   6.151  17.635  0.00  0.00    +0.000 A 
ATOM     11  C   UNL     1       4.983   6.582  17.166  0.00  0.00    +0.000 A 
ATOM     12  C   UNL     1       5.858   5.699  16.528  0.00  0.00    +0.000 A 
ATOM     13  C   UNL     1       5.480   4.377  16.350  0.00  0.00    +0.000 A 
ATOM     14  F   UNL     1       6.316   3.529  15.737  0.00  0.00    +0.000 F 
ATOM     15  C   UNL     1       4.246   3.921  16.790  0.00  0.00    +0.000 A 
ATOM     16  C   UNL     1       3.367   4.804  17.430  0.00  0.00    +0.000 A 
ATOM     17 CL   UNL     1       1.830   4.151  17.889  0.00  0.00    +0.000 Cl
ENDBRANCH   6  10
BRANCH   1  20
ATOM     18  O   UNL     1       1.636  12.757  21.332  0.00  0.00    +0.000 OA
ATOM     19  C   UNL     1       0.443  12.686  21.023  0.00  0.00    +0.000 C 
ATOM     20  N   UNL     1      -0.158  11.514  20.559  0.00  0.00    +0.000 N 
ATOM     21  H   UNL     1      -1.101  11.605  20.188  0.00  0.00    +0.000 HD
BRANCH  19  22
ATOM     22  C   UNL     1      -0.474  13.938  21.094  0.00  0.00    +0.000 C 
ATOM     23 CL   UNL     1      -0.660  14.535  22.771  0.00  0.00    +0.000 Cl
ATOM     24 CL   UNL     1       0.256  15.221  20.097  0.00  0.00    +0.000 Cl
ATOM     25 CL   UNL     1      -2.079  13.491  20.460  0.00  0.00    +0.000 Cl
ENDBRANCH  19  22
ENDBRANCH   1  20
TORSDOF 3
ENDMDL
MODEL 6
REMARK VINA RESULT:      -7.4      1.162      1.286
REMARK  Name = 
REMARK  3 active torsions:
REMARK  status: ('A' for Active; 'I' for Inactive)
REMARK    1  A    between atoms: C_2  and  C_21
REMARK    2  A    between atoms: N_3  and  C_4
REMARK    3  A    between atoms: C_9  and  C_10
REMARK                            x       y       z     vdW  Elec       q    Type
REMARK                         _______ _______ _______ _____ _____    ______ ____
ROOT
ATOM      1  C   UNL     1       0.844  10.286  19.903  0.00  0.00    +0.000 A 
ATOM      2  C   UNL     1       1.329  10.438  18.595  0.00  0.00    +0.000 A 
ATOM      3  C   UNL     1       1.968   9.394  17.909  0.00  0.00    +0.000 A 
ATOM      4  C   UNL     1       2.073   8.200  18.604  0.00  0.00    +0.000 A 
ATOM      5  O   UNL     1       2.586   7.022  18.153  0.00  0.00    +0.000 OA
ATOM      6  C   UNL     1       2.410   6.157  19.209  0.00  0.00    +0.000 A 
ATOM      7  N   UNL     1       1.885   6.715  20.285  0.00  0.00    +0.000 NA
ATOM      8  C   UNL     1       1.643   8.008  19.903  0.00  0.00    +0.000 A 
ATOM      9  C   UNL     1       1.039   9.073  20.588  0.00  0.00    +0.000 A 
ENDROOT
BRANCH   6  10
ATOM     10  C   UNL     1       2.806   4.771  18.962  0.00  0.00    +0.000 A 
ATOM     11  C   UNL     1       1.813   3.808  18.685  0.00  0.00    +0.000 A 
ATOM     12  C   UNL     1       2.150   2.475  18.436  0.00  0.00    +0.000 A 
ATOM     13  C   UNL     1       3.481   2.092  18.466  0.00  0.00    +0.000 A 
ATOM     14  F   UNL     1       3.806   0.814  18.229  0.00  0.00    +0.000 F 
ATOM     15  C   UNL     1       4.483   3.011  18.744  0.00  0.00    +0.000 A 
ATOM     16  C   UNL     1       4.149   4.348  18.994  0.00  0.00    +0.000 A 
ATOM     17 CL   UNL     1       5.465   5.402  19.388  0.00  0.00    +0.000 Cl
ENDBRANCH   6  10
BRANCH   1  20
ATOM     18  O   UNL     1      -1.833  11.338  19.378  0.00  0.00    +0.000 OA
ATOM     19  C   UNL     1      -1.138  11.783  20.296  0.00  0.00    +0.000 C 
ATOM     20  N   UNL     1       0.138  11.300  20.590  0.00  0.00    +0.000 N 
ATOM     21  H   UNL     1       0.558  11.627  21.458  0.00  0.00    +0.000 HD
BRANCH  19  22
ATOM     22  C   UNL     1      -1.670  12.907  21.226  0.00  0.00    +0.000 C 
ATOM     23 CL   UNL     1      -3.401  12.681  21.624  0.00  0.00    +0.000 Cl
ATOM     24 CL   UNL     1      -0.719  12.881  22.733  0.00  0.00    +0.000 Cl
ATOM     25 CL   UNL     1      -1.470  14.468  20.388  0.00  0.00    +0.000 Cl
ENDBRANCH  19  22
ENDBRANCH   1  20
TORSDOF 3
ENDMDL
MODEL 7
REMARK VINA RESULT:      -7.4      1.129      1.428
REMARK  Name = 
REMARK  3 active torsions:
REMARK  status: ('A' for Active; 'I' for Inactive)
REMARK    1  A    between atoms: C_2  and  C_21
REMARK    2  A    between atoms: N_3  and  C_4
REMARK    3  A    between atoms: C_9  and  C_10
REMARK                            x       y       z     vdW  Elec       q    Type
REMARK                         _______ _______ _______ _____ _____    ______ ____
ROOT
ATOM      1  C   UNL     1       0.902  10.219  19.862  0.00  0.00    +0.000 A 
ATOM      2  C   UNL     1       1.391  10.352  18.552  0.00  0.00    +0.000 A 
ATOM      3  C   UNL     1       2.025   9.295  17.881  0.00  0.00    +0.000 A 
ATOM      4  C   UNL     1       2.122   8.110  18.592  0.00  0.00    +0.000 A 
ATOM      5  O   UNL     1       2.629   6.924  18.157  0.00  0.00    +0.000 OA
ATOM      6  C   UNL     1       2.446   6.073  19.224  0.00  0.00    +0.000 A 
ATOM      7  N   UNL     1       1.922   6.647  20.291  0.00  0.00    +0.000 NA
ATOM      8  C   UNL     1       1.688   7.937  19.892  0.00  0.00    +0.000 A 
ATOM      9  C   UNL     1       1.089   9.014  20.562  0.00  0.00    +0.000 A 
ENDROOT
BRANCH   6  10
ATOM     10  C   UNL     1       2.835   4.681  18.995  0.00  0.00    +0.000 A 
ATOM     11  C   UNL     1       1.836   3.717  18.747  0.00  0.00    +0.000 A 
ATOM     12  C   UNL     1       2.165   2.379  18.517  0.00  0.00    +0.000 A 
ATOM     13  C   UNL     1       3.496   1.992  18.536  0.00  0.00    +0.000 A 
ATOM     14  F   UNL     1       3.814   0.709  18.317  0.00  0.00    +0.000 F 
ATOM     15  C   UNL     1       4.504   2.912  18.786  0.00  0.00    +0.000 A 
ATOM     16  C   UNL     1       4.177   4.254  19.017  0.00  0.00    +0.000 A 
ATOM     17 CL   UNL     1       5.501   5.311  19.376  0.00  0.00    +0.000 Cl
ENDBRANCH   6  10
BRANCH   1  20
ATOM     18  O   UNL     1      -1.803  11.217  19.375  0.00  0.00    +0.000 OA
ATOM     19  C   UNL     1      -1.090  11.702  20.259  0.00  0.00    +0.000 C 
ATOM     20  N   UNL     1       0.201  11.245  20.534  0.00  0.00    +0.000 N 
ATOM     21  H   UNL     1       0.639  11.607  21.378  0.00  0.00    +0.000 HD
BRANCH  19  22
ATOM     22  C   UNL     1      -1.613  12.849  21.166  0.00  0.00    +0.000 C 
ATOM     23 CL   UNL     1      -0.608  14.324  21.024  0.00  0.00    +0.000 Cl
ATOM     24 CL   UNL     1      -3.281  13.232  20.674  0.00  0.00    +0.000 Cl
ATOM     25 CL   UNL     1      -1.573  12.286  22.857  0.00  0.00    +0.000 Cl
ENDBRANCH  19  22
ENDBRANCH   1  20
TORSDOF 3
ENDMDL
MODEL 8
REMARK VINA RESULT:      -7.3      1.107      1.696
REMARK  Name = 
REMARK  3 active torsions:
REMARK  status: ('A' for Active; 'I' for Inactive)
REMARK    1  A    between atoms: C_2  and  C_21
REMARK    2  A    between atoms: N_3  and  C_4
REMARK    3  A    between atoms: C_9  and  C_10
REMARK                            x       y       z     vdW  Elec       q    Type
REMARK                         _______ _______ _______ _____ _____    ______ ____
ROOT
ATOM      1  C   UNL     1       0.878  10.274  19.770  0.00  0.00    +0.000 A 
ATOM      2  C   UNL     1       1.380  10.418  18.466  0.00  0.00    +0.000 A 
ATOM      3  C   UNL     1       2.017   9.365  17.792  0.00  0.00    +0.000 A 
ATOM      4  C   UNL     1       2.103   8.173  18.492  0.00  0.00    +0.000 A 
ATOM      5  O   UNL     1       2.611   6.989  18.051  0.00  0.00    +0.000 OA
ATOM      6  C   UNL     1       2.414   6.129  19.108  0.00  0.00    +0.000 A 
ATOM      7  N   UNL     1       1.882   6.695  20.175  0.00  0.00    +0.000 NA
ATOM      8  C   UNL     1       1.656   7.989  19.786  0.00  0.00    +0.000 A 
ATOM      9  C   UNL     1       1.054   9.061  20.461  0.00  0.00    +0.000 A 
ENDROOT
BRANCH   6  10
ATOM     10  C   UNL     1       2.800   4.738  18.870  0.00  0.00    +0.000 A 
ATOM     11  C   UNL     1       3.765   4.448  17.883  0.00  0.00    +0.000 A 
ATOM     12  C   UNL     1       4.168   3.134  17.630  0.00  0.00    +0.000 A 
ATOM     13  C   UNL     1       3.606   2.098  18.359  0.00  0.00    +0.000 A 
ATOM     14  F   UNL     1       3.989   0.837  18.117  0.00  0.00    +0.000 F 
ATOM     15  C   UNL     1       2.647   2.346  19.331  0.00  0.00    +0.000 A 
ATOM     16  C   UNL     1       2.242   3.662  19.587  0.00  0.00    +0.000 A 
ATOM     17 CL   UNL     1       1.000   3.859  20.777  0.00  0.00    +0.000 Cl
ENDBRANCH   6  10
BRANCH   1  20
ATOM     18  O   UNL     1       1.919  12.703  21.023  0.00  0.00    +0.000 OA
ATOM     19  C   UNL     1       0.713  12.436  21.043  0.00  0.00    +0.000 C 
ATOM     20  N   UNL     1       0.173  11.296  20.445  0.00  0.00    +0.000 N 
ATOM     21  H   UNL     1      -0.842  11.253  20.387  0.00  0.00    +0.000 HD
BRANCH  19  22
ATOM     22  C   UNL     1      -0.304  13.397  21.717  0.00  0.00    +0.000 C 
ATOM     23 CL   UNL     1      -1.148  12.618  23.091  0.00  0.00    +0.000 Cl
ATOM     24 CL   UNL     1       0.585  14.822  22.312  0.00  0.00    +0.000 Cl
ATOM     25 CL   UNL     1      -1.512  13.878  20.497  0.00  0.00    +0.000 Cl
ENDBRANCH  19  22
ENDBRANCH   1  20
TORSDOF 3
ENDMDL
MODEL 9
REMARK VINA RESULT:      -7.3      3.798      8.925
REMARK  Name = 
REMARK  3 active torsions:
REMARK  status: ('A' for Active; 'I' for Inactive)
REMARK    1  A    between atoms: C_2  and  C_21
REMARK    2  A    between atoms: N_3  and  C_4
REMARK    3  A    between atoms: C_9  and  C_10
REMARK                            x       y       z     vdW  Elec       q    Type
REMARK                         _______ _______ _______ _____ _____    ______ ____
ROOT
ATOM      1  C   UNL     1       2.504   7.247  18.670  0.00  0.00    +0.000 A 
ATOM      2  C   UNL     1       2.262   8.154  17.625  0.00  0.00    +0.000 A 
ATOM      3  C   UNL     1       1.565   9.356  17.827  0.00  0.00    +0.000 A 
ATOM      4  C   UNL     1       1.149   9.593  19.127  0.00  0.00    +0.000 A 
ATOM      5  O   UNL     1       0.515  10.700  19.603  0.00  0.00    +0.000 OA
ATOM      6  C   UNL     1       0.373  10.447  20.949  0.00  0.00    +0.000 A 
ATOM      7  N   UNL     1       0.813   9.262  21.328  0.00  0.00    +0.000 NA
ATOM      8  C   UNL     1       1.332   8.720  20.181  0.00  0.00    +0.000 A 
ATOM      9  C   UNL     1       1.998   7.506  19.956  0.00  0.00    +0.000 A 
ENDROOT
BRANCH   6  10
ATOM     10  C   UNL     1      -0.215  11.532  21.736  0.00  0.00    +0.000 A 
ATOM     11  C   UNL     1      -1.259  11.243  22.639  0.00  0.00    +0.000 A 
ATOM     12  C   UNL     1      -1.842  12.248  23.414  0.00  0.00    +0.000 A 
ATOM     13  C   UNL     1      -1.389  13.552  23.291  0.00  0.00    +0.000 A 
ATOM     14  F   UNL     1      -1.947  14.518  24.033  0.00  0.00    +0.000 F 
ATOM     15  C   UNL     1      -0.370  13.874  22.406  0.00  0.00    +0.000 A 
ATOM     16  C   UNL     1       0.217  12.869  21.628  0.00  0.00    +0.000 A 
ATOM     17 CL   UNL     1       1.439  13.382  20.514  0.00  0.00    +0.000 Cl
ENDBRANCH   6  10
BRANCH   1  20
ATOM     18  O   UNL     1       1.637   4.635  17.683  0.00  0.00    +0.000 OA
ATOM     19  C   UNL     1       2.802   4.829  18.045  0.00  0.00    +0.000 C 
ATOM     20  N   UNL     1       3.260   6.064  18.508  0.00  0.00    +0.000 N 
ATOM     21  H   UNL     1       4.266   6.156  18.632  0.00  0.00    +0.000 HD
BRANCH  19  22
ATOM     22  C   UNL     1       3.861   3.697  17.967  0.00  0.00    +0.000 C 
ATOM     23 CL   UNL     1       4.993   3.933  16.601  0.00  0.00    +0.000 Cl
ATOM     24 CL   UNL     1       4.782   3.689  19.492  0.00  0.00    +0.000 Cl
ATOM     25 CL   UNL     1       3.007   2.147  17.746  0.00  0.00    +0.000 Cl
ENDBRANCH  19  22
ENDBRANCH   1  20
TORSDOF 3
ENDMDL
