MODEL 1
REMARK VINA RESULT:      -7.4      0.000      0.000
REMARK  Name = 
REMARK  6 active torsions:
REMARK  status: ('A' for Active; 'I' for Inactive)
REMARK    1  A    between atoms: C_1  and  C_2
REMARK    2  A    between atoms: C_2  and  C_3
REMARK    3  A    between atoms: C_2  and  C_4
REMARK    4  A    between atoms: C_2  and  C_5
REMARK    5  A    between atoms: C_8  and  C_9
REMARK    6  A    between atoms: C_9  and  N_10
REMARK                            x       y       z     vdW  Elec       q    Type
REMARK                         _______ _______ _______ _____ _____    ______ ____
ROOT
ATOM      1  N   UNL     1       4.540   5.056  18.328  0.00  0.00    +0.000 N 
ATOM      2  C   UNL     1       4.019   4.487  17.140  0.00  0.00    +0.000 C 
ATOM      3  O   UNL     1       2.886   4.046  17.014  0.00  0.00    +0.000 OA
ATOM      4  C   UNL     1       5.032   4.488  16.085  0.00  0.00    +0.000 A 
ATOM      5  C   UNL     1       4.862   4.019  14.791  0.00  0.00    +0.000 A 
ATOM      6  C   UNL     1       5.974   4.024  13.946  0.00  0.00    +0.000 A 
ATOM      7  C   UNL     1       7.230   4.446  14.422  0.00  0.00    +0.000 A 
ATOM      8  C   UNL     1       7.373   4.963  15.718  0.00  0.00    +0.000 A 
ATOM      9  C   UNL     1       6.236   5.026  16.501  0.00  0.00    +0.000 A 
ATOM     10  S   UNL     1       6.031   5.793  18.066  0.00  0.00    +0.000 S 
ATOM     11  O   UNL     1       5.820   7.198  17.809  0.00  0.00    +0.000 OA
ATOM     12  O   UNL     1       7.028   5.271  18.961  0.00  0.00    +0.000 OA
ENDROOT
BRANCH   1  13
ATOM     13  C   UNL     1       3.647   5.408  19.431  0.00  0.00    +0.000 C 
BRANCH  13  17
ATOM     14  C   UNL     1       1.239   9.040  19.278  0.00  0.00    +0.000 A 
ATOM     15  C   UNL     1       1.352   8.281  20.453  0.00  0.00    +0.000 A 
ATOM     16  C   UNL     1       2.094   7.091  20.486  0.00  0.00    +0.000 A 
ATOM     17  C   UNL     1       2.763   6.626  19.350  0.00  0.00    +0.000 A 
ATOM     18  C   UNL     1       2.674   7.381  18.177  0.00  0.00    +0.000 A 
ATOM     19  C   UNL     1       1.917   8.559  18.141  0.00  0.00    +0.000 A 
BRANCH  14  21
ATOM     20  C   UNL     1      -0.750  10.286  18.191  0.00  0.00    +0.000 C 
ATOM     21  C   UNL     1       0.421  10.342  19.198  0.00  0.00    +0.000 C 
ATOM     22  C   UNL     1       1.335  11.509  18.766  0.00  0.00    +0.000 C 
ATOM     23  C   UNL     1      -0.181  10.662  20.585  0.00  0.00    +0.000 C 
ENDBRANCH  14  21
ENDBRANCH  13  17
ENDBRANCH   1  13
TORSDOF 3
ENDMDL
MODEL 2
REMARK VINA RESULT:      -7.3      4.272      8.651
REMARK  Name = 
REMARK  6 active torsions:
REMARK  status: ('A' for Active; 'I' for Inactive)
REMARK    1  A    between atoms: C_1  and  C_2
REMARK    2  A    between atoms: C_2  and  C_3
REMARK    3  A    between atoms: C_2  and  C_4
REMARK    4  A    between atoms: C_2  and  C_5
REMARK    5  A    between atoms: C_8  and  C_9
REMARK    6  A    between atoms: C_9  and  N_10
REMARK                            x       y       z     vdW  Elec       q    Type
REMARK                         _______ _______ _______ _____ _____    ______ ____
ROOT
ATOM      1  N   UNL     1       0.592   9.701  21.051  0.00  0.00    +0.000 N 
ATOM      2  C   UNL     1       0.006  10.196  22.242  0.00  0.00    +0.000 C 
ATOM      3  O   UNL     1       0.282   9.811  23.369  0.00  0.00    +0.000 OA
ATOM      4  C   UNL     1      -0.987  11.224  21.934  0.00  0.00    +0.000 A 
ATOM      5  C   UNL     1      -1.743  11.930  22.858  0.00  0.00    +0.000 A 
ATOM      6  C   UNL     1      -2.707  12.815  22.370  0.00  0.00    +0.000 A 
ATOM      7  C   UNL     1      -2.926  12.938  20.985  0.00  0.00    +0.000 A 
ATOM      8  C   UNL     1      -2.120  12.254  20.063  0.00  0.00    +0.000 A 
ATOM      9  C   UNL     1      -1.118  11.451  20.577  0.00  0.00    +0.000 A 
ATOM     10  S   UNL     1       0.173  10.635  19.714  0.00  0.00    +0.000 S 
ATOM     11  O   UNL     1       1.204  11.620  19.489  0.00  0.00    +0.000 OA
ATOM     12  O   UNL     1      -0.413   9.822  18.683  0.00  0.00    +0.000 OA
ENDROOT
BRANCH   1  13
ATOM     13  C   UNL     1       1.792   8.867  21.110  0.00  0.00    +0.000 C 
BRANCH  13  17
ATOM     14  C   UNL     1       2.100   4.960  19.199  0.00  0.00    +0.000 A 
ATOM     15  C   UNL     1       2.509   6.133  18.546  0.00  0.00    +0.000 A 
ATOM     16  C   UNL     1       2.369   7.391  19.148  0.00  0.00    +0.000 A 
ATOM     17  C   UNL     1       1.832   7.522  20.432  0.00  0.00    +0.000 A 
ATOM     18  C   UNL     1       1.437   6.360  21.103  0.00  0.00    +0.000 A 
ATOM     19  C   UNL     1       1.560   5.106  20.491  0.00  0.00    +0.000 A 
BRANCH  14  21
ATOM     20  C   UNL     1       2.586   3.585  17.062  0.00  0.00    +0.000 C 
ATOM     21  C   UNL     1       2.223   3.562  18.564  0.00  0.00    +0.000 C 
ATOM     22  C   UNL     1       0.882   2.808  18.696  0.00  0.00    +0.000 C 
ATOM     23  C   UNL     1       3.326   2.758  19.290  0.00  0.00    +0.000 C 
ENDBRANCH  14  21
ENDBRANCH  13  17
ENDBRANCH   1  13
TORSDOF 3
ENDMDL
MODEL 3
REMARK VINA RESULT:      -7.3      1.138      2.345
REMARK  Name = 
REMARK  6 active torsions:
REMARK  status: ('A' for Active; 'I' for Inactive)
REMARK    1  A    between atoms: C_1  and  C_2
REMARK    2  A    between atoms: C_2  and  C_3
REMARK    3  A    between atoms: C_2  and  C_4
REMARK    4  A    between atoms: C_2  and  C_5
REMARK    5  A    between atoms: C_8  and  C_9
REMARK    6  A    between atoms: C_9  and  N_10
REMARK                            x       y       z     vdW  Elec       q    Type
REMARK                         _______ _______ _______ _____ _____    ______ ____
ROOT
ATOM      1  N   UNL     1       3.910   5.697  18.032  0.00  0.00    +0.000 N 
ATOM      2  C   UNL     1       5.032   6.327  17.442  0.00  0.00    +0.000 C 
ATOM      3  O   UNL     1       5.459   7.431  17.752  0.00  0.00    +0.000 OA
ATOM      4  C   UNL     1       5.603   5.479  16.397  0.00  0.00    +0.000 A 
ATOM      5  C   UNL     1       6.715   5.776  15.622  0.00  0.00    +0.000 A 
ATOM      6  C   UNL     1       7.063   4.878  14.611  0.00  0.00    +0.000 A 
ATOM      7  C   UNL     1       6.272   3.740  14.366  0.00  0.00    +0.000 A 
ATOM      8  C   UNL     1       5.180   3.428  15.189  0.00  0.00    +0.000 A 
ATOM      9  C   UNL     1       4.913   4.292  16.235  0.00  0.00    +0.000 A 
ATOM     10  S   UNL     1       3.770   4.090  17.551  0.00  0.00    +0.000 S 
ATOM     11  O   UNL     1       4.416   3.249  18.530  0.00  0.00    +0.000 OA
ATOM     12  O   UNL     1       2.472   3.833  16.987  0.00  0.00    +0.000 OA
ENDROOT
BRANCH   1  13
ATOM     13  C   UNL     1       3.335   6.222  19.271  0.00  0.00    +0.000 C 
BRANCH  13  17
ATOM     14  C   UNL     1       0.689   9.687  19.265  0.00  0.00    +0.000 A 
ATOM     15  C   UNL     1       0.939   8.954  20.436  0.00  0.00    +0.000 A 
ATOM     16  C   UNL     1       1.758   7.816  20.424  0.00  0.00    +0.000 A 
ATOM     17  C   UNL     1       2.370   7.378  19.245  0.00  0.00    +0.000 A 
ATOM     18  C   UNL     1       2.144   8.109  18.075  0.00  0.00    +0.000 A 
ATOM     19  C   UNL     1       1.310   9.235  18.085  0.00  0.00    +0.000 A 
BRANCH  14  21
ATOM     20  C   UNL     1      -0.847  11.283  20.602  0.00  0.00    +0.000 C 
ATOM     21  C   UNL     1      -0.217  10.932  19.234  0.00  0.00    +0.000 C 
ATOM     22  C   UNL     1      -1.380  10.709  18.243  0.00  0.00    +0.000 C 
ATOM     23  C   UNL     1       0.605  12.159  18.778  0.00  0.00    +0.000 C 
ENDBRANCH  14  21
ENDBRANCH  13  17
ENDBRANCH   1  13
TORSDOF 3
ENDMDL
MODEL 4
REMARK VINA RESULT:      -7.3      4.771      8.678
REMARK  Name = 
REMARK  6 active torsions:
REMARK  status: ('A' for Active; 'I' for Inactive)
REMARK    1  A    between atoms: C_1  and  C_2
REMARK    2  A    between atoms: C_2  and  C_3
REMARK    3  A    between atoms: C_2  and  C_4
REMARK    4  A    between atoms: C_2  and  C_5
REMARK    5  A    between atoms: C_8  and  C_9
REMARK    6  A    between atoms: C_9  and  N_10
REMARK                            x       y       z     vdW  Elec       q    Type
REMARK                         _______ _______ _______ _____ _____    ______ ____
ROOT
ATOM      1  N   UNL     1      -0.534  11.467  18.687  0.00  0.00    +0.000 N 
ATOM      2  C   UNL     1      -1.435  10.673  17.936  0.00  0.00    +0.000 C 
ATOM      3  O   UNL     1      -1.107   9.862  17.081  0.00  0.00    +0.000 OA
ATOM      4  C   UNL     1      -2.816  10.968  18.315  0.00  0.00    +0.000 A 
ATOM      5  C   UNL     1      -3.951  10.368  17.792  0.00  0.00    +0.000 A 
ATOM      6  C   UNL     1      -5.194  10.843  18.218  0.00  0.00    +0.000 A 
ATOM      7  C   UNL     1      -5.274  11.929  19.109  0.00  0.00    +0.000 A 
ATOM      8  C   UNL     1      -4.117  12.492  19.667  0.00  0.00    +0.000 A 
ATOM      9  C   UNL     1      -2.905  11.942  19.292  0.00  0.00    +0.000 A 
ATOM     10  S   UNL     1      -1.311  12.270  19.947  0.00  0.00    +0.000 S 
ATOM     11  O   UNL     1      -1.192  11.480  21.149  0.00  0.00    +0.000 OA
ATOM     12  O   UNL     1      -1.074  13.686  19.877  0.00  0.00    +0.000 OA
ENDROOT
BRANCH   1  13
ATOM     13  C   UNL     1       0.897  11.166  18.681  0.00  0.00    +0.000 C 
BRANCH  13  17
ATOM     14  C   UNL     1       2.144   7.038  19.323  0.00  0.00    +0.000 A 
ATOM     15  C   UNL     1       1.510   7.780  20.332  0.00  0.00    +0.000 A 
ATOM     16  C   UNL     1       1.149   9.120  20.134  0.00  0.00    +0.000 A 
ATOM     17  C   UNL     1       1.392   9.762  18.916  0.00  0.00    +0.000 A 
ATOM     18  C   UNL     1       2.007   9.030  17.896  0.00  0.00    +0.000 A 
ATOM     19  C   UNL     1       2.384   7.697  18.102  0.00  0.00    +0.000 A 
BRANCH  14  21
ATOM     20  C   UNL     1       2.072   4.932  20.825  0.00  0.00    +0.000 C 
ATOM     21  C   UNL     1       2.571   5.569  19.507  0.00  0.00    +0.000 C 
ATOM     22  C   UNL     1       4.111   5.468  19.508  0.00  0.00    +0.000 C 
ATOM     23  C   UNL     1       2.011   4.718  18.345  0.00  0.00    +0.000 C 
ENDBRANCH  14  21
ENDBRANCH  13  17
ENDBRANCH   1  13
TORSDOF 3
ENDMDL
MODEL 5
REMARK VINA RESULT:      -7.3      1.149      2.568
REMARK  Name = 
REMARK  6 active torsions:
REMARK  status: ('A' for Active; 'I' for Inactive)
REMARK    1  A    between atoms: C_1  and  C_2
REMARK    2  A    between atoms: C_2  and  C_3
REMARK    3  A    between atoms: C_2  and  C_4
REMARK    4  A    between atoms: C_2  and  C_5
REMARK    5  A    between atoms: C_8  and  C_9
REMARK    6  A    between atoms: C_9  and  N_10
REMARK                            x       y       z     vdW  Elec       q    Type
REMARK                         _______ _______ _______ _____ _____    ______ ____
ROOT
ATOM      1  N   UNL     1       3.793   5.613  17.992  0.00  0.00    +0.000 N 
ATOM      2  C   UNL     1       4.945   6.248  17.468  0.00  0.00    +0.000 C 
ATOM      3  O   UNL     1       5.374   7.332  17.836  0.00  0.00    +0.000 OA
ATOM      4  C   UNL     1       5.543   5.432  16.412  0.00  0.00    +0.000 A 
ATOM      5  C   UNL     1       6.687   5.742  15.691  0.00  0.00    +0.000 A 
ATOM      6  C   UNL     1       7.059   4.878  14.659  0.00  0.00    +0.000 A 
ATOM      7  C   UNL     1       6.263   3.763  14.341  0.00  0.00    +0.000 A 
ATOM      8  C   UNL     1       5.137   3.436  15.111  0.00  0.00    +0.000 A 
ATOM      9  C   UNL     1       4.843   4.263  16.179  0.00  0.00    +0.000 A 
ATOM     10  S   UNL     1       3.649   4.027  17.443  0.00  0.00    +0.000 S 
ATOM     11  O   UNL     1       4.247   3.140  18.412  0.00  0.00    +0.000 OA
ATOM     12  O   UNL     1       2.370   3.812  16.823  0.00  0.00    +0.000 OA
ENDROOT
BRANCH   1  13
ATOM     13  C   UNL     1       3.180   6.098  19.228  0.00  0.00    +0.000 C 
BRANCH  13  17
ATOM     14  C   UNL     1       0.710   9.691  19.210  0.00  0.00    +0.000 A 
ATOM     15  C   UNL     1       1.319   9.210  18.040  0.00  0.00    +0.000 A 
ATOM     16  C   UNL     1       2.146   8.078  18.059  0.00  0.00    +0.000 A 
ATOM     17  C   UNL     1       2.381   7.376  19.245  0.00  0.00    +0.000 A 
ATOM     18  C   UNL     1       1.768   7.832  20.415  0.00  0.00    +0.000 A 
ATOM     19  C   UNL     1       0.957   8.974  20.397  0.00  0.00    +0.000 A 
BRANCH  14  21
ATOM     20  C   UNL     1      -0.823  11.232  20.613  0.00  0.00    +0.000 C 
ATOM     21  C   UNL     1      -0.191  10.940  19.233  0.00  0.00    +0.000 C 
ATOM     22  C   UNL     1      -1.352  10.765  18.230  0.00  0.00    +0.000 C 
ATOM     23  C   UNL     1       0.636  12.183  18.834  0.00  0.00    +0.000 C 
ENDBRANCH  14  21
ENDBRANCH  13  17
ENDBRANCH   1  13
TORSDOF 3
ENDMDL
MODEL 6
REMARK VINA RESULT:      -7.3      4.437      8.590
REMARK  Name = 
REMARK  6 active torsions:
REMARK  status: ('A' for Active; 'I' for Inactive)
REMARK    1  A    between atoms: C_1  and  C_2
REMARK    2  A    between atoms: C_2  and  C_3
REMARK    3  A    between atoms: C_2  and  C_4
REMARK    4  A    between atoms: C_2  and  C_5
REMARK    5  A    between atoms: C_8  and  C_9
REMARK    6  A    between atoms: C_9  and  N_10
REMARK                            x       y       z     vdW  Elec       q    Type
REMARK                         _______ _______ _______ _____ _____    ______ ____
ROOT
ATOM      1  N   UNL     1       0.735   9.812  20.034  0.00  0.00    +0.000 N 
ATOM      2  C   UNL     1       0.576  10.170  21.395  0.00  0.00    +0.000 C 
ATOM      3  O   UNL     1       1.239   9.720  22.318  0.00  0.00    +0.000 OA
ATOM      4  C   UNL     1      -0.503  11.145  21.544  0.00  0.00    +0.000 A 
ATOM      5  C   UNL     1      -0.922  11.723  22.734  0.00  0.00    +0.000 A 
ATOM      6  C   UNL     1      -2.029  12.572  22.691  0.00  0.00    +0.000 A 
ATOM      7  C   UNL     1      -2.718  12.785  21.481  0.00  0.00    +0.000 A 
ATOM      8  C   UNL     1      -2.252  12.234  20.279  0.00  0.00    +0.000 A 
ATOM      9  C   UNL     1      -1.103  11.467  20.341  0.00  0.00    +0.000 A 
ATOM     10  S   UNL     1      -0.157  10.814  19.015  0.00  0.00    +0.000 S 
ATOM     11  O   UNL     1       0.693  11.885  18.551  0.00  0.00    +0.000 OA
ATOM     12  O   UNL     1      -1.030  10.044  18.172  0.00  0.00    +0.000 OA
ENDROOT
BRANCH   1  13
ATOM     13  C   UNL     1       1.914   9.063  19.600  0.00  0.00    +0.000 C 
BRANCH  13  17
ATOM     14  C   UNL     1       2.066   4.707  19.493  0.00  0.00    +0.000 A 
ATOM     15  C   UNL     1       2.402   5.483  18.373  0.00  0.00    +0.000 A 
ATOM     16  C   UNL     1       2.311   6.882  18.399  0.00  0.00    +0.000 A 
ATOM     17  C   UNL     1       1.898   7.557  19.551  0.00  0.00    +0.000 A 
ATOM     18  C   UNL     1       1.577   6.799  20.681  0.00  0.00    +0.000 A 
ATOM     19  C   UNL     1       1.650   5.400  20.647  0.00  0.00    +0.000 A 
BRANCH  14  21
ATOM     20  C   UNL     1       0.981   2.485  18.732  0.00  0.00    +0.000 C 
ATOM     21  C   UNL     1       2.137   3.168  19.498  0.00  0.00    +0.000 C 
ATOM     22  C   UNL     1       2.089   2.647  20.951  0.00  0.00    +0.000 C 
ATOM     23  C   UNL     1       3.458   2.709  18.841  0.00  0.00    +0.000 C 
ENDBRANCH  14  21
ENDBRANCH  13  17
ENDBRANCH   1  13
TORSDOF 3
ENDMDL
MODEL 7
REMARK VINA RESULT:      -7.3      0.899      1.288
REMARK  Name = 
REMARK  6 active torsions:
REMARK  status: ('A' for Active; 'I' for Inactive)
REMARK    1  A    between atoms: C_1  and  C_2
REMARK    2  A    between atoms: C_2  and  C_3
REMARK    3  A    between atoms: C_2  and  C_4
REMARK    4  A    between atoms: C_2  and  C_5
REMARK    5  A    between atoms: C_8  and  C_9
REMARK    6  A    between atoms: C_9  and  N_10
REMARK                            x       y       z     vdW  Elec       q    Type
REMARK                         _______ _______ _______ _____ _____    ______ ____
ROOT
ATOM      1  N   UNL     1       5.241   5.042  17.535  0.00  0.00    +0.000 N 
ATOM      2  C   UNL     1       4.550   4.364  16.501  0.00  0.00    +0.000 C 
ATOM      3  O   UNL     1       3.451   3.840  16.621  0.00  0.00    +0.000 OA
ATOM      4  C   UNL     1       5.340   4.366  15.271  0.00  0.00    +0.000 A 
ATOM      5  C   UNL     1       4.964   3.805  14.060  0.00  0.00    +0.000 A 
ATOM      6  C   UNL     1       5.891   3.831  13.015  0.00  0.00    +0.000 A 
ATOM      7  C   UNL     1       7.177   4.366  13.216  0.00  0.00    +0.000 A 
ATOM      8  C   UNL     1       7.524   4.974  14.432  0.00  0.00    +0.000 A 
ATOM      9  C   UNL     1       6.555   5.010  15.418  0.00  0.00    +0.000 A 
ATOM     10  S   UNL     1       6.592   5.860  16.951  0.00  0.00    +0.000 S 
ATOM     11  O   UNL     1       6.226   7.228  16.671  0.00  0.00    +0.000 OA
ATOM     12  O   UNL     1       7.778   5.465  17.660  0.00  0.00    +0.000 OA
ENDROOT
BRANCH   1  13
ATOM     13  C   UNL     1       4.549   5.404  18.772  0.00  0.00    +0.000 C 
BRANCH  13  17
ATOM     14  C   UNL     1       1.652   8.658  18.916  0.00  0.00    +0.000 A 
ATOM     15  C   UNL     1       1.788   7.747  19.974  0.00  0.00    +0.000 A 
ATOM     16  C   UNL     1       2.692   6.677  19.906  0.00  0.00    +0.000 A 
ATOM     17  C   UNL     1       3.505   6.489  18.784  0.00  0.00    +0.000 A 
ATOM     18  C   UNL     1       3.393   7.400  17.729  0.00  0.00    +0.000 A 
ATOM     19  C   UNL     1       2.476   8.457  17.792  0.00  0.00    +0.000 A 
BRANCH  14  21
ATOM     20  C   UNL     1      -0.140   9.947  20.265  0.00  0.00    +0.000 C 
ATOM     21  C   UNL     1       0.659   9.836  18.947  0.00  0.00    +0.000 C 
ATOM     22  C   UNL     1      -0.367   9.685  17.803  0.00  0.00    +0.000 C 
ATOM     23  C   UNL     1       1.427  11.165  18.762  0.00  0.00    +0.000 C 
ENDBRANCH  14  21
ENDBRANCH  13  17
ENDBRANCH   1  13
TORSDOF 3
ENDMDL
MODEL 8
REMARK VINA RESULT:      -7.3      4.322      8.586
REMARK  Name = 
REMARK  6 active torsions:
REMARK  status: ('A' for Active; 'I' for Inactive)
REMARK    1  A    between atoms: C_1  and  C_2
REMARK    2  A    between atoms: C_2  and  C_3
REMARK    3  A    between atoms: C_2  and  C_4
REMARK    4  A    between atoms: C_2  and  C_5
REMARK    5  A    between atoms: C_8  and  C_9
REMARK    6  A    between atoms: C_9  and  N_10
REMARK                            x       y       z     vdW  Elec       q    Type
REMARK                         _______ _______ _______ _____ _____    ______ ____
ROOT
ATOM      1  N   UNL     1       0.696   9.770  20.467  0.00  0.00    +0.000 N 
ATOM      2  C   UNL     1       0.227  10.144  21.750  0.00  0.00    +0.000 C 
ATOM      3  O   UNL     1       0.654   9.702  22.807  0.00  0.00    +0.000 OA
ATOM      4  C   UNL     1      -0.851  11.125  21.634  0.00  0.00    +0.000 A 
ATOM      5  C   UNL     1      -1.531  11.717  22.688  0.00  0.00    +0.000 A 
ATOM      6  C   UNL     1      -2.593  12.571  22.380  0.00  0.00    +0.000 A 
ATOM      7  C   UNL     1      -2.980  12.773  21.042  0.00  0.00    +0.000 A 
ATOM      8  C   UNL     1      -2.251  12.206  19.986  0.00  0.00    +0.000 A 
ATOM      9  C   UNL     1      -1.152  11.436  20.322  0.00  0.00    +0.000 A 
ATOM     10  S   UNL     1       0.072  10.764  19.260  0.00  0.00    +0.000 S 
ATOM     11  O   UNL     1       1.013  11.826  18.995  0.00  0.00    +0.000 OA
ATOM     12  O   UNL     1      -0.586   9.987  18.244  0.00  0.00    +0.000 OA
ENDROOT
BRANCH   1  13
ATOM     13  C   UNL     1       1.939   9.011  20.328  0.00  0.00    +0.000 C 
BRANCH  13  17
ATOM     14  C   UNL     1       2.080   4.835  19.086  0.00  0.00    +0.000 A 
ATOM     15  C   UNL     1       2.417   5.876  18.206  0.00  0.00    +0.000 A 
ATOM     16  C   UNL     1       2.329   7.219  18.598  0.00  0.00    +0.000 A 
ATOM     17  C   UNL     1       1.919   7.571  19.887  0.00  0.00    +0.000 A 
ATOM     18  C   UNL     1       1.598   6.544  20.780  0.00  0.00    +0.000 A 
ATOM     19  C   UNL     1       1.668   5.203  20.381  0.00  0.00    +0.000 A 
BRANCH  14  21
ATOM     20  C   UNL     1       3.191   2.533  19.486  0.00  0.00    +0.000 C 
ATOM     21  C   UNL     1       2.148   3.348  18.688  0.00  0.00    +0.000 C 
ATOM     22  C   UNL     1       2.519   3.222  17.195  0.00  0.00    +0.000 C 
ATOM     23  C   UNL     1       0.771   2.686  18.922  0.00  0.00    +0.000 C 
ENDBRANCH  14  21
ENDBRANCH  13  17
ENDBRANCH   1  13
TORSDOF 3
ENDMDL
MODEL 9
REMARK VINA RESULT:      -7.3      4.669      9.313
REMARK  Name = 
REMARK  6 active torsions:
REMARK  status: ('A' for Active; 'I' for Inactive)
REMARK    1  A    between atoms: C_1  and  C_2
REMARK    2  A    between atoms: C_2  and  C_3
REMARK    3  A    between atoms: C_2  and  C_4
REMARK    4  A    between atoms: C_2  and  C_5
REMARK    5  A    between atoms: C_8  and  C_9
REMARK    6  A    between atoms: C_9  and  N_10
REMARK                            x       y       z     vdW  Elec       q    Type
REMARK                         _______ _______ _______ _____ _____    ______ ____
ROOT
ATOM      1  N   UNL     1      -0.248  11.336  20.137  0.00  0.00    +0.000 N 
ATOM      2  C   UNL     1      -0.493  11.387  21.531  0.00  0.00    +0.000 C 
ATOM      3  O   UNL     1       0.269  10.968  22.391  0.00  0.00    +0.000 OA
ATOM      4  C   UNL     1      -1.793  12.000  21.800  0.00  0.00    +0.000 A 
ATOM      5  C   UNL     1      -2.346  12.221  23.052  0.00  0.00    +0.000 A 
ATOM      6  C   UNL     1      -3.641  12.743  23.109  0.00  0.00    +0.000 A 
ATOM      7  C   UNL     1      -4.365  12.982  21.926  0.00  0.00    +0.000 A 
ATOM      8  C   UNL     1      -3.772  12.800  20.668  0.00  0.00    +0.000 A 
ATOM      9  C   UNL     1      -2.460  12.365  20.646  0.00  0.00    +0.000 A 
ATOM     10  S   UNL     1      -1.378  12.235  19.271  0.00  0.00    +0.000 S 
ATOM     11  O   UNL     1      -0.847  13.557  19.040  0.00  0.00    +0.000 OA
ATOM     12  O   UNL     1      -2.017  11.428  18.267  0.00  0.00    +0.000 OA
ENDROOT
BRANCH   1  13
ATOM     13  C   UNL     1       1.087  11.015  19.633  0.00  0.00    +0.000 C 
BRANCH  13  17
ATOM     14  C   UNL     1       2.380   6.962  18.680  0.00  0.00    +0.000 A 
ATOM     15  C   UNL     1       2.273   7.952  17.691  0.00  0.00    +0.000 A 
ATOM     16  C   UNL     1       1.817   9.242  17.995  0.00  0.00    +0.000 A 
ATOM     17  C   UNL     1       1.467   9.595  19.302  0.00  0.00    +0.000 A 
ATOM     18  C   UNL     1       1.585   8.625  20.301  0.00  0.00    +0.000 A 
ATOM     19  C   UNL     1       2.023   7.331  19.992  0.00  0.00    +0.000 A 
BRANCH  14  21
ATOM     20  C   UNL     1       1.773   4.615  17.777  0.00  0.00    +0.000 C 
ATOM     21  C   UNL     1       2.862   5.529  18.383  0.00  0.00    +0.000 C 
ATOM     22  C   UNL     1       3.345   4.858  19.687  0.00  0.00    +0.000 C 
ATOM     23  C   UNL     1       4.034   5.575  17.376  0.00  0.00    +0.000 C 
ENDBRANCH  14  21
ENDBRANCH  13  17
ENDBRANCH   1  13
TORSDOF 3
ENDMDL
