MODEL 1
REMARK VINA RESULT:      -7.9      0.000      0.000
REMARK  Name = 
REMARK  5 active torsions:
REMARK  status: ('A' for Active; 'I' for Inactive)
REMARK    1  A    between atoms: O_1  and  C_2
REMARK    2  A    between atoms: C_7  and  C_8
REMARK    3  A    between atoms: C_8  and  N_9
REMARK    4  A    between atoms: N_9  and  C_10
REMARK    5  A    between atoms: C_10  and  C_11
REMARK                            x       y       z     vdW  Elec       q    Type
REMARK                         _______ _______ _______ _____ _____    ______ ____
ROOT
ATOM      1  N   UNL     1       6.226   4.217  18.495  0.00  0.00    +0.000 NA
ATOM      2  H   UNL     1       5.909   3.443  17.866  0.00  0.00    +0.000 HD
ENDROOT
BRANCH   1   3
ATOM      3  C   UNL     1       5.043   4.887  19.051  0.00  0.00    +0.000 C 
BRANCH   3   9
ATOM      4  C   UNL     1       3.779   2.665  19.175  0.00  0.00    +0.000 A 
ATOM      5  C   UNL     1       2.610   1.918  18.953  0.00  0.00    +0.000 A 
ATOM      6  C   UNL     1       1.478   2.524  18.402  0.00  0.00    +0.000 A 
ATOM      7  C   UNL     1       1.504   3.879  18.068  0.00  0.00    +0.000 A 
ATOM      8  C   UNL     1       2.661   4.632  18.284  0.00  0.00    +0.000 A 
ATOM      9  C   UNL     1       3.808   4.039  18.840  0.00  0.00    +0.000 A 
BRANCH   4  10
ATOM     10  O   UNL     1       4.866   2.067  19.707  0.00  0.00    +0.000 OA
ATOM     11  H   UNL     1       4.842   1.160  20.042  0.00  0.00    +0.000 HD
ENDBRANCH   4  10
ENDBRANCH   3   9
ENDBRANCH   1   3
BRANCH   1  12
ATOM     12  C   UNL     1       7.037   5.156  17.710  0.00  0.00    +0.000 C 
BRANCH  12  13
ATOM     13  C   UNL     1       6.918   4.841  16.249  0.00  0.00    +0.000 A 
ATOM     14  N   UNL     1       7.679   5.438  15.293  0.00  0.00    +0.000 NA
ATOM     15  C   UNL     1       7.250   4.872  14.152  0.00  0.00    +0.000 A 
ATOM     16  C   UNL     1       7.688   5.121  12.853  0.00  0.00    +0.000 A 
ATOM     17  C   UNL     1       7.077   4.398  11.809  0.00  0.00    +0.000 A 
ATOM     18  C   UNL     1       6.059   3.457  12.089  0.00  0.00    +0.000 A 
ATOM     19  C   UNL     1       5.641   3.230  13.416  0.00  0.00    +0.000 A 
ATOM     20  C   UNL     1       6.266   3.965  14.420  0.00  0.00    +0.000 A 
ATOM     21  N   UNL     1       6.048   3.934  15.742  0.00  0.00    +0.000 N 
ATOM     22  H   UNL     1       5.361   3.344  16.263  0.00  0.00    +0.000 HD
ENDBRANCH  12  13
ENDBRANCH   1  12
TORSDOF 5
ENDMDL
MODEL 2
REMARK VINA RESULT:      -7.8      0.228      1.359
REMARK  Name = 
REMARK  5 active torsions:
REMARK  status: ('A' for Active; 'I' for Inactive)
REMARK    1  A    between atoms: O_1  and  C_2
REMARK    2  A    between atoms: C_7  and  C_8
REMARK    3  A    between atoms: C_8  and  N_9
REMARK    4  A    between atoms: N_9  and  C_10
REMARK    5  A    between atoms: C_10  and  C_11
REMARK                            x       y       z     vdW  Elec       q    Type
REMARK                         _______ _______ _______ _____ _____    ______ ____
ROOT
ATOM      1  N   UNL     1       6.243   4.544  18.577  0.00  0.00    +0.000 NA
ATOM      2  H   UNL     1       6.004   3.718  17.981  0.00  0.00    +0.000 HD
ENDROOT
BRANCH   1   3
ATOM      3  C   UNL     1       5.008   5.064  19.178  0.00  0.00    +0.000 C 
BRANCH   3   9
ATOM      4  C   UNL     1       3.894   2.762  19.258  0.00  0.00    +0.000 A 
ATOM      5  C   UNL     1       2.796   1.932  18.972  0.00  0.00    +0.000 A 
ATOM      6  C   UNL     1       1.666   2.450  18.336  0.00  0.00    +0.000 A 
ATOM      7  C   UNL     1       1.621   3.799  17.980  0.00  0.00    +0.000 A 
ATOM      8  C   UNL     1       2.705   4.634  18.259  0.00  0.00    +0.000 A 
ATOM      9  C   UNL     1       3.851   4.129  18.900  0.00  0.00    +0.000 A 
BRANCH   4  10
ATOM     10  O   UNL     1       4.981   2.248  19.871  0.00  0.00    +0.000 OA
ATOM     11  H   UNL     1       4.934   1.846  20.750  0.00  0.00    +0.000 HD
ENDBRANCH   4  10
ENDBRANCH   3   9
ENDBRANCH   1   3
BRANCH   1  12
ATOM     12  C   UNL     1       6.882   5.562  17.734  0.00  0.00    +0.000 C 
BRANCH  12  13
ATOM     13  C   UNL     1       6.822   5.149  16.294  0.00  0.00    +0.000 A 
ATOM     14  N   UNL     1       5.945   4.224  15.820  0.00  0.00    +0.000 NA
ATOM     15  C   UNL     1       6.233   4.162  14.509  0.00  0.00    +0.000 A 
ATOM     16  C   UNL     1       5.636   3.362  13.536  0.00  0.00    +0.000 A 
ATOM     17  C   UNL     1       6.117   3.473  12.216  0.00  0.00    +0.000 A 
ATOM     18  C   UNL     1       7.167   4.370  11.908  0.00  0.00    +0.000 A 
ATOM     19  C   UNL     1       7.747   5.164  12.918  0.00  0.00    +0.000 A 
ATOM     20  C   UNL     1       7.247   5.025  14.211  0.00  0.00    +0.000 A 
ATOM     21  N   UNL     1       7.627   5.656  15.330  0.00  0.00    +0.000 N 
ATOM     22  H   UNL     1       8.377   6.377  15.434  0.00  0.00    +0.000 HD
ENDBRANCH  12  13
ENDBRANCH   1  12
TORSDOF 5
ENDMDL
MODEL 3
REMARK VINA RESULT:      -7.6      1.192      1.200
REMARK  Name = 
REMARK  5 active torsions:
REMARK  status: ('A' for Active; 'I' for Inactive)
REMARK    1  A    between atoms: O_1  and  C_2
REMARK    2  A    between atoms: C_7  and  C_8
REMARK    3  A    between atoms: C_8  and  N_9
REMARK    4  A    between atoms: N_9  and  C_10
REMARK    5  A    between atoms: C_10  and  C_11
REMARK                            x       y       z     vdW  Elec       q    Type
REMARK                         _______ _______ _______ _____ _____    ______ ____
ROOT
ATOM      1  N   UNL     1       4.610   5.812  18.031  0.00  0.00    +0.000 NA
ATOM      2  H   UNL     1       4.225   6.781  18.110  0.00  0.00    +0.000 HD
ENDROOT
BRANCH   1   3
ATOM      3  C   UNL     1       4.476   5.145  19.334  0.00  0.00    +0.000 C 
BRANCH   3   9
ATOM      4  C   UNL     1       3.133   3.099  18.588  0.00  0.00    +0.000 A 
ATOM      5  C   UNL     1       1.957   2.332  18.639  0.00  0.00    +0.000 A 
ATOM      6  C   UNL     1       0.889   2.731  19.445  0.00  0.00    +0.000 A 
ATOM      7  C   UNL     1       0.985   3.897  20.206  0.00  0.00    +0.000 A 
ATOM      8  C   UNL     1       2.149   4.668  20.163  0.00  0.00    +0.000 A 
ATOM      9  C   UNL     1       3.236   4.280  19.358  0.00  0.00    +0.000 A 
BRANCH   4  10
ATOM     10  O   UNL     1       4.158   2.703  17.803  0.00  0.00    +0.000 OA
ATOM     11  H   UNL     1       4.331   3.104  16.940  0.00  0.00    +0.000 HD
ENDBRANCH   4  10
ENDBRANCH   3   9
ENDBRANCH   1   3
BRANCH   1  12
ATOM     12  C   UNL     1       6.020   5.898  17.631  0.00  0.00    +0.000 C 
BRANCH  12  13
ATOM     13  C   UNL     1       6.190   5.377  16.235  0.00  0.00    +0.000 A 
ATOM     14  N   UNL     1       7.261   5.677  15.454  0.00  0.00    +0.000 NA
ATOM     15  C   UNL     1       7.010   5.015  14.311  0.00  0.00    +0.000 A 
ATOM     16  C   UNL     1       7.785   4.976  13.153  0.00  0.00    +0.000 A 
ATOM     17  C   UNL     1       7.306   4.207  12.074  0.00  0.00    +0.000 A 
ATOM     18  C   UNL     1       6.082   3.507  12.179  0.00  0.00    +0.000 A 
ATOM     19  C   UNL     1       5.324   3.570  13.366  0.00  0.00    +0.000 A 
ATOM     20  C   UNL     1       5.828   4.341  14.410  0.00  0.00    +0.000 A 
ATOM     21  N   UNL     1       5.300   4.560  15.623  0.00  0.00    +0.000 N 
ATOM     22  H   UNL     1       4.404   4.184  16.006  0.00  0.00    +0.000 HD
ENDBRANCH  12  13
ENDBRANCH   1  12
TORSDOF 5
ENDMDL
MODEL 4
REMARK VINA RESULT:      -7.6      2.125      6.078
REMARK  Name = 
REMARK  5 active torsions:
REMARK  status: ('A' for Active; 'I' for Inactive)
REMARK    1  A    between atoms: O_1  and  C_2
REMARK    2  A    between atoms: C_7  and  C_8
REMARK    3  A    between atoms: C_8  and  N_9
REMARK    4  A    between atoms: N_9  and  C_10
REMARK    5  A    between atoms: C_10  and  C_11
REMARK                            x       y       z     vdW  Elec       q    Type
REMARK                         _______ _______ _______ _____ _____    ______ ____
ROOT
ATOM      1  N   UNL     1       7.592   4.624  16.857  0.00  0.00    +0.000 NA
ATOM      2  H   UNL     1       8.631   4.586  16.972  0.00  0.00    +0.000 HD
ENDROOT
BRANCH   1   3
ATOM      3  C   UNL     1       7.269   5.613  15.820  0.00  0.00    +0.000 C 
BRANCH   3   9
ATOM      4  C   UNL     1       7.707   5.124  13.346  0.00  0.00    +0.000 A 
ATOM      5  C   UNL     1       7.355   4.463  12.157  0.00  0.00    +0.000 A 
ATOM      6  C   UNL     1       6.249   3.611  12.123  0.00  0.00    +0.000 A 
ATOM      7  C   UNL     1       5.486   3.410  13.275  0.00  0.00    +0.000 A 
ATOM      8  C   UNL     1       5.827   4.061  14.464  0.00  0.00    +0.000 A 
ATOM      9  C   UNL     1       6.938   4.922  14.516  0.00  0.00    +0.000 A 
BRANCH   4  10
ATOM     10  O   UNL     1       8.777   5.946  13.365  0.00  0.00    +0.000 OA
ATOM     11  H   UNL     1       9.461   5.917  12.681  0.00  0.00    +0.000 HD
ENDBRANCH   4  10
ENDBRANCH   3   9
ENDBRANCH   1   3
BRANCH   1  12
ATOM     12  C   UNL     1       6.990   5.000  18.142  0.00  0.00    +0.000 C 
BRANCH  12  13
ATOM     13  C   UNL     1       5.598   4.452  18.238  0.00  0.00    +0.000 A 
ATOM     14  N   UNL     1       4.497   5.144  17.844  0.00  0.00    +0.000 NA
ATOM     15  C   UNL     1       3.485   4.298  18.102  0.00  0.00    +0.000 A 
ATOM     16  C   UNL     1       2.122   4.500  17.894  0.00  0.00    +0.000 A 
ATOM     17  C   UNL     1       1.246   3.455  18.250  0.00  0.00    +0.000 A 
ATOM     18  C   UNL     1       1.750   2.252  18.795  0.00  0.00    +0.000 A 
ATOM     19  C   UNL     1       3.136   2.081  18.991  0.00  0.00    +0.000 A 
ATOM     20  C   UNL     1       3.970   3.137  18.630  0.00  0.00    +0.000 A 
ATOM     21  N   UNL     1       5.304   3.221  18.719  0.00  0.00    +0.000 N 
ATOM     22  H   UNL     1       5.967   2.498  19.080  0.00  0.00    +0.000 HD
ENDBRANCH  12  13
ENDBRANCH   1  12
TORSDOF 5
ENDMDL
MODEL 5
REMARK VINA RESULT:      -7.5      2.137      6.881
REMARK  Name = 
REMARK  5 active torsions:
REMARK  status: ('A' for Active; 'I' for Inactive)
REMARK    1  A    between atoms: O_1  and  C_2
REMARK    2  A    between atoms: C_7  and  C_8
REMARK    3  A    between atoms: C_8  and  N_9
REMARK    4  A    between atoms: N_9  and  C_10
REMARK    5  A    between atoms: C_10  and  C_11
REMARK                            x       y       z     vdW  Elec       q    Type
REMARK                         _______ _______ _______ _____ _____    ______ ____
ROOT
ATOM      1  N   UNL     1       6.092   3.607  16.651  0.00  0.00    +0.000 NA
ATOM      2  H   UNL     1       7.066   3.488  16.290  0.00  0.00    +0.000 HD
ENDROOT
BRANCH   1   3
ATOM      3  C   UNL     1       5.295   4.309  15.636  0.00  0.00    +0.000 C 
BRANCH   3   9
ATOM      4  C   UNL     1       7.199   5.020  14.081  0.00  0.00    +0.000 A 
ATOM      5  C   UNL     1       7.819   4.977  12.821  0.00  0.00    +0.000 A 
ATOM      6  C   UNL     1       7.265   4.221  11.786  0.00  0.00    +0.000 A 
ATOM      7  C   UNL     1       6.087   3.502  11.999  0.00  0.00    +0.000 A 
ATOM      8  C   UNL     1       5.461   3.537  13.248  0.00  0.00    +0.000 A 
ATOM      9  C   UNL     1       6.007   4.291  14.302  0.00  0.00    +0.000 A 
BRANCH   4  10
ATOM     10  O   UNL     1       7.745   5.755  15.073  0.00  0.00    +0.000 OA
ATOM     11  H   UNL     1       8.519   6.318  14.930  0.00  0.00    +0.000 HD
ENDBRANCH   4  10
ENDBRANCH   3   9
ENDBRANCH   1   3
BRANCH   1  12
ATOM     12  C   UNL     1       6.146   4.379  17.899  0.00  0.00    +0.000 C 
BRANCH  12  13
ATOM     13  C   UNL     1       4.935   4.089  18.735  0.00  0.00    +0.000 A 
ATOM     14  N   UNL     1       3.795   4.825  18.675  0.00  0.00    +0.000 NA
ATOM     15  C   UNL     1       2.989   4.231  19.571  0.00  0.00    +0.000 A 
ATOM     16  C   UNL     1       1.687   4.582  19.922  0.00  0.00    +0.000 A 
ATOM     17  C   UNL     1       1.042   3.800  20.901  0.00  0.00    +0.000 A 
ATOM     18  C   UNL     1       1.707   2.702  21.493  0.00  0.00    +0.000 A 
ATOM     19  C   UNL     1       3.024   2.374  21.114  0.00  0.00    +0.000 A 
ATOM     20  C   UNL     1       3.630   3.172  20.145  0.00  0.00    +0.000 A 
ATOM     21  N   UNL     1       4.861   3.070  19.625  0.00  0.00    +0.000 N 
ATOM     22  H   UNL     1       5.595   2.363  19.855  0.00  0.00    +0.000 HD
ENDBRANCH  12  13
ENDBRANCH   1  12
TORSDOF 5
ENDMDL
MODEL 6
REMARK VINA RESULT:      -7.5      2.064      6.739
REMARK  Name = 
REMARK  5 active torsions:
REMARK  status: ('A' for Active; 'I' for Inactive)
REMARK    1  A    between atoms: O_1  and  C_2
REMARK    2  A    between atoms: C_7  and  C_8
REMARK    3  A    between atoms: C_8  and  N_9
REMARK    4  A    between atoms: N_9  and  C_10
REMARK    5  A    between atoms: C_10  and  C_11
REMARK                            x       y       z     vdW  Elec       q    Type
REMARK                         _______ _______ _______ _____ _____    ______ ____
ROOT
ATOM      1  N   UNL     1       6.545   3.949  16.883  0.00  0.00    +0.000 NA
ATOM      2  H   UNL     1       7.468   4.153  16.437  0.00  0.00    +0.000 HD
ENDROOT
BRANCH   1   3
ATOM      3  C   UNL     1       5.481   4.207  15.904  0.00  0.00    +0.000 C 
BRANCH   3   9
ATOM      4  C   UNL     1       7.165   4.989  14.144  0.00  0.00    +0.000 A 
ATOM      5  C   UNL     1       7.647   4.957  12.824  0.00  0.00    +0.000 A 
ATOM      6  C   UNL     1       7.025   4.158  11.863  0.00  0.00    +0.000 A 
ATOM      7  C   UNL     1       5.917   3.383  12.211  0.00  0.00    +0.000 A 
ATOM      8  C   UNL     1       5.428   3.406  13.520  0.00  0.00    +0.000 A 
ATOM      9  C   UNL     1       6.044   4.205  14.500  0.00  0.00    +0.000 A 
BRANCH   4  10
ATOM     10  O   UNL     1       7.775   5.768  15.062  0.00  0.00    +0.000 OA
ATOM     11  H   UNL     1       7.519   5.761  15.995  0.00  0.00    +0.000 HD
ENDBRANCH   4  10
ENDBRANCH   3   9
ENDBRANCH   1   3
BRANCH   1  12
ATOM     12  C   UNL     1       6.392   4.814  18.061  0.00  0.00    +0.000 C 
BRANCH  12  13
ATOM     13  C   UNL     1       5.105   4.502  18.764  0.00  0.00    +0.000 A 
ATOM     14  N   UNL     1       4.857   3.311  19.369  0.00  0.00    +0.000 NA
ATOM     15  C   UNL     1       3.614   3.461  19.859  0.00  0.00    +0.000 A 
ATOM     16  C   UNL     1       2.855   2.536  20.574  0.00  0.00    +0.000 A 
ATOM     17  C   UNL     1       1.565   2.928  20.982  0.00  0.00    +0.000 A 
ATOM     18  C   UNL     1       1.075   4.217  20.670  0.00  0.00    +0.000 A 
ATOM     19  C   UNL     1       1.870   5.127  19.945  0.00  0.00    +0.000 A 
ATOM     20  C   UNL     1       3.139   4.703  19.557  0.00  0.00    +0.000 A 
ATOM     21  N   UNL     1       4.072   5.373  18.866  0.00  0.00    +0.000 N 
ATOM     22  H   UNL     1       4.014   6.346  18.492  0.00  0.00    +0.000 HD
ENDBRANCH  12  13
ENDBRANCH   1  12
TORSDOF 5
ENDMDL
MODEL 7
REMARK VINA RESULT:      -7.5      1.106      1.503
REMARK  Name = 
REMARK  5 active torsions:
REMARK  status: ('A' for Active; 'I' for Inactive)
REMARK    1  A    between atoms: O_1  and  C_2
REMARK    2  A    between atoms: C_7  and  C_8
REMARK    3  A    between atoms: C_8  and  N_9
REMARK    4  A    between atoms: N_9  and  C_10
REMARK    5  A    between atoms: C_10  and  C_11
REMARK                            x       y       z     vdW  Elec       q    Type
REMARK                         _______ _______ _______ _____ _____    ______ ____
ROOT
ATOM      1  N   UNL     1       6.213   4.032  18.516  0.00  0.00    +0.000 NA
ATOM      2  H   UNL     1       5.745   3.388  17.837  0.00  0.00    +0.000 HD
ENDROOT
BRANCH   1   3
ATOM      3  C   UNL     1       5.197   4.571  19.429  0.00  0.00    +0.000 C 
BRANCH   3   9
ATOM      4  C   UNL     1       3.087   4.581  17.981  0.00  0.00    +0.000 A 
ATOM      5  C   UNL     1       1.814   4.064  17.685  0.00  0.00    +0.000 A 
ATOM      6  C   UNL     1       1.275   3.029  18.451  0.00  0.00    +0.000 A 
ATOM      7  C   UNL     1       2.001   2.501  19.521  0.00  0.00    +0.000 A 
ATOM      8  C   UNL     1       3.267   3.006  19.825  0.00  0.00    +0.000 A 
ATOM      9  C   UNL     1       3.826   4.047  19.063  0.00  0.00    +0.000 A 
BRANCH   4  10
ATOM     10  O   UNL     1       3.595   5.582  17.233  0.00  0.00    +0.000 OA
ATOM     11  H   UNL     1       4.358   6.104  17.521  0.00  0.00    +0.000 HD
ENDBRANCH   4  10
ENDBRANCH   3   9
ENDBRANCH   1   3
BRANCH   1  12
ATOM     12  C   UNL     1       6.866   5.111  17.765  0.00  0.00    +0.000 C 
BRANCH  12  13
ATOM     13  C   UNL     1       6.809   4.822  16.294  0.00  0.00    +0.000 A 
ATOM     14  N   UNL     1       7.599   5.445  15.381  0.00  0.00    +0.000 NA
ATOM     15  C   UNL     1       7.223   4.896  14.214  0.00  0.00    +0.000 A 
ATOM     16  C   UNL     1       7.709   5.174  12.938  0.00  0.00    +0.000 A 
ATOM     17  C   UNL     1       7.149   4.463  11.858  0.00  0.00    +0.000 A 
ATOM     18  C   UNL     1       6.133   3.505  12.079  0.00  0.00    +0.000 A 
ATOM     19  C   UNL     1       5.665   3.249  13.384  0.00  0.00    +0.000 A 
ATOM     20  C   UNL     1       6.241   3.973  14.426  0.00  0.00    +0.000 A 
ATOM     21  N   UNL     1       5.971   3.915  15.737  0.00  0.00    +0.000 N 
ATOM     22  H   UNL     1       5.271   3.307  16.219  0.00  0.00    +0.000 HD
ENDBRANCH  12  13
ENDBRANCH   1  12
TORSDOF 5
ENDMDL
MODEL 8
REMARK VINA RESULT:      -7.4      1.401      2.130
REMARK  Name = 
REMARK  5 active torsions:
REMARK  status: ('A' for Active; 'I' for Inactive)
REMARK    1  A    between atoms: O_1  and  C_2
REMARK    2  A    between atoms: C_7  and  C_8
REMARK    3  A    between atoms: C_8  and  N_9
REMARK    4  A    between atoms: N_9  and  C_10
REMARK    5  A    between atoms: C_10  and  C_11
REMARK                            x       y       z     vdW  Elec       q    Type
REMARK                         _______ _______ _______ _____ _____    ______ ____
ROOT
ATOM      1  N   UNL     1       5.689   4.065  18.514  0.00  0.00    +0.000 NA
ATOM      2  H   UNL     1       5.127   3.613  17.757  0.00  0.00    +0.000 HD
ENDROOT
BRANCH   1   3
ATOM      3  C   UNL     1       4.799   4.916  19.316  0.00  0.00    +0.000 C 
BRANCH   3   9
ATOM      4  C   UNL     1       2.400   4.871  20.204  0.00  0.00    +0.000 A 
ATOM      5  C   UNL     1       1.181   4.193  20.380  0.00  0.00    +0.000 A 
ATOM      6  C   UNL     1       1.017   2.896  19.890  0.00  0.00    +0.000 A 
ATOM      7  C   UNL     1       2.067   2.264  19.221  0.00  0.00    +0.000 A 
ATOM      8  C   UNL     1       3.283   2.927  19.040  0.00  0.00    +0.000 A 
ATOM      9  C   UNL     1       3.465   4.235  19.526  0.00  0.00    +0.000 A 
BRANCH   4  10
ATOM     10  O   UNL     1       2.546   6.124  20.685  0.00  0.00    +0.000 OA
ATOM     11  H   UNL     1       2.055   6.440  21.457  0.00  0.00    +0.000 HD
ENDBRANCH   4  10
ENDBRANCH   3   9
ENDBRANCH   1   3
BRANCH   1  12
ATOM     12  C   UNL     1       6.756   4.861  17.896  0.00  0.00    +0.000 C 
BRANCH  12  13
ATOM     13  C   UNL     1       6.749   4.664  16.409  0.00  0.00    +0.000 A 
ATOM     14  N   UNL     1       5.899   3.814  15.775  0.00  0.00    +0.000 NA
ATOM     15  C   UNL     1       6.232   3.946  14.479  0.00  0.00    +0.000 A 
ATOM     16  C   UNL     1       5.678   3.295  13.379  0.00  0.00    +0.000 A 
ATOM     17  C   UNL     1       6.202   3.601  12.108  0.00  0.00    +0.000 A 
ATOM     18  C   UNL     1       7.251   4.539  11.972  0.00  0.00    +0.000 A 
ATOM     19  C   UNL     1       7.788   5.180  13.107  0.00  0.00    +0.000 A 
ATOM     20  C   UNL     1       7.246   4.849  14.347  0.00  0.00    +0.000 A 
ATOM     21  N   UNL     1       7.581   5.312  15.560  0.00  0.00    +0.000 N 
ATOM     22  H   UNL     1       8.319   6.014  15.794  0.00  0.00    +0.000 HD
ENDBRANCH  12  13
ENDBRANCH   1  12
TORSDOF 5
ENDMDL
MODEL 9
REMARK VINA RESULT:      -7.4      1.024      1.676
REMARK  Name = 
REMARK  5 active torsions:
REMARK  status: ('A' for Active; 'I' for Inactive)
REMARK    1  A    between atoms: O_1  and  C_2
REMARK    2  A    between atoms: C_7  and  C_8
REMARK    3  A    between atoms: C_8  and  N_9
REMARK    4  A    between atoms: N_9  and  C_10
REMARK    5  A    between atoms: C_10  and  C_11
REMARK                            x       y       z     vdW  Elec       q    Type
REMARK                         _______ _______ _______ _____ _____    ______ ____
ROOT
ATOM      1  N   UNL     1       5.485   3.738  18.104  0.00  0.00    +0.000 NA
ATOM      2  H   UNL     1       4.666   3.644  17.461  0.00  0.00    +0.000 HD
ENDROOT
BRANCH   1   3
ATOM      3  C   UNL     1       4.991   4.050  19.452  0.00  0.00    +0.000 C 
BRANCH   3   9
ATOM      4  C   UNL     1       3.073   2.378  19.186  0.00  0.00    +0.000 A 
ATOM      5  C   UNL     1       1.712   2.057  19.325  0.00  0.00    +0.000 A 
ATOM      6  C   UNL     1       0.818   2.988  19.857  0.00  0.00    +0.000 A 
ATOM      7  C   UNL     1       1.273   4.247  20.254  0.00  0.00    +0.000 A 
ATOM      8  C   UNL     1       2.624   4.578  20.120  0.00  0.00    +0.000 A 
ATOM      9  C   UNL     1       3.539   3.651  19.588  0.00  0.00    +0.000 A 
BRANCH   4  10
ATOM     10  O   UNL     1       3.926   1.469  18.668  0.00  0.00    +0.000 OA
ATOM     11  H   UNL     1       3.818   0.519  18.815  0.00  0.00    +0.000 HD
ENDBRANCH   4  10
ENDBRANCH   3   9
ENDBRANCH   1   3
BRANCH   1  12
ATOM     12  C   UNL     1       6.354   4.811  17.604  0.00  0.00    +0.000 C 
BRANCH  12  13
ATOM     13  C   UNL     1       6.536   4.676  16.122  0.00  0.00    +0.000 A 
ATOM     14  N   UNL     1       5.835   3.793  15.362  0.00  0.00    +0.000 NA
ATOM     15  C   UNL     1       6.305   4.004  14.121  0.00  0.00    +0.000 A 
ATOM     16  C   UNL     1       5.936   3.360  12.942  0.00  0.00    +0.000 A 
ATOM     17  C   UNL     1       6.580   3.757  11.753  0.00  0.00    +0.000 A 
ATOM     18  C   UNL     1       7.562   4.774  11.775  0.00  0.00    +0.000 A 
ATOM     19  C   UNL     1       7.911   5.404  12.987  0.00  0.00    +0.000 A 
ATOM     20  C   UNL     1       7.255   4.983  14.141  0.00  0.00    +0.000 A 
ATOM     21  N   UNL     1       7.409   5.418  15.400  0.00  0.00    +0.000 N 
ATOM     22  H   UNL     1       8.057   6.162  15.744  0.00  0.00    +0.000 HD
ENDBRANCH  12  13
ENDBRANCH   1  12
TORSDOF 5
ENDMDL
