MODEL 1
REMARK VINA RESULT:      -7.3      0.000      0.000
REMARK  Name = 
REMARK  10 active torsions:
REMARK  status: ('A' for Active; 'I' for Inactive)
REMARK    1  A    between atoms: C_1  and  C_2
REMARK    2  A    between atoms: C_2  and  C_3
REMARK    3  A    between atoms: N_6  and  S_7
REMARK    4  A    between atoms: S_7  and  C_10
REMARK    5  A    between atoms: C_13  and  C_14
REMARK    6  A    between atoms: C_17  and  C_18
REMARK    7  A    between atoms: N_20  and  C_21
REMARK    8  A    between atoms: N_20  and  C_22
REMARK    9  A    between atoms: C_22  and  C_23
REMARK   10  A    between atoms: C_23  and  O_25
REMARK                            x       y       z     vdW  Elec       q    Type
REMARK                         _______ _______ _______ _____ _____    ______ ____
ROOT
ATOM      1  C   UNL     1       1.642   4.680  19.236  0.00  0.00    +0.000 C 
ATOM      2  C   UNL     1       2.834   3.851  18.709  0.00  0.00    +0.000 C 
ATOM      3  O   UNL     1       3.059   2.704  18.404  0.00  0.00    +0.000 OA
ATOM      4  N   UNL     1       3.690   4.963  18.709  0.00  0.00    +0.000 N 
ATOM      5  C   UNL     1       2.738   5.783  19.536  0.00  0.00    +0.000 C 
ENDROOT
BRANCH   5   6
ATOM      6  C   UNL     1       2.366   7.215  18.969  0.00  0.00    +0.000 C 
ATOM      7  O   UNL     1       2.732   7.583  17.843  0.00  0.00    +0.000 OA
ATOM      8  N   UNL     1       1.743   8.148  19.798  0.00  0.00    +0.000 N 
ATOM      9  C   UNL     1       1.159   7.847  21.094  0.00  0.00    +0.000 C 
BRANCH   8  10
ATOM     10  C   UNL     1       1.661   9.566  19.400  0.00  0.00    +0.000 C 
BRANCH  10  11
ATOM     11  C   UNL     1       0.269   9.986  18.920  0.00  0.00    +0.000 C 
ATOM     12  O   UNL     1      -0.641  10.301  19.675  0.00  0.00    +0.000 OA
BRANCH  11  13
ATOM     13  O   UNL     1       0.079   9.882  17.583  0.00  0.00    +0.000 OA
ATOM     14  H   UNL     1       0.264  10.729  17.138  0.00  0.00    +0.000 HD
ENDBRANCH  11  13
ENDBRANCH  10  11
ENDBRANCH   8  10
ENDBRANCH   5   6
BRANCH   4  15
ATOM     15  S   UNL     1       5.351   4.767  18.752  0.00  0.00    +0.000 S 
ATOM     16  O   UNL     1       5.973   5.968  19.246  0.00  0.00    +0.000 OA
ATOM     17  O   UNL     1       5.639   3.488  19.377  0.00  0.00    +0.000 OA
BRANCH  15  18
ATOM     18  C   UNL     1       5.753   4.701  17.030  0.00  0.00    +0.000 A 
ATOM     19  C   UNL     1       4.727   4.476  16.104  0.00  0.00    +0.000 A 
ATOM     20  C   UNL     1       5.040   4.338  14.753  0.00  0.00    +0.000 A 
ATOM     21  C   UNL     1       6.373   4.427  14.332  0.00  0.00    +0.000 A 
ATOM     22  C   UNL     1       6.742   4.190  12.898  0.00  0.00    +0.000 C 
ATOM     23  C   UNL     1       7.373   4.748  15.263  0.00  0.00    +0.000 A 
ATOM     24  C   UNL     1       7.067   4.883  16.615  0.00  0.00    +0.000 A 
ENDBRANCH  15  18
ENDBRANCH   4  15
BRANCH   1  26
ATOM     25  C   UNL     1       1.797   3.547  21.472  0.00  0.00    +0.000 C 
ATOM     26  C   UNL     1       0.863   4.024  20.371  0.00  0.00    +0.000 C 
ENDBRANCH   1  26
TORSDOF 7
ENDMDL
MODEL 2
REMARK VINA RESULT:      -7.1      0.681      1.283
REMARK  Name = 
REMARK  10 active torsions:
REMARK  status: ('A' for Active; 'I' for Inactive)
REMARK    1  A    between atoms: C_1  and  C_2
REMARK    2  A    between atoms: C_2  and  C_3
REMARK    3  A    between atoms: N_6  and  S_7
REMARK    4  A    between atoms: S_7  and  C_10
REMARK    5  A    between atoms: C_13  and  C_14
REMARK    6  A    between atoms: C_17  and  C_18
REMARK    7  A    between atoms: N_20  and  C_21
REMARK    8  A    between atoms: N_20  and  C_22
REMARK    9  A    between atoms: C_22  and  C_23
REMARK   10  A    between atoms: C_23  and  O_25
REMARK                            x       y       z     vdW  Elec       q    Type
REMARK                         _______ _______ _______ _____ _____    ______ ____
ROOT
ATOM      1  C   UNL     1       1.542   4.464  19.246  0.00  0.00    +0.000 C 
ATOM      2  C   UNL     1       2.750   3.623  18.781  0.00  0.00    +0.000 C 
ATOM      3  O   UNL     1       2.975   2.478  18.470  0.00  0.00    +0.000 OA
ATOM      4  N   UNL     1       3.624   4.718  18.855  0.00  0.00    +0.000 N 
ATOM      5  C   UNL     1       2.636   5.542  19.635  0.00  0.00    +0.000 C 
ENDROOT
BRANCH   5   6
ATOM      6  C   UNL     1       2.326   6.991  19.071  0.00  0.00    +0.000 C 
ATOM      7  O   UNL     1       2.725   7.353  17.955  0.00  0.00    +0.000 OA
ATOM      8  N   UNL     1       1.721   7.939  19.896  0.00  0.00    +0.000 N 
ATOM      9  C   UNL     1       1.102   7.651  21.178  0.00  0.00    +0.000 C 
BRANCH   8  10
ATOM     10  C   UNL     1       1.698   9.362  19.506  0.00  0.00    +0.000 C 
BRANCH  10  11
ATOM     11  C   UNL     1       0.758  10.214  20.365  0.00  0.00    +0.000 C 
ATOM     12  O   UNL     1       1.106  10.779  21.392  0.00  0.00    +0.000 OA
BRANCH  11  13
ATOM     13  O   UNL     1      -0.533  10.214  19.956  0.00  0.00    +0.000 OA
ATOM     14  H   UNL     1      -0.978   9.383  20.206  0.00  0.00    +0.000 HD
ENDBRANCH  11  13
ENDBRANCH  10  11
ENDBRANCH   8  10
ENDBRANCH   5   6
BRANCH   4  15
ATOM     15  S   UNL     1       5.275   4.491  19.001  0.00  0.00    +0.000 S 
ATOM     16  O   UNL     1       5.881   5.658  19.590  0.00  0.00    +0.000 OA
ATOM     17  O   UNL     1       5.501   3.181  19.586  0.00  0.00    +0.000 OA
BRANCH  15  18
ATOM     18  C   UNL     1       5.792   4.494  17.309  0.00  0.00    +0.000 A 
ATOM     19  C   UNL     1       7.152   4.661  17.018  0.00  0.00    +0.000 A 
ATOM     20  C   UNL     1       7.563   4.749  15.690  0.00  0.00    +0.000 A 
ATOM     21  C   UNL     1       6.619   4.668  14.658  0.00  0.00    +0.000 A 
ATOM     22  C   UNL     1       7.027   4.853  13.227  0.00  0.00    +0.000 C 
ATOM     23  C   UNL     1       5.276   4.406  14.970  0.00  0.00    +0.000 A 
ATOM     24  C   UNL     1       4.858   4.321  16.295  0.00  0.00    +0.000 A 
ENDBRANCH  15  18
ENDBRANCH   4  15
BRANCH   1  26
ATOM     25  C   UNL     1       1.539   3.219  21.426  0.00  0.00    +0.000 C 
ATOM     26  C   UNL     1       0.680   3.805  20.316  0.00  0.00    +0.000 C 
ENDBRANCH   1  26
TORSDOF 7
ENDMDL
MODEL 3
REMARK VINA RESULT:      -6.8      1.496      1.626
REMARK  Name = 
REMARK  10 active torsions:
REMARK  status: ('A' for Active; 'I' for Inactive)
REMARK    1  A    between atoms: C_1  and  C_2
REMARK    2  A    between atoms: C_2  and  C_3
REMARK    3  A    between atoms: N_6  and  S_7
REMARK    4  A    between atoms: S_7  and  C_10
REMARK    5  A    between atoms: C_13  and  C_14
REMARK    6  A    between atoms: C_17  and  C_18
REMARK    7  A    between atoms: N_20  and  C_21
REMARK    8  A    between atoms: N_20  and  C_22
REMARK    9  A    between atoms: C_22  and  C_23
REMARK   10  A    between atoms: C_23  and  O_25
REMARK                            x       y       z     vdW  Elec       q    Type
REMARK                         _______ _______ _______ _____ _____    ______ ____
ROOT
ATOM      1  C   UNL     1       2.264   5.592  19.307  0.00  0.00    +0.000 C 
ATOM      2  C   UNL     1       3.530   4.934  18.716  0.00  0.00    +0.000 C 
ATOM      3  O   UNL     1       3.995   3.824  18.614  0.00  0.00    +0.000 OA
ATOM      4  N   UNL     1       4.054   6.166  18.297  0.00  0.00    +0.000 N 
ATOM      5  C   UNL     1       3.068   6.946  19.123  0.00  0.00    +0.000 C 
ENDROOT
BRANCH   5   6
ATOM      6  C   UNL     1       2.248   8.070  18.365  0.00  0.00    +0.000 C 
ATOM      7  O   UNL     1       2.404   8.284  17.155  0.00  0.00    +0.000 OA
ATOM      8  N   UNL     1       1.440   8.945  19.092  0.00  0.00    +0.000 N 
ATOM      9  C   UNL     1       1.068   8.769  20.485  0.00  0.00    +0.000 C 
BRANCH   8  10
ATOM     10  C   UNL     1       0.913  10.172  18.464  0.00  0.00    +0.000 C 
BRANCH  10  11
ATOM     11  C   UNL     1       1.908  11.336  18.469  0.00  0.00    +0.000 C 
ATOM     12  O   UNL     1       1.991  12.152  19.376  0.00  0.00    +0.000 OA
BRANCH  11  13
ATOM     13  O   UNL     1       2.632  11.462  17.331  0.00  0.00    +0.000 OA
ATOM     14  H   UNL     1       2.830  10.589  16.945  0.00  0.00    +0.000 HD
ENDBRANCH  11  13
ENDBRANCH  10  11
ENDBRANCH   8  10
ENDBRANCH   5   6
BRANCH   4  15
ATOM     15  S   UNL     1       5.693   6.351  18.015  0.00  0.00    +0.000 S 
ATOM     16  O   UNL     1       5.994   7.736  17.759  0.00  0.00    +0.000 OA
ATOM     17  O   UNL     1       6.413   5.630  19.050  0.00  0.00    +0.000 OA
BRANCH  15  18
ATOM     18  C   UNL     1       5.889   5.530  16.460  0.00  0.00    +0.000 A 
ATOM     19  C   UNL     1       5.276   6.076  15.326  0.00  0.00    +0.000 A 
ATOM     20  C   UNL     1       5.351   5.396  14.111  0.00  0.00    +0.000 A 
ATOM     21  C   UNL     1       6.038   4.178  14.033  0.00  0.00    +0.000 A 
ATOM     22  C   UNL     1       6.054   3.385  12.761  0.00  0.00    +0.000 C 
ATOM     23  C   UNL     1       6.725   3.698  15.159  0.00  0.00    +0.000 A 
ATOM     24  C   UNL     1       6.650   4.371  16.376  0.00  0.00    +0.000 A 
ENDBRANCH  15  18
ENDBRANCH   4  15
BRANCH   1  26
ATOM     25  C   UNL     1       1.088   3.800  20.613  0.00  0.00    +0.000 C 
ATOM     26  C   UNL     1       1.878   5.097  20.695  0.00  0.00    +0.000 C 
ENDBRANCH   1  26
TORSDOF 7
ENDMDL
MODEL 4
REMARK VINA RESULT:      -6.7      1.034      1.449
REMARK  Name = 
REMARK  10 active torsions:
REMARK  status: ('A' for Active; 'I' for Inactive)
REMARK    1  A    between atoms: C_1  and  C_2
REMARK    2  A    between atoms: C_2  and  C_3
REMARK    3  A    between atoms: N_6  and  S_7
REMARK    4  A    between atoms: S_7  and  C_10
REMARK    5  A    between atoms: C_13  and  C_14
REMARK    6  A    between atoms: C_17  and  C_18
REMARK    7  A    between atoms: N_20  and  C_21
REMARK    8  A    between atoms: N_20  and  C_22
REMARK    9  A    between atoms: C_22  and  C_23
REMARK   10  A    between atoms: C_23  and  O_25
REMARK                            x       y       z     vdW  Elec       q    Type
REMARK                         _______ _______ _______ _____ _____    ______ ____
ROOT
ATOM      1  C   UNL     1       2.363   5.183  19.278  0.00  0.00    +0.000 C 
ATOM      2  C   UNL     1       3.562   4.336  18.797  0.00  0.00    +0.000 C 
ATOM      3  O   UNL     1       3.885   3.173  18.783  0.00  0.00    +0.000 OA
ATOM      4  N   UNL     1       4.260   5.465  18.343  0.00  0.00    +0.000 N 
ATOM      5  C   UNL     1       3.342   6.411  19.067  0.00  0.00    +0.000 C 
ENDROOT
BRANCH   5   6
ATOM      6  C   UNL     1       2.712   7.581  18.204  0.00  0.00    +0.000 C 
ATOM      7  O   UNL     1       3.003   7.737  17.009  0.00  0.00    +0.000 OA
ATOM      8  N   UNL     1       1.927   8.554  18.825  0.00  0.00    +0.000 N 
ATOM      9  C   UNL     1       1.409   8.463  20.178  0.00  0.00    +0.000 C 
BRANCH   8  10
ATOM     10  C   UNL     1       1.586   9.802  18.116  0.00  0.00    +0.000 C 
BRANCH  10  11
ATOM     11  C   UNL     1       0.753  10.773  18.959  0.00  0.00    +0.000 C 
ATOM     12  O   UNL     1       1.240  11.624  19.690  0.00  0.00    +0.000 OA
BRANCH  11  13
ATOM     13  O   UNL     1      -0.582  10.552  18.918  0.00  0.00    +0.000 OA
ATOM     14  H   UNL     1      -0.854   9.926  19.614  0.00  0.00    +0.000 HD
ENDBRANCH  11  13
ENDBRANCH  10  11
ENDBRANCH   8  10
ENDBRANCH   5   6
BRANCH   4  15
ATOM     15  S   UNL     1       5.921   5.426  18.147  0.00  0.00    +0.000 S 
ATOM     16  O   UNL     1       6.446   6.767  18.136  0.00  0.00    +0.000 OA
ATOM     17  O   UNL     1       6.461   4.441  19.067  0.00  0.00    +0.000 OA
BRANCH  15  18
ATOM     18  C   UNL     1       6.076   4.845  16.483  0.00  0.00    +0.000 A 
ATOM     19  C   UNL     1       7.258   5.113  15.780  0.00  0.00    +0.000 A 
ATOM     20  C   UNL     1       7.361   4.735  14.443  0.00  0.00    +0.000 A 
ATOM     21  C   UNL     1       6.289   4.091  13.813  0.00  0.00    +0.000 A 
ATOM     22  C   UNL     1       6.344   3.758  12.352  0.00  0.00    +0.000 C 
ATOM     23  C   UNL     1       5.153   3.747  14.562  0.00  0.00    +0.000 A 
ATOM     24  C   UNL     1       5.041   4.126  15.897  0.00  0.00    +0.000 A 
ENDBRANCH  15  18
ENDBRANCH   4  15
BRANCH   1  26
ATOM     25  C   UNL     1       0.987   3.572  20.625  0.00  0.00    +0.000 C 
ATOM     26  C   UNL     1       1.846   4.826  20.667  0.00  0.00    +0.000 C 
ENDBRANCH   1  26
TORSDOF 7
ENDMDL
MODEL 5
REMARK VINA RESULT:      -6.7      0.968      1.168
REMARK  Name = 
REMARK  10 active torsions:
REMARK  status: ('A' for Active; 'I' for Inactive)
REMARK    1  A    between atoms: C_1  and  C_2
REMARK    2  A    between atoms: C_2  and  C_3
REMARK    3  A    between atoms: N_6  and  S_7
REMARK    4  A    between atoms: S_7  and  C_10
REMARK    5  A    between atoms: C_13  and  C_14
REMARK    6  A    between atoms: C_17  and  C_18
REMARK    7  A    between atoms: N_20  and  C_21
REMARK    8  A    between atoms: N_20  and  C_22
REMARK    9  A    between atoms: C_22  and  C_23
REMARK   10  A    between atoms: C_23  and  O_25
REMARK                            x       y       z     vdW  Elec       q    Type
REMARK                         _______ _______ _______ _____ _____    ______ ____
ROOT
ATOM      1  C   UNL     1       1.751   4.908  19.244  0.00  0.00    +0.000 C 
ATOM      2  C   UNL     1       2.963   4.188  18.613  0.00  0.00    +0.000 C 
ATOM      3  O   UNL     1       3.262   3.068  18.276  0.00  0.00    +0.000 OA
ATOM      4  N   UNL     1       3.718   5.370  18.558  0.00  0.00    +0.000 N 
ATOM      5  C   UNL     1       2.769   6.101  19.468  0.00  0.00    +0.000 C 
ENDROOT
BRANCH   5   6
ATOM      6  C   UNL     1       2.230   7.498  18.950  0.00  0.00    +0.000 C 
ATOM      7  O   UNL     1       2.449   7.891  17.795  0.00  0.00    +0.000 OA
ATOM      8  N   UNL     1       1.624   8.381  19.844  0.00  0.00    +0.000 N 
ATOM      9  C   UNL     1       1.200   8.038  21.190  0.00  0.00    +0.000 C 
BRANCH   8  10
ATOM     10  C   UNL     1       1.392   9.787  19.464  0.00  0.00    +0.000 C 
BRANCH  10  11
ATOM     11  C   UNL     1       0.477  10.539  20.437  0.00  0.00    +0.000 C 
ATOM     12  O   UNL     1      -0.744  10.512  20.375  0.00  0.00    +0.000 OA
BRANCH  11  13
ATOM     13  O   UNL     1       1.127  11.333  21.321  0.00  0.00    +0.000 OA
ATOM     14  H   UNL     1       2.072  11.405  21.095  0.00  0.00    +0.000 HD
ENDBRANCH  11  13
ENDBRANCH  10  11
ENDBRANCH   8  10
ENDBRANCH   5   6
BRANCH   4  15
ATOM     15  S   UNL     1       5.388   5.320  18.466  0.00  0.00    +0.000 S 
ATOM     16  O   UNL     1       5.929   6.644  18.632  0.00  0.00    +0.000 OA
ATOM     17  O   UNL     1       5.853   4.233  19.309  0.00  0.00    +0.000 OA
BRANCH  15  18
ATOM     18  C   UNL     1       5.645   4.915  16.763  0.00  0.00    +0.000 A 
ATOM     19  C   UNL     1       5.273   5.844  15.783  0.00  0.00    +0.000 A 
ATOM     20  C   UNL     1       5.392   5.506  14.437  0.00  0.00    +0.000 A 
ATOM     21  C   UNL     1       5.883   4.245  14.073  0.00  0.00    +0.000 A 
ATOM     22  C   UNL     1       5.933   3.827  12.634  0.00  0.00    +0.000 C 
ATOM     23  C   UNL     1       6.339   3.367  15.068  0.00  0.00    +0.000 A 
ATOM     24  C   UNL     1       6.218   3.698  16.416  0.00  0.00    +0.000 A 
ENDBRANCH  15  18
ENDBRANCH   4  15
BRANCH   1  26
ATOM     25  C   UNL     1       2.174   3.833  21.473  0.00  0.00    +0.000 C 
ATOM     26  C   UNL     1       1.125   4.181  20.429  0.00  0.00    +0.000 C 
ENDBRANCH   1  26
TORSDOF 7
ENDMDL
MODEL 6
REMARK VINA RESULT:      -6.6      0.882      1.169
REMARK  Name = 
REMARK  10 active torsions:
REMARK  status: ('A' for Active; 'I' for Inactive)
REMARK    1  A    between atoms: C_1  and  C_2
REMARK    2  A    between atoms: C_2  and  C_3
REMARK    3  A    between atoms: N_6  and  S_7
REMARK    4  A    between atoms: S_7  and  C_10
REMARK    5  A    between atoms: C_13  and  C_14
REMARK    6  A    between atoms: C_17  and  C_18
REMARK    7  A    between atoms: N_20  and  C_21
REMARK    8  A    between atoms: N_20  and  C_22
REMARK    9  A    between atoms: C_22  and  C_23
REMARK   10  A    between atoms: C_23  and  O_25
REMARK                            x       y       z     vdW  Elec       q    Type
REMARK                         _______ _______ _______ _____ _____    ______ ____
ROOT
ATOM      1  C   UNL     1       1.726   4.990  19.252  0.00  0.00    +0.000 C 
ATOM      2  C   UNL     1       2.919   4.281  18.576  0.00  0.00    +0.000 C 
ATOM      3  O   UNL     1       3.207   3.165  18.213  0.00  0.00    +0.000 OA
ATOM      4  N   UNL     1       3.673   5.463  18.518  0.00  0.00    +0.000 N 
ATOM      5  C   UNL     1       2.751   6.179  19.466  0.00  0.00    +0.000 C 
ENDROOT
BRANCH   5   6
ATOM      6  C   UNL     1       2.199   7.585  18.986  0.00  0.00    +0.000 C 
ATOM      7  O   UNL     1       2.436   8.023  17.851  0.00  0.00    +0.000 OA
ATOM      8  N   UNL     1       1.558   8.425  19.898  0.00  0.00    +0.000 N 
ATOM      9  C   UNL     1       1.112   8.027  21.221  0.00  0.00    +0.000 C 
BRANCH   8  10
ATOM     10  C   UNL     1       1.309   9.840  19.563  0.00  0.00    +0.000 C 
BRANCH  10  11
ATOM     11  C   UNL     1      -0.141  10.276  19.797  0.00  0.00    +0.000 C 
ATOM     12  O   UNL     1      -1.071   9.951  19.072  0.00  0.00    +0.000 OA
BRANCH  11  13
ATOM     13  O   UNL     1      -0.308  11.148  20.819  0.00  0.00    +0.000 OA
ATOM     14  H   UNL     1       0.519  11.257  21.324  0.00  0.00    +0.000 HD
ENDBRANCH  11  13
ENDBRANCH  10  11
ENDBRANCH   8  10
ENDBRANCH   5   6
BRANCH   4  15
ATOM     15  S   UNL     1       5.339   5.413  18.377  0.00  0.00    +0.000 S 
ATOM     16  O   UNL     1       5.880   6.744  18.480  0.00  0.00    +0.000 OA
ATOM     17  O   UNL     1       5.834   4.359  19.245  0.00  0.00    +0.000 OA
BRANCH  15  18
ATOM     18  C   UNL     1       5.547   4.948  16.683  0.00  0.00    +0.000 A 
ATOM     19  C   UNL     1       5.957   3.643  16.386  0.00  0.00    +0.000 A 
ATOM     20  C   UNL     1       6.206   3.287  15.062  0.00  0.00    +0.000 A 
ATOM     21  C   UNL     1       6.042   4.231  14.041  0.00  0.00    +0.000 A 
ATOM     22  C   UNL     1       6.392   3.897  12.622  0.00  0.00    +0.000 C 
ATOM     23  C   UNL     1       5.539   5.504  14.351  0.00  0.00    +0.000 A 
ATOM     24  C   UNL     1       5.293   5.868  15.673  0.00  0.00    +0.000 A 
ENDBRANCH  15  18
ENDBRANCH   4  15
BRANCH   1  26
ATOM     25  C   UNL     1       2.205   3.917  21.471  0.00  0.00    +0.000 C 
ATOM     26  C   UNL     1       1.134   4.246  20.443  0.00  0.00    +0.000 C 
ENDBRANCH   1  26
TORSDOF 7
ENDMDL
MODEL 7
REMARK VINA RESULT:      -6.4      1.747      2.357
REMARK  Name = 
REMARK  10 active torsions:
REMARK  status: ('A' for Active; 'I' for Inactive)
REMARK    1  A    between atoms: C_1  and  C_2
REMARK    2  A    between atoms: C_2  and  C_3
REMARK    3  A    between atoms: N_6  and  S_7
REMARK    4  A    between atoms: S_7  and  C_10
REMARK    5  A    between atoms: C_13  and  C_14
REMARK    6  A    between atoms: C_17  and  C_18
REMARK    7  A    between atoms: N_20  and  C_21
REMARK    8  A    between atoms: N_20  and  C_22
REMARK    9  A    between atoms: C_22  and  C_23
REMARK   10  A    between atoms: C_23  and  O_25
REMARK                            x       y       z     vdW  Elec       q    Type
REMARK                         _______ _______ _______ _____ _____    ______ ____
ROOT
ATOM      1  C   UNL     1       1.378   4.306  19.158  0.00  0.00    +0.000 C 
ATOM      2  C   UNL     1       2.236   3.272  18.395  0.00  0.00    +0.000 C 
ATOM      3  O   UNL     1       2.150   2.117  18.054  0.00  0.00    +0.000 OA
ATOM      4  N   UNL     1       3.287   4.185  18.210  0.00  0.00    +0.000 N 
ATOM      5  C   UNL     1       2.719   5.149  19.215  0.00  0.00    +0.000 C 
ENDROOT
BRANCH   5   6
ATOM      6  C   UNL     1       2.544   6.649  18.732  0.00  0.00    +0.000 C 
ATOM      7  O   UNL     1       2.914   7.016  17.608  0.00  0.00    +0.000 OA
ATOM      8  N   UNL     1       2.104   7.619  19.633  0.00  0.00    +0.000 N 
ATOM      9  C   UNL     1       1.536   7.341  20.941  0.00  0.00    +0.000 C 
BRANCH   8  10
ATOM     10  C   UNL     1       2.222   9.052  19.304  0.00  0.00    +0.000 C 
BRANCH  10  11
ATOM     11  C   UNL     1       0.929   9.659  18.750  0.00  0.00    +0.000 C 
ATOM     12  O   UNL     1       0.079  10.193  19.447  0.00  0.00    +0.000 OA
BRANCH  11  13
ATOM     13  O   UNL     1       0.741   9.466  17.422  0.00  0.00    +0.000 OA
ATOM     14  H   UNL     1       1.593   9.347  16.963  0.00  0.00    +0.000 HD
ENDBRANCH  11  13
ENDBRANCH  10  11
ENDBRANCH   8  10
ENDBRANCH   5   6
BRANCH   4  15
ATOM     15  S   UNL     1       4.843   3.652  17.904  0.00  0.00    +0.000 S 
ATOM     16  O   UNL     1       5.332   2.895  19.027  0.00  0.00    +0.000 OA
ATOM     17  O   UNL     1       4.868   3.074  16.571  0.00  0.00    +0.000 OA
BRANCH  15  18
ATOM     18  C   UNL     1       5.755   5.167  17.922  0.00  0.00    +0.000 A 
ATOM     19  C   UNL     1       5.536   6.101  16.902  0.00  0.00    +0.000 A 
ATOM     20  C   UNL     1       6.307   7.261  16.857  0.00  0.00    +0.000 A 
ATOM     21  C   UNL     1       7.290   7.486  17.828  0.00  0.00    +0.000 A 
ATOM     22  C   UNL     1       8.192   8.681  17.746  0.00  0.00    +0.000 C 
ATOM     23  C   UNL     1       7.427   6.584  18.895  0.00  0.00    +0.000 A 
ATOM     24  C   UNL     1       6.663   5.421  18.944  0.00  0.00    +0.000 A 
ENDBRANCH  15  18
ENDBRANCH   4  15
BRANCH   1  26
ATOM     25  C   UNL     1       1.782   3.286  21.416  0.00  0.00    +0.000 C 
ATOM     26  C   UNL     1       0.732   3.780  20.433  0.00  0.00    +0.000 C 
ENDBRANCH   1  26
TORSDOF 7
ENDMDL
MODEL 8
REMARK VINA RESULT:      -6.4      3.079      5.611
REMARK  Name = 
REMARK  10 active torsions:
REMARK  status: ('A' for Active; 'I' for Inactive)
REMARK    1  A    between atoms: C_1  and  C_2
REMARK    2  A    between atoms: C_2  and  C_3
REMARK    3  A    between atoms: N_6  and  S_7
REMARK    4  A    between atoms: S_7  and  C_10
REMARK    5  A    between atoms: C_13  and  C_14
REMARK    6  A    between atoms: C_17  and  C_18
REMARK    7  A    between atoms: N_20  and  C_21
REMARK    8  A    between atoms: N_20  and  C_22
REMARK    9  A    between atoms: C_22  and  C_23
REMARK   10  A    between atoms: C_23  and  O_25
REMARK                            x       y       z     vdW  Elec       q    Type
REMARK                         _______ _______ _______ _____ _____    ______ ____
ROOT
ATOM      1  C   UNL     1       5.333   4.398  15.171  0.00  0.00    +0.000 C 
ATOM      2  C   UNL     1       6.642   5.052  15.666  0.00  0.00    +0.000 C 
ATOM      3  O   UNL     1       7.680   5.446  15.191  0.00  0.00    +0.000 OA
ATOM      4  N   UNL     1       6.222   5.031  17.005  0.00  0.00    +0.000 N 
ATOM      5  C   UNL     1       5.084   4.094  16.706  0.00  0.00    +0.000 C 
ENDROOT
BRANCH   5   6
ATOM      6  C   UNL     1       3.651   4.541  17.215  0.00  0.00    +0.000 C 
ATOM      7  O   UNL     1       3.344   5.737  17.324  0.00  0.00    +0.000 OA
ATOM      8  N   UNL     1       2.757   3.583  17.696  0.00  0.00    +0.000 N 
ATOM      9  C   UNL     1       2.917   2.148  17.542  0.00  0.00    +0.000 C 
BRANCH   8  10
ATOM     10  C   UNL     1       1.555   3.993  18.446  0.00  0.00    +0.000 C 
BRANCH  10  11
ATOM     11  C   UNL     1       1.661   3.739  19.953  0.00  0.00    +0.000 C 
ATOM     12  O   UNL     1       0.692   3.562  20.679  0.00  0.00    +0.000 OA
BRANCH  11  13
ATOM     13  O   UNL     1       2.916   3.830  20.453  0.00  0.00    +0.000 OA
ATOM     14  H   UNL     1       3.538   3.286  19.935  0.00  0.00    +0.000 HD
ENDBRANCH  11  13
ENDBRANCH  10  11
ENDBRANCH   8  10
ENDBRANCH   5   6
BRANCH   4  15
ATOM     15  S   UNL     1       7.332   5.103  18.255  0.00  0.00    +0.000 S 
ATOM     16  O   UNL     1       6.677   4.836  19.509  0.00  0.00    +0.000 OA
ATOM     17  O   UNL     1       8.500   4.332  17.866  0.00  0.00    +0.000 OA
BRANCH  15  18
ATOM     18  C   UNL     1       7.730   6.827  18.287  0.00  0.00    +0.000 A 
ATOM     19  C   UNL     1       7.103   7.683  17.373  0.00  0.00    +0.000 A 
ATOM     20  C   UNL     1       7.468   9.027  17.331  0.00  0.00    +0.000 A 
ATOM     21  C   UNL     1       8.454   9.512  18.200  0.00  0.00    +0.000 A 
ATOM     22  C   UNL     1       8.927  10.932  18.109  0.00  0.00    +0.000 C 
ATOM     23  C   UNL     1       8.999   8.658  19.171  0.00  0.00    +0.000 A 
ATOM     24  C   UNL     1       8.642   7.313  19.216  0.00  0.00    +0.000 A 
ENDBRANCH  15  18
ENDBRANCH   4  15
BRANCH   1  26
ATOM     25  C   UNL     1       5.541   3.788  12.745  0.00  0.00    +0.000 C 
ATOM     26  C   UNL     1       5.526   3.263  14.172  0.00  0.00    +0.000 C 
ENDBRANCH   1  26
TORSDOF 7
ENDMDL
MODEL 9
REMARK VINA RESULT:      -6.3      1.720      2.520
REMARK  Name = 
REMARK  10 active torsions:
REMARK  status: ('A' for Active; 'I' for Inactive)
REMARK    1  A    between atoms: C_1  and  C_2
REMARK    2  A    between atoms: C_2  and  C_3
REMARK    3  A    between atoms: N_6  and  S_7
REMARK    4  A    between atoms: S_7  and  C_10
REMARK    5  A    between atoms: C_13  and  C_14
REMARK    6  A    between atoms: C_17  and  C_18
REMARK    7  A    between atoms: N_20  and  C_21
REMARK    8  A    between atoms: N_20  and  C_22
REMARK    9  A    between atoms: C_22  and  C_23
REMARK   10  A    between atoms: C_23  and  O_25
REMARK                            x       y       z     vdW  Elec       q    Type
REMARK                         _______ _______ _______ _____ _____    ______ ____
ROOT
ATOM      1  C   UNL     1       1.512   4.596  19.145  0.00  0.00    +0.000 C 
ATOM      2  C   UNL     1       2.307   3.405  18.566  0.00  0.00    +0.000 C 
ATOM      3  O   UNL     1       2.167   2.212  18.442  0.00  0.00    +0.000 OA
ATOM      4  N   UNL     1       3.386   4.223  18.197  0.00  0.00    +0.000 N 
ATOM      5  C   UNL     1       2.885   5.377  19.022  0.00  0.00    +0.000 C 
ENDROOT
BRANCH   5   6
ATOM      6  C   UNL     1       2.755   6.771  18.279  0.00  0.00    +0.000 C 
ATOM      7  O   UNL     1       3.123   6.917  17.104  0.00  0.00    +0.000 OA
ATOM      8  N   UNL     1       2.359   7.901  18.993  0.00  0.00    +0.000 N 
ATOM      9  C   UNL     1       1.798   7.883  20.333  0.00  0.00    +0.000 C 
BRANCH   8  10
ATOM     10  C   UNL     1       2.521   9.247  18.411  0.00  0.00    +0.000 C 
BRANCH  10  11
ATOM     11  C   UNL     1       1.192   9.960  18.143  0.00  0.00    +0.000 C 
ATOM     12  O   UNL     1       0.206   9.401  17.682  0.00  0.00    +0.000 OA
BRANCH  11  13
ATOM     13  O   UNL     1       1.216  11.297  18.357  0.00  0.00    +0.000 OA
ATOM     14  H   UNL     1       1.923  11.537  18.983  0.00  0.00    +0.000 HD
ENDBRANCH  11  13
ENDBRANCH  10  11
ENDBRANCH   8  10
ENDBRANCH   5   6
BRANCH   4  15
ATOM     15  S   UNL     1       4.911   3.577  17.961  0.00  0.00    +0.000 S 
ATOM     16  O   UNL     1       5.352   2.908  19.158  0.00  0.00    +0.000 OA
ATOM     17  O   UNL     1       4.911   2.871  16.692  0.00  0.00    +0.000 OA
BRANCH  15  18
ATOM     18  C   UNL     1       5.908   5.034  17.841  0.00  0.00    +0.000 A 
ATOM     19  C   UNL     1       6.786   5.341  18.888  0.00  0.00    +0.000 A 
ATOM     20  C   UNL     1       7.515   6.528  18.846  0.00  0.00    +0.000 A 
ATOM     21  C   UNL     1       7.368   7.401  17.760  0.00  0.00    +0.000 A 
ATOM     22  C   UNL     1       8.073   8.724  17.739  0.00  0.00    +0.000 C 
ATOM     23  C   UNL     1       6.556   7.028  16.678  0.00  0.00    +0.000 A 
ATOM     24  C   UNL     1       5.822   5.846  16.716  0.00  0.00    +0.000 A 
ENDBRANCH  15  18
ENDBRANCH   4  15
BRANCH   1  26
ATOM     25  C   UNL     1       1.838   3.587  21.422  0.00  0.00    +0.000 C 
ATOM     26  C   UNL     1       0.881   4.337  20.509  0.00  0.00    +0.000 C 
ENDBRANCH   1  26
TORSDOF 7
ENDMDL
