MODEL 1
REMARK VINA RESULT:      -9.1      0.000      0.000
REMARK  Name = 
REMARK  8 active torsions:
REMARK  status: ('A' for Active; 'I' for Inactive)
REMARK    1  A    between atoms: C_2  and  C_3
REMARK    2  A    between atoms: C_3  and  C_21
REMARK    3  A    between atoms: C_4  and  C_5
REMARK    4  A    between atoms: C_10  and  O_11
REMARK    5  A    between atoms: O_11  and  C_12
REMARK    6  A    between atoms: C_12  and  C_13
REMARK    7  A    between atoms: C_13  and  C_14
REMARK    8  A    between atoms: C_14  and  N_15
REMARK                            x       y       z     vdW  Elec       q    Type
REMARK                         _______ _______ _______ _____ _____    ______ ____
ROOT
ATOM      1  C   UNL     1       3.082   3.905  17.866  0.00  0.00    +0.000 A 
ATOM      2  C   UNL     1       2.644   2.550  17.796  0.00  0.00    +0.000 A 
ATOM      3  C   UNL     1       1.562   2.068  18.537  0.00  0.00    +0.000 A 
ATOM      4  C   UNL     1       0.866   2.914  19.372  0.00  0.00    +0.000 A 
ATOM      5  C   UNL     1       1.249   4.233  19.478  0.00  0.00    +0.000 A 
ATOM      6  C   UNL     1       2.356   4.781  18.740  0.00  0.00    +0.000 A 
ENDROOT
BRANCH   1   8
ATOM      7  C   UNL     1       5.573   4.616  17.030  0.00  0.00    +0.000 C 
ATOM      8  C   UNL     1       4.263   4.198  16.929  0.00  0.00    +0.000 C 
BRANCH   7   9
ATOM      9  C   UNL     1       6.336   4.838  15.720  0.00  0.00    +0.000 A 
ATOM     10  N   UNL     1       7.436   5.638  15.711  0.00  0.00    +0.000 NA
ATOM     11  O   UNL     1       7.964   5.659  14.527  0.00  0.00    +0.000 OA
ATOM     12  C   UNL     1       7.279   4.905  13.717  0.00  0.00    +0.000 A 
ATOM     13  C   UNL     1       7.571   4.672  12.382  0.00  0.00    +0.000 A 
ATOM     14  C   UNL     1       6.724   3.820  11.669  0.00  0.00    +0.000 A 
ATOM     15  C   UNL     1       5.612   3.233  12.312  0.00  0.00    +0.000 A 
ATOM     16  C   UNL     1       5.337   3.489  13.686  0.00  0.00    +0.000 A 
ATOM     17  C   UNL     1       6.210   4.349  14.388  0.00  0.00    +0.000 A 
ENDBRANCH   7   9
BRANCH   7  19
ATOM     18  N   UNL     1       6.699   5.071  19.326  0.00  0.00    +0.000 NA
ATOM     19  C   UNL     1       6.205   4.863  18.302  0.00  0.00    +0.000 C 
ENDBRANCH   7  19
ENDBRANCH   1   8
BRANCH   6  20
ATOM     20  O   UNL     1       2.660   6.107  18.902  0.00  0.00    +0.000 OA
BRANCH  20  21
ATOM     21  C   UNL     1       2.328   7.040  17.923  0.00  0.00    +0.000 C 
BRANCH  21  22
ATOM     22  C   UNL     1       2.521   8.496  18.314  0.00  0.00    +0.000 C 
BRANCH  22  23
ATOM     23  C   UNL     1       1.130   9.148  18.558  0.00  0.00    +0.000 C 
BRANCH  23  24
ATOM     24  N   UNL     1       0.961   9.667  19.942  0.00  0.00    +0.000 NA
ATOM     25  C   UNL     1      -0.341  10.347  20.139  0.00  0.00    +0.000 C 
ATOM     26  C   UNL     1      -0.407  10.967  21.540  0.00  0.00    +0.000 C 
ATOM     27  C   UNL     1      -0.241   9.880  22.599  0.00  0.00    +0.000 C 
ATOM     28  C   UNL     1       1.078   9.142  22.365  0.00  0.00    +0.000 C 
ATOM     29  C   UNL     1       1.122   8.578  20.934  0.00  0.00    +0.000 C 
ENDBRANCH  23  24
ENDBRANCH  22  23
ENDBRANCH  21  22
ENDBRANCH  20  21
ENDBRANCH   6  20
TORSDOF 8
ENDMDL
MODEL 2
REMARK VINA RESULT:      -8.9      0.635      1.031
REMARK  Name = 
REMARK  8 active torsions:
REMARK  status: ('A' for Active; 'I' for Inactive)
REMARK    1  A    between atoms: C_2  and  C_3
REMARK    2  A    between atoms: C_3  and  C_21
REMARK    3  A    between atoms: C_4  and  C_5
REMARK    4  A    between atoms: C_10  and  O_11
REMARK    5  A    between atoms: O_11  and  C_12
REMARK    6  A    between atoms: C_12  and  C_13
REMARK    7  A    between atoms: C_13  and  C_14
REMARK    8  A    between atoms: C_14  and  N_15
REMARK                            x       y       z     vdW  Elec       q    Type
REMARK                         _______ _______ _______ _____ _____    ______ ____
ROOT
ATOM      1  C   UNL     1       3.131   4.339  18.237  0.00  0.00    +0.000 A 
ATOM      2  C   UNL     1       2.548   3.041  18.150  0.00  0.00    +0.000 A 
ATOM      3  C   UNL     1       1.449   2.656  18.921  0.00  0.00    +0.000 A 
ATOM      4  C   UNL     1       0.879   3.545  19.804  0.00  0.00    +0.000 A 
ATOM      5  C   UNL     1       1.405   4.813  19.928  0.00  0.00    +0.000 A 
ATOM      6  C   UNL     1       2.536   5.261  19.160  0.00  0.00    +0.000 A 
ENDROOT
BRANCH   1   8
ATOM      7  C   UNL     1       5.638   4.868  17.315  0.00  0.00    +0.000 C 
ATOM      8  C   UNL     1       4.302   4.532  17.261  0.00  0.00    +0.000 C 
BRANCH   7   9
ATOM      9  C   UNL     1       6.376   5.007  15.980  0.00  0.00    +0.000 A 
ATOM     10  N   UNL     1       7.512   5.752  15.915  0.00  0.00    +0.000 NA
ATOM     11  O   UNL     1       8.009   5.707  14.719  0.00  0.00    +0.000 OA
ATOM     12  C   UNL     1       7.269   4.959  13.953  0.00  0.00    +0.000 A 
ATOM     13  C   UNL     1       7.514   4.665  12.621  0.00  0.00    +0.000 A 
ATOM     14  C   UNL     1       6.610   3.831  11.960  0.00  0.00    +0.000 A 
ATOM     15  C   UNL     1       5.488   3.321  12.650  0.00  0.00    +0.000 A 
ATOM     16  C   UNL     1       5.262   3.638  14.021  0.00  0.00    +0.000 A 
ATOM     17  C   UNL     1       6.192   4.478  14.670  0.00  0.00    +0.000 A 
ENDBRANCH   7   9
BRANCH   7  19
ATOM     18  N   UNL     1       6.870   5.280  19.565  0.00  0.00    +0.000 NA
ATOM     19  C   UNL     1       6.320   5.106  18.562  0.00  0.00    +0.000 C 
ENDBRANCH   7  19
ENDBRANCH   1   8
BRANCH   6  20
ATOM     20  O   UNL     1       2.987   6.542  19.344  0.00  0.00    +0.000 OA
BRANCH  20  21
ATOM     21  C   UNL     1       2.839   7.500  18.343  0.00  0.00    +0.000 C 
BRANCH  21  22
ATOM     22  C   UNL     1       1.486   8.193  18.296  0.00  0.00    +0.000 C 
BRANCH  22  23
ATOM     23  C   UNL     1       1.581   9.548  19.056  0.00  0.00    +0.000 C 
BRANCH  23  24
ATOM     24  N   UNL     1       0.586   9.675  20.154  0.00  0.00    +0.000 NA
ATOM     25  C   UNL     1       0.697   8.584  21.151  0.00  0.00    +0.000 C 
ATOM     26  C   UNL     1      -0.428   8.697  22.186  0.00  0.00    +0.000 C 
ATOM     27  C   UNL     1      -0.345  10.044  22.901  0.00  0.00    +0.000 C 
ATOM     28  C   UNL     1      -0.408  11.170  21.869  0.00  0.00    +0.000 C 
ATOM     29  C   UNL     1       0.707  10.992  20.823  0.00  0.00    +0.000 C 
ENDBRANCH  23  24
ENDBRANCH  22  23
ENDBRANCH  21  22
ENDBRANCH  20  21
ENDBRANCH   6  20
TORSDOF 8
ENDMDL
MODEL 3
REMARK VINA RESULT:      -8.8      1.151      1.649
REMARK  Name = 
REMARK  8 active torsions:
REMARK  status: ('A' for Active; 'I' for Inactive)
REMARK    1  A    between atoms: C_2  and  C_3
REMARK    2  A    between atoms: C_3  and  C_21
REMARK    3  A    between atoms: C_4  and  C_5
REMARK    4  A    between atoms: C_10  and  O_11
REMARK    5  A    between atoms: O_11  and  C_12
REMARK    6  A    between atoms: C_12  and  C_13
REMARK    7  A    between atoms: C_13  and  C_14
REMARK    8  A    between atoms: C_14  and  N_15
REMARK                            x       y       z     vdW  Elec       q    Type
REMARK                         _______ _______ _______ _____ _____    ______ ____
ROOT
ATOM      1  C   UNL     1       3.068   4.095  18.134  0.00  0.00    +0.000 A 
ATOM      2  C   UNL     1       2.429   2.844  17.895  0.00  0.00    +0.000 A 
ATOM      3  C   UNL     1       1.312   2.417  18.618  0.00  0.00    +0.000 A 
ATOM      4  C   UNL     1       0.780   3.219  19.603  0.00  0.00    +0.000 A 
ATOM      5  C   UNL     1       1.361   4.439  19.875  0.00  0.00    +0.000 A 
ATOM      6  C   UNL     1       2.512   4.926  19.163  0.00  0.00    +0.000 A 
ENDROOT
BRANCH   1   8
ATOM      7  C   UNL     1       5.566   4.750  17.271  0.00  0.00    +0.000 C 
ATOM      8  C   UNL     1       4.249   4.352  17.186  0.00  0.00    +0.000 C 
BRANCH   7   9
ATOM      9  C   UNL     1       6.325   4.935  15.953  0.00  0.00    +0.000 A 
ATOM     10  N   UNL     1       7.443   5.708  15.925  0.00  0.00    +0.000 NA
ATOM     11  O   UNL     1       7.963   5.700  14.738  0.00  0.00    +0.000 OA
ATOM     12  C   UNL     1       7.254   4.953  13.942  0.00  0.00    +0.000 A 
ATOM     13  C   UNL     1       7.530   4.695  12.608  0.00  0.00    +0.000 A 
ATOM     14  C   UNL     1       6.657   3.855  11.913  0.00  0.00    +0.000 A 
ATOM     15  C   UNL     1       5.535   3.304  12.571  0.00  0.00    +0.000 A 
ATOM     16  C   UNL     1       5.277   3.585  13.944  0.00  0.00    +0.000 A 
ATOM     17  C   UNL     1       6.176   4.432  14.628  0.00  0.00    +0.000 A 
ENDBRANCH   7   9
BRANCH   7  19
ATOM     18  N   UNL     1       6.718   5.231  19.549  0.00  0.00    +0.000 NA
ATOM     19  C   UNL     1       6.210   5.008  18.534  0.00  0.00    +0.000 C 
ENDBRANCH   7  19
ENDBRANCH   1   8
BRANCH   6  20
ATOM     20  O   UNL     1       3.019   6.154  19.497  0.00  0.00    +0.000 OA
BRANCH  20  21
ATOM     21  C   UNL     1       2.172   7.239  19.716  0.00  0.00    +0.000 C 
BRANCH  21  22
ATOM     22  C   UNL     1       1.924   8.128  18.508  0.00  0.00    +0.000 C 
BRANCH  22  23
ATOM     23  C   UNL     1       1.708   9.593  18.989  0.00  0.00    +0.000 C 
BRANCH  23  24
ATOM     24  N   UNL     1       0.273   9.961  19.118  0.00  0.00    +0.000 NA
ATOM     25  C   UNL     1       0.083  11.313  19.696  0.00  0.00    +0.000 C 
ATOM     26  C   UNL     1      -1.408  11.587  19.920  0.00  0.00    +0.000 C 
ATOM     27  C   UNL     1      -2.160  11.496  18.594  0.00  0.00    +0.000 C 
ATOM     28  C   UNL     1      -1.923  10.120  17.970  0.00  0.00    +0.000 C 
ATOM     29  C   UNL     1      -0.414   9.866  17.808  0.00  0.00    +0.000 C 
ENDBRANCH  23  24
ENDBRANCH  22  23
ENDBRANCH  21  22
ENDBRANCH  20  21
ENDBRANCH   6  20
TORSDOF 8
ENDMDL
MODEL 4
REMARK VINA RESULT:      -8.8      0.854      1.248
REMARK  Name = 
REMARK  8 active torsions:
REMARK  status: ('A' for Active; 'I' for Inactive)
REMARK    1  A    between atoms: C_2  and  C_3
REMARK    2  A    between atoms: C_3  and  C_21
REMARK    3  A    between atoms: C_4  and  C_5
REMARK    4  A    between atoms: C_10  and  O_11
REMARK    5  A    between atoms: O_11  and  C_12
REMARK    6  A    between atoms: C_12  and  C_13
REMARK    7  A    between atoms: C_13  and  C_14
REMARK    8  A    between atoms: C_14  and  N_15
REMARK                            x       y       z     vdW  Elec       q    Type
REMARK                         _______ _______ _______ _____ _____    ______ ____
ROOT
ATOM      1  C   UNL     1       3.059   3.801  17.926  0.00  0.00    +0.000 A 
ATOM      2  C   UNL     1       2.749   2.409  17.922  0.00  0.00    +0.000 A 
ATOM      3  C   UNL     1       1.678   1.874  18.641  0.00  0.00    +0.000 A 
ATOM      4  C   UNL     1       0.865   2.699  19.387  0.00  0.00    +0.000 A 
ATOM      5  C   UNL     1       1.122   4.052  19.425  0.00  0.00    +0.000 A 
ATOM      6  C   UNL     1       2.212   4.656  18.706  0.00  0.00    +0.000 A 
ENDROOT
BRANCH   1   8
ATOM      7  C   UNL     1       5.539   4.633  17.171  0.00  0.00    +0.000 C 
ATOM      8  C   UNL     1       4.257   4.146  17.029  0.00  0.00    +0.000 C 
BRANCH   7   9
ATOM      9  C   UNL     1       6.337   4.882  15.887  0.00  0.00    +0.000 A 
ATOM     10  N   UNL     1       7.445   5.669  15.927  0.00  0.00    +0.000 NA
ATOM     11  O   UNL     1       8.003   5.716  14.758  0.00  0.00    +0.000 OA
ATOM     12  C   UNL     1       7.330   4.993  13.910  0.00  0.00    +0.000 A 
ATOM     13  C   UNL     1       7.652   4.792  12.577  0.00  0.00    +0.000 A 
ATOM     14  C   UNL     1       6.814   3.970  11.820  0.00  0.00    +0.000 A 
ATOM     15  C   UNL     1       5.680   3.379  12.419  0.00  0.00    +0.000 A 
ATOM     16  C   UNL     1       5.374   3.601  13.793  0.00  0.00    +0.000 A 
ATOM     17  C   UNL     1       6.238   4.431  14.539  0.00  0.00    +0.000 A 
ENDBRANCH   7   9
BRANCH   7  19
ATOM     18  N   UNL     1       6.582   5.169  19.489  0.00  0.00    +0.000 NA
ATOM     19  C   UNL     1       6.111   4.925  18.462  0.00  0.00    +0.000 C 
ENDBRANCH   7  19
ENDBRANCH   1   8
BRANCH   6  20
ATOM     20  O   UNL     1       2.387   6.011  18.797  0.00  0.00    +0.000 OA
BRANCH  20  21
ATOM     21  C   UNL     1       2.394   6.648  20.036  0.00  0.00    +0.000 C 
BRANCH  21  22
ATOM     22  C   UNL     1       1.670   7.983  20.090  0.00  0.00    +0.000 C 
BRANCH  22  23
ATOM     23  C   UNL     1       1.167   8.232  21.542  0.00  0.00    +0.000 C 
BRANCH  23  24
ATOM     24  N   UNL     1       0.664   9.615  21.758  0.00  0.00    +0.000 NA
ATOM     25  C   UNL     1       0.346  10.310  20.488  0.00  0.00    +0.000 C 
ATOM     26  C   UNL     1      -0.048  11.765  20.765  0.00  0.00    +0.000 C 
ATOM     27  C   UNL     1      -1.267  11.810  21.683  0.00  0.00    +0.000 C 
ATOM     28  C   UNL     1      -0.959  11.049  22.973  0.00  0.00    +0.000 C 
ATOM     29  C   UNL     1      -0.523   9.609  22.647  0.00  0.00    +0.000 C 
ENDBRANCH  23  24
ENDBRANCH  22  23
ENDBRANCH  21  22
ENDBRANCH  20  21
ENDBRANCH   6  20
TORSDOF 8
ENDMDL
MODEL 5
REMARK VINA RESULT:      -8.8      0.896      1.390
REMARK  Name = 
REMARK  8 active torsions:
REMARK  status: ('A' for Active; 'I' for Inactive)
REMARK    1  A    between atoms: C_2  and  C_3
REMARK    2  A    between atoms: C_3  and  C_21
REMARK    3  A    between atoms: C_4  and  C_5
REMARK    4  A    between atoms: C_10  and  O_11
REMARK    5  A    between atoms: O_11  and  C_12
REMARK    6  A    between atoms: C_12  and  C_13
REMARK    7  A    between atoms: C_13  and  C_14
REMARK    8  A    between atoms: C_14  and  N_15
REMARK                            x       y       z     vdW  Elec       q    Type
REMARK                         _______ _______ _______ _____ _____    ______ ____
ROOT
ATOM      1  C   UNL     1       3.102   4.078  18.176  0.00  0.00    +0.000 A 
ATOM      2  C   UNL     1       2.523   2.793  17.957  0.00  0.00    +0.000 A 
ATOM      3  C   UNL     1       1.422   2.329  18.682  0.00  0.00    +0.000 A 
ATOM      4  C   UNL     1       0.847   3.125  19.648  0.00  0.00    +0.000 A 
ATOM      5  C   UNL     1       1.369   4.375  19.900  0.00  0.00    +0.000 A 
ATOM      6  C   UNL     1       2.502   4.901  19.185  0.00  0.00    +0.000 A 
ENDROOT
BRANCH   1   8
ATOM      7  C   UNL     1       5.580   4.806  17.315  0.00  0.00    +0.000 C 
ATOM      8  C   UNL     1       4.275   4.370  17.228  0.00  0.00    +0.000 C 
BRANCH   7   9
ATOM      9  C   UNL     1       6.334   5.016  15.998  0.00  0.00    +0.000 A 
ATOM     10  N   UNL     1       7.416   5.839  15.969  0.00  0.00    +0.000 NA
ATOM     11  O   UNL     1       7.940   5.847  14.782  0.00  0.00    +0.000 OA
ATOM     12  C   UNL     1       7.268   5.062  13.990  0.00  0.00    +0.000 A 
ATOM     13  C   UNL     1       7.560   4.807  12.660  0.00  0.00    +0.000 A 
ATOM     14  C   UNL     1       6.730   3.923  11.968  0.00  0.00    +0.000 A 
ATOM     15  C   UNL     1       5.632   3.326  12.627  0.00  0.00    +0.000 A 
ATOM     16  C   UNL     1       5.357   3.605  13.997  0.00  0.00    +0.000 A 
ATOM     17  C   UNL     1       6.214   4.497  14.677  0.00  0.00    +0.000 A 
ENDBRANCH   7   9
BRANCH   7  19
ATOM     18  N   UNL     1       6.741   5.298  19.586  0.00  0.00    +0.000 NA
ATOM     19  C   UNL     1       6.216   5.080  18.580  0.00  0.00    +0.000 C 
ENDBRANCH   7  19
ENDBRANCH   1   8
BRANCH   6  20
ATOM     20  O   UNL     1       2.948   6.157  19.497  0.00  0.00    +0.000 OA
BRANCH  20  21
ATOM     21  C   UNL     1       2.079   7.246  19.488  0.00  0.00    +0.000 C 
BRANCH  21  22
ATOM     22  C   UNL     1       1.919   7.968  20.817  0.00  0.00    +0.000 C 
BRANCH  22  23
ATOM     23  C   UNL     1       0.466   7.764  21.335  0.00  0.00    +0.000 C 
BRANCH  23  24
ATOM     24  N   UNL     1      -0.269   9.042  21.534  0.00  0.00    +0.000 NA
ATOM     25  C   UNL     1      -0.250   9.496  22.944  0.00  0.00    +0.000 C 
ATOM     26  C   UNL     1      -1.123  10.745  23.110  0.00  0.00    +0.000 C 
ATOM     27  C   UNL     1      -0.605  11.866  22.212  0.00  0.00    +0.000 C 
ATOM     28  C   UNL     1      -0.576  11.381  20.762  0.00  0.00    +0.000 C 
ATOM     29  C   UNL     1       0.271  10.101  20.649  0.00  0.00    +0.000 C 
ENDBRANCH  23  24
ENDBRANCH  22  23
ENDBRANCH  21  22
ENDBRANCH  20  21
ENDBRANCH   6  20
TORSDOF 8
ENDMDL
MODEL 6
REMARK VINA RESULT:      -8.7      0.885      1.178
REMARK  Name = 
REMARK  8 active torsions:
REMARK  status: ('A' for Active; 'I' for Inactive)
REMARK    1  A    between atoms: C_2  and  C_3
REMARK    2  A    between atoms: C_3  and  C_21
REMARK    3  A    between atoms: C_4  and  C_5
REMARK    4  A    between atoms: C_10  and  O_11
REMARK    5  A    between atoms: O_11  and  C_12
REMARK    6  A    between atoms: C_12  and  C_13
REMARK    7  A    between atoms: C_13  and  C_14
REMARK    8  A    between atoms: C_14  and  N_15
REMARK                            x       y       z     vdW  Elec       q    Type
REMARK                         _______ _______ _______ _____ _____    ______ ____
ROOT
ATOM      1  C   UNL     1       3.083   3.954  18.105  0.00  0.00    +0.000 A 
ATOM      2  C   UNL     1       2.387   2.757  17.767  0.00  0.00    +0.000 A 
ATOM      3  C   UNL     1       1.266   2.312  18.473  0.00  0.00    +0.000 A 
ATOM      4  C   UNL     1       0.786   3.042  19.538  0.00  0.00    +0.000 A 
ATOM      5  C   UNL     1       1.424   4.207  19.907  0.00  0.00    +0.000 A 
ATOM      6  C   UNL     1       2.582   4.709  19.217  0.00  0.00    +0.000 A 
ENDROOT
BRANCH   1   8
ATOM      7  C   UNL     1       5.561   4.681  17.245  0.00  0.00    +0.000 C 
ATOM      8  C   UNL     1       4.256   4.248  17.157  0.00  0.00    +0.000 C 
BRANCH   7   9
ATOM      9  C   UNL     1       6.315   4.894  15.927  0.00  0.00    +0.000 A 
ATOM     10  N   UNL     1       7.421   5.685  15.907  0.00  0.00    +0.000 NA
ATOM     11  O   UNL     1       7.939   5.700  14.719  0.00  0.00    +0.000 OA
ATOM     12  C   UNL     1       7.240   4.950  13.916  0.00  0.00    +0.000 A 
ATOM     13  C   UNL     1       7.517   4.712  12.579  0.00  0.00    +0.000 A 
ATOM     14  C   UNL     1       6.657   3.867  11.875  0.00  0.00    +0.000 A 
ATOM     15  C   UNL     1       5.545   3.291  12.528  0.00  0.00    +0.000 A 
ATOM     16  C   UNL     1       5.285   3.552  13.905  0.00  0.00    +0.000 A 
ATOM     17  C   UNL     1       6.172   4.404  14.597  0.00  0.00    +0.000 A 
ENDBRANCH   7   9
BRANCH   7  19
ATOM     18  N   UNL     1       6.697   5.159  19.532  0.00  0.00    +0.000 NA
ATOM     19  C   UNL     1       6.198   4.952  18.509  0.00  0.00    +0.000 C 
ENDBRANCH   7  19
ENDBRANCH   1   8
BRANCH   6  20
ATOM     20  O   UNL     1       3.146   5.880  19.649  0.00  0.00    +0.000 OA
BRANCH  20  21
ATOM     21  C   UNL     1       3.116   7.022  18.852  0.00  0.00    +0.000 C 
BRANCH  21  22
ATOM     22  C   UNL     1       1.730   7.552  18.520  0.00  0.00    +0.000 C 
BRANCH  22  23
ATOM     23  C   UNL     1       1.867   8.949  17.848  0.00  0.00    +0.000 C 
BRANCH  23  24
ATOM     24  N   UNL     1       1.065  10.005  18.524  0.00  0.00    +0.000 NA
ATOM     25  C   UNL     1      -0.285  10.159  17.932  0.00  0.00    +0.000 C 
ATOM     26  C   UNL     1      -1.016  11.339  18.583  0.00  0.00    +0.000 C 
ATOM     27  C   UNL     1      -1.148  11.104  20.087  0.00  0.00    +0.000 C 
ATOM     28  C   UNL     1       0.241  10.893  20.691  0.00  0.00    +0.000 C 
ATOM     29  C   UNL     1       0.957   9.733  19.977  0.00  0.00    +0.000 C 
ENDBRANCH  23  24
ENDBRANCH  22  23
ENDBRANCH  21  22
ENDBRANCH  20  21
ENDBRANCH   6  20
TORSDOF 8
ENDMDL
MODEL 7
REMARK VINA RESULT:      -8.6      0.807      1.452
REMARK  Name = 
REMARK  8 active torsions:
REMARK  status: ('A' for Active; 'I' for Inactive)
REMARK    1  A    between atoms: C_2  and  C_3
REMARK    2  A    between atoms: C_3  and  C_21
REMARK    3  A    between atoms: C_4  and  C_5
REMARK    4  A    between atoms: C_10  and  O_11
REMARK    5  A    between atoms: O_11  and  C_12
REMARK    6  A    between atoms: C_12  and  C_13
REMARK    7  A    between atoms: C_13  and  C_14
REMARK    8  A    between atoms: C_14  and  N_15
REMARK                            x       y       z     vdW  Elec       q    Type
REMARK                         _______ _______ _______ _____ _____    ______ ____
ROOT
ATOM      1  C   UNL     1       3.073   3.686  17.826  0.00  0.00    +0.000 A 
ATOM      2  C   UNL     1       2.854   2.280  17.922  0.00  0.00    +0.000 A 
ATOM      3  C   UNL     1       1.809   1.730  18.669  0.00  0.00    +0.000 A 
ATOM      4  C   UNL     1       0.935   2.552  19.344  0.00  0.00    +0.000 A 
ATOM      5  C   UNL     1       1.102   3.919  19.284  0.00  0.00    +0.000 A 
ATOM      6  C   UNL     1       2.161   4.538  18.533  0.00  0.00    +0.000 A 
ENDROOT
BRANCH   1   8
ATOM      7  C   UNL     1       5.545   4.520  17.048  0.00  0.00    +0.000 C 
ATOM      8  C   UNL     1       4.258   4.043  16.916  0.00  0.00    +0.000 C 
BRANCH   7   9
ATOM      9  C   UNL     1       6.324   4.789  15.756  0.00  0.00    +0.000 A 
ATOM     10  N   UNL     1       7.408   5.610  15.785  0.00  0.00    +0.000 NA
ATOM     11  O   UNL     1       7.954   5.671  14.611  0.00  0.00    +0.000 OA
ATOM     12  C   UNL     1       7.296   4.925  13.771  0.00  0.00    +0.000 A 
ATOM     13  C   UNL     1       7.613   4.730  12.435  0.00  0.00    +0.000 A 
ATOM     14  C   UNL     1       6.794   3.881  11.688  0.00  0.00    +0.000 A 
ATOM     15  C   UNL     1       5.683   3.257  12.298  0.00  0.00    +0.000 A 
ATOM     16  C   UNL     1       5.382   3.474  13.674  0.00  0.00    +0.000 A 
ATOM     17  C   UNL     1       6.227   4.331  14.411  0.00  0.00    +0.000 A 
ENDBRANCH   7   9
BRANCH   7  19
ATOM     18  N   UNL     1       6.629   4.993  19.361  0.00  0.00    +0.000 NA
ATOM     19  C   UNL     1       6.138   4.786  18.335  0.00  0.00    +0.000 C 
ENDBRANCH   7  19
ENDBRANCH   1   8
BRANCH   6  20
ATOM     20  O   UNL     1       2.247   5.905  18.525  0.00  0.00    +0.000 OA
BRANCH  20  21
ATOM     21  C   UNL     1       2.570   6.607  19.684  0.00  0.00    +0.000 C 
BRANCH  21  22
ATOM     22  C   UNL     1       1.396   6.955  20.587  0.00  0.00    +0.000 C 
BRANCH  22  23
ATOM     23  C   UNL     1       1.544   8.427  21.069  0.00  0.00    +0.000 C 
BRANCH  23  24
ATOM     24  N   UNL     1       0.476   9.323  20.550  0.00  0.00    +0.000 NA
ATOM     25  C   UNL     1       0.320  10.552  21.364  0.00  0.00    +0.000 C 
ATOM     26  C   UNL     1      -0.871  11.373  20.858  0.00  0.00    +0.000 C 
ATOM     27  C   UNL     1      -0.654  11.760  19.397  0.00  0.00    +0.000 C 
ATOM     28  C   UNL     1      -0.441  10.496  18.563  0.00  0.00    +0.000 C 
ATOM     29  C   UNL     1       0.732   9.679  19.134  0.00  0.00    +0.000 C 
ENDBRANCH  23  24
ENDBRANCH  22  23
ENDBRANCH  21  22
ENDBRANCH  20  21
ENDBRANCH   6  20
TORSDOF 8
ENDMDL
MODEL 8
REMARK VINA RESULT:      -8.5      1.319      1.738
REMARK  Name = 
REMARK  8 active torsions:
REMARK  status: ('A' for Active; 'I' for Inactive)
REMARK    1  A    between atoms: C_2  and  C_3
REMARK    2  A    between atoms: C_3  and  C_21
REMARK    3  A    between atoms: C_4  and  C_5
REMARK    4  A    between atoms: C_10  and  O_11
REMARK    5  A    between atoms: O_11  and  C_12
REMARK    6  A    between atoms: C_12  and  C_13
REMARK    7  A    between atoms: C_13  and  C_14
REMARK    8  A    between atoms: C_14  and  N_15
REMARK                            x       y       z     vdW  Elec       q    Type
REMARK                         _______ _______ _______ _____ _____    ______ ____
ROOT
ATOM      1  C   UNL     1       3.008   4.139  18.120  0.00  0.00    +0.000 A 
ATOM      2  C   UNL     1       2.322   2.920  17.843  0.00  0.00    +0.000 A 
ATOM      3  C   UNL     1       1.192   2.512  18.556  0.00  0.00    +0.000 A 
ATOM      4  C   UNL     1       0.693   3.301  19.568  0.00  0.00    +0.000 A 
ATOM      5  C   UNL     1       1.319   4.489  19.878  0.00  0.00    +0.000 A 
ATOM      6  C   UNL     1       2.486   4.955  19.177  0.00  0.00    +0.000 A 
ENDROOT
BRANCH   1   8
ATOM      7  C   UNL     1       5.514   4.771  17.264  0.00  0.00    +0.000 C 
ATOM      8  C   UNL     1       4.195   4.382  17.175  0.00  0.00    +0.000 C 
BRANCH   7   9
ATOM      9  C   UNL     1       6.280   4.944  15.949  0.00  0.00    +0.000 A 
ATOM     10  N   UNL     1       7.403   5.711  15.922  0.00  0.00    +0.000 NA
ATOM     11  O   UNL     1       7.928   5.693  14.737  0.00  0.00    +0.000 OA
ATOM     12  C   UNL     1       7.219   4.944  13.943  0.00  0.00    +0.000 A 
ATOM     13  C   UNL     1       7.500   4.676  12.612  0.00  0.00    +0.000 A 
ATOM     14  C   UNL     1       6.627   3.835  11.918  0.00  0.00    +0.000 A 
ATOM     15  C   UNL     1       5.499   3.295  12.574  0.00  0.00    +0.000 A 
ATOM     16  C   UNL     1       5.236   3.586  13.944  0.00  0.00    +0.000 A 
ATOM     17  C   UNL     1       6.136   4.433  14.627  0.00  0.00    +0.000 A 
ENDBRANCH   7   9
BRANCH   7  19
ATOM     18  N   UNL     1       6.677   5.226  19.542  0.00  0.00    +0.000 NA
ATOM     19  C   UNL     1       6.154   5.031  18.529  0.00  0.00    +0.000 C 
ENDBRANCH   7  19
ENDBRANCH   1   8
BRANCH   6  20
ATOM     20  O   UNL     1       3.039   6.152  19.548  0.00  0.00    +0.000 OA
BRANCH  20  21
ATOM     21  C   UNL     1       2.289   7.326  19.512  0.00  0.00    +0.000 C 
BRANCH  21  22
ATOM     22  C   UNL     1       2.322   8.084  18.194  0.00  0.00    +0.000 C 
BRANCH  22  23
ATOM     23  C   UNL     1       0.924   8.714  17.933  0.00  0.00    +0.000 C 
BRANCH  23  24
ATOM     24  N   UNL     1       0.939  10.201  17.949  0.00  0.00    +0.000 NA
ATOM     25  C   UNL     1      -0.046  10.769  18.900  0.00  0.00    +0.000 C 
ATOM     26  C   UNL     1      -0.072  12.297  18.784  0.00  0.00    +0.000 C 
ATOM     27  C   UNL     1       1.311  12.867  19.090  0.00  0.00    +0.000 C 
ATOM     28  C   UNL     1       2.337  12.243  18.143  0.00  0.00    +0.000 C 
ATOM     29  C   UNL     1       2.297  10.709  18.257  0.00  0.00    +0.000 C 
ENDBRANCH  23  24
ENDBRANCH  22  23
ENDBRANCH  21  22
ENDBRANCH  20  21
ENDBRANCH   6  20
TORSDOF 8
ENDMDL
MODEL 9
REMARK VINA RESULT:      -8.3      1.926      4.887
REMARK  Name = 
REMARK  8 active torsions:
REMARK  status: ('A' for Active; 'I' for Inactive)
REMARK    1  A    between atoms: C_2  and  C_3
REMARK    2  A    between atoms: C_3  and  C_21
REMARK    3  A    between atoms: C_4  and  C_5
REMARK    4  A    between atoms: C_10  and  O_11
REMARK    5  A    between atoms: O_11  and  C_12
REMARK    6  A    between atoms: C_12  and  C_13
REMARK    7  A    between atoms: C_13  and  C_14
REMARK    8  A    between atoms: C_14  and  N_15
REMARK                            x       y       z     vdW  Elec       q    Type
REMARK                         _______ _______ _______ _____ _____    ______ ____
ROOT
ATOM      1  C   UNL     1       3.067   7.538  18.073  0.00  0.00    +0.000 A 
ATOM      2  C   UNL     1       2.652   8.798  17.551  0.00  0.00    +0.000 A 
ATOM      3  C   UNL     1       1.706   9.604  18.190  0.00  0.00    +0.000 A 
ATOM      4  C   UNL     1       1.140   9.196  19.377  0.00  0.00    +0.000 A 
ATOM      5  C   UNL     1       1.506   7.985  19.925  0.00  0.00    +0.000 A 
ATOM      6  C   UNL     1       2.473   7.116  19.308  0.00  0.00    +0.000 A 
ENDROOT
BRANCH   1   8
ATOM      7  C   UNL     1       5.198   5.992  17.382  0.00  0.00    +0.000 C 
ATOM      8  C   UNL     1       4.143   6.862  17.211  0.00  0.00    +0.000 C 
BRANCH   7   9
ATOM      9  C   UNL     1       6.051   5.678  16.148  0.00  0.00    +0.000 A 
ATOM     10  N   UNL     1       7.337   6.116  16.092  0.00  0.00    +0.000 NA
ATOM     11  O   UNL     1       7.900   5.711  14.997  0.00  0.00    +0.000 OA
ATOM     12  C   UNL     1       7.060   5.007  14.294  0.00  0.00    +0.000 A 
ATOM     13  C   UNL     1       7.329   4.395  13.080  0.00  0.00    +0.000 A 
ATOM     14  C   UNL     1       6.301   3.668  12.475  0.00  0.00    +0.000 A 
ATOM     15  C   UNL     1       5.038   3.582  13.100  0.00  0.00    +0.000 A 
ATOM     16  C   UNL     1       4.790   4.220  14.349  0.00  0.00    +0.000 A 
ATOM     17  C   UNL     1       5.845   4.944  14.945  0.00  0.00    +0.000 A 
ENDBRANCH   7   9
BRANCH   7  19
ATOM     18  N   UNL     1       5.777   4.964  19.697  0.00  0.00    +0.000 NA
ATOM     19  C   UNL     1       5.516   5.413  18.664  0.00  0.00    +0.000 C 
ENDBRANCH   7  19
ENDBRANCH   1   8
BRANCH   6  20
ATOM     20  O   UNL     1       2.781   5.934  19.928  0.00  0.00    +0.000 OA
BRANCH  20  21
ATOM     21  C   UNL     1       2.150   5.565  21.114  0.00  0.00    +0.000 C 
BRANCH  21  22
ATOM     22  C   UNL     1       2.036   4.069  21.357  0.00  0.00    +0.000 C 
BRANCH  22  23
ATOM     23  C   UNL     1       1.063   3.455  20.309  0.00  0.00    +0.000 C 
BRANCH  23  24
ATOM     24  N   UNL     1       1.764   2.795  19.175  0.00  0.00    +0.000 NA
ATOM     25  C   UNL     1       1.974   3.708  18.027  0.00  0.00    +0.000 C 
ATOM     26  C   UNL     1       2.585   2.943  16.848  0.00  0.00    +0.000 C 
ATOM     27  C   UNL     1       3.924   2.335  17.260  0.00  0.00    +0.000 C 
ATOM     28  C   UNL     1       3.719   1.433  18.477  0.00  0.00    +0.000 C 
ATOM     29  C   UNL     1       3.060   2.227  19.618  0.00  0.00    +0.000 C 
ENDBRANCH  23  24
ENDBRANCH  22  23
ENDBRANCH  21  22
ENDBRANCH  20  21
ENDBRANCH   6  20
TORSDOF 8
ENDMDL
