MODEL 1
REMARK VINA RESULT:      -7.5      0.000      0.000
REMARK  Name = 
REMARK  6 active torsions:
REMARK  status: ('A' for Active; 'I' for Inactive)
REMARK    1  A    between atoms: C_1  and  C_2
REMARK    2  A    between atoms: C_2  and  O_3
REMARK    3  A    between atoms: O_3  and  C_4
REMARK    4  A    between atoms: C_7  and  N_8
REMARK    5  A    between atoms: N_11  and  C_12
REMARK    6  A    between atoms: C_12  and  C_13
REMARK                            x       y       z     vdW  Elec       q    Type
REMARK                         _______ _______ _______ _____ _____    ______ ____
ROOT
ATOM      1  N   UNL     1       2.289   7.321  18.803  0.00  0.00    +0.000 N 
ATOM      2  C   UNL     1       1.987   8.604  18.394  0.00  0.00    +0.000 C 
ATOM      3  O   UNL     1       2.368   9.135  17.354  0.00  0.00    +0.000 OA
ATOM      4  N   UNL     1       1.204   9.295  19.275  0.00  0.00    +0.000 N 
ATOM      5  H   UNL     1       1.810   6.964  19.616  0.00  0.00    +0.000 HD
ATOM      6  H   UNL     1       0.566   8.768  19.849  0.00  0.00    +0.000 HD
ENDROOT
BRANCH   1  10
ATOM      7  C   UNL     1       4.792   4.641  16.702  0.00  0.00    +0.000 A 
ATOM      8  C   UNL     1       3.585   4.195  17.224  0.00  0.00    +0.000 A 
ATOM      9  C   UNL     1       2.738   5.080  17.884  0.00  0.00    +0.000 A 
ATOM     10  C   UNL     1       3.092   6.419  18.067  0.00  0.00    +0.000 A 
ATOM     11  C   UNL     1       4.296   6.872  17.519  0.00  0.00    +0.000 A 
ATOM     12  C   UNL     1       5.154   5.980  16.856  0.00  0.00    +0.000 A 
BRANCH   7  13
ATOM     13  O   UNL     1       5.530   3.671  16.091  0.00  0.00    +0.000 OA
BRANCH  13  15
ATOM     14  C   UNL     1       5.891   3.967  13.768  0.00  0.00    +0.000 C 
ATOM     15  C   UNL     1       6.502   4.114  15.149  0.00  0.00    +0.000 C 
ENDBRANCH  13  15
ENDBRANCH   7  13
ENDBRANCH   1  10
BRANCH   4  16
ATOM     16  C   UNL     1       0.810  10.631  18.869  0.00  0.00    +0.000 C 
BRANCH  16  17
ATOM     17  C   UNL     1      -0.654  10.655  18.560  0.00  0.00    +0.000 A 
ATOM     18  C   UNL     1      -1.520  11.522  19.263  0.00  0.00    +0.000 A 
ATOM     19  C   UNL     1      -2.824  11.738  18.819  0.00  0.00    +0.000 A 
ATOM     20  C   UNL     1      -3.202  11.106  17.655  0.00  0.00    +0.000 A 
ATOM     21  C   UNL     1      -2.381  10.209  17.006  0.00  0.00    +0.000 A 
ATOM     22  C   UNL     1      -1.117   9.928  17.453  0.00  0.00    +0.000 A 
ATOM     23  O   UNL     1      -2.920   9.770  15.836  0.00  0.00    +0.000 OA
ATOM     24  C   UNL     1      -3.965  10.750  15.689  0.00  0.00    +0.000 C 
ATOM     25  O   UNL     1      -4.342  11.347  16.947  0.00  0.00    +0.000 OA
ENDBRANCH  16  17
ENDBRANCH   4  16
TORSDOF 5
ENDMDL
MODEL 2
REMARK VINA RESULT:      -7.4      6.112      9.450
REMARK  Name = 
REMARK  6 active torsions:
REMARK  status: ('A' for Active; 'I' for Inactive)
REMARK    1  A    between atoms: C_1  and  C_2
REMARK    2  A    between atoms: C_2  and  O_3
REMARK    3  A    between atoms: O_3  and  C_4
REMARK    4  A    between atoms: C_7  and  N_8
REMARK    5  A    between atoms: N_11  and  C_12
REMARK    6  A    between atoms: C_12  and  C_13
REMARK                            x       y       z     vdW  Elec       q    Type
REMARK                         _______ _______ _______ _____ _____    ______ ____
ROOT
ATOM      1  N   UNL     1       8.990   8.913  19.071  0.00  0.00    +0.000 N 
ATOM      2  C   UNL     1       8.128   8.417  18.115  0.00  0.00    +0.000 C 
ATOM      3  O   UNL     1       7.553   9.078  17.253  0.00  0.00    +0.000 OA
ATOM      4  N   UNL     1       7.927   7.068  18.198  0.00  0.00    +0.000 N 
ATOM      5  H   UNL     1       9.493   8.247  19.638  0.00  0.00    +0.000 HD
ATOM      6  H   UNL     1       8.675   6.504  18.566  0.00  0.00    +0.000 HD
ENDROOT
BRANCH   1  10
ATOM      7  C   UNL     1      10.158  12.950  19.521  0.00  0.00    +0.000 A 
ATOM      8  C   UNL     1      10.164  12.364  18.262  0.00  0.00    +0.000 A 
ATOM      9  C   UNL     1       9.746  11.047  18.100  0.00  0.00    +0.000 A 
ATOM     10  C   UNL     1       9.343  10.277  19.194  0.00  0.00    +0.000 A 
ATOM     11  C   UNL     1       9.313  10.876  20.457  0.00  0.00    +0.000 A 
ATOM     12  C   UNL     1       9.739  12.204  20.623  0.00  0.00    +0.000 A 
BRANCH   7  13
ATOM     13  O   UNL     1      10.602  14.239  19.541  0.00  0.00    +0.000 OA
BRANCH  13  15
ATOM     14  C   UNL     1      10.555  16.065  18.032  0.00  0.00    +0.000 C 
ATOM     15  C   UNL     1       9.730  15.217  18.983  0.00  0.00    +0.000 C 
ENDBRANCH  13  15
ENDBRANCH   7  13
ENDBRANCH   1  10
BRANCH   4  16
ATOM     16  C   UNL     1       7.071   6.486  17.181  0.00  0.00    +0.000 C 
BRANCH  16  17
ATOM     17  C   UNL     1       5.865   5.877  17.826  0.00  0.00    +0.000 A 
ATOM     18  C   UNL     1       4.568   6.212  17.376  0.00  0.00    +0.000 A 
ATOM     19  C   UNL     1       3.459   5.473  17.788  0.00  0.00    +0.000 A 
ATOM     20  C   UNL     1       3.697   4.392  18.608  0.00  0.00    +0.000 A 
ATOM     21  C   UNL     1       4.952   4.106  19.101  0.00  0.00    +0.000 A 
ATOM     22  C   UNL     1       6.050   4.852  18.765  0.00  0.00    +0.000 A 
ATOM     23  O   UNL     1       4.973   2.951  19.820  0.00  0.00    +0.000 OA
ATOM     24  C   UNL     1       3.702   2.410  19.412  0.00  0.00    +0.000 C 
ATOM     25  O   UNL     1       2.793   3.430  18.947  0.00  0.00    +0.000 OA
ENDBRANCH  16  17
ENDBRANCH   4  16
TORSDOF 5
ENDMDL
MODEL 3
REMARK VINA RESULT:      -7.4      6.111      9.408
REMARK  Name = 
REMARK  6 active torsions:
REMARK  status: ('A' for Active; 'I' for Inactive)
REMARK    1  A    between atoms: C_1  and  C_2
REMARK    2  A    between atoms: C_2  and  O_3
REMARK    3  A    between atoms: O_3  and  C_4
REMARK    4  A    between atoms: C_7  and  N_8
REMARK    5  A    between atoms: N_11  and  C_12
REMARK    6  A    between atoms: C_12  and  C_13
REMARK                            x       y       z     vdW  Elec       q    Type
REMARK                         _______ _______ _______ _____ _____    ______ ____
ROOT
ATOM      1  N   UNL     1       9.017   9.004  19.186  0.00  0.00    +0.000 N 
ATOM      2  C   UNL     1       8.216   8.475  18.195  0.00  0.00    +0.000 C 
ATOM      3  O   UNL     1       7.695   9.106  17.279  0.00  0.00    +0.000 OA
ATOM      4  N   UNL     1       8.012   7.129  18.309  0.00  0.00    +0.000 N 
ATOM      5  H   UNL     1       9.484   8.358  19.805  0.00  0.00    +0.000 HD
ATOM      6  H   UNL     1       8.736   6.579  18.741  0.00  0.00    +0.000 HD
ENDROOT
BRANCH   1  10
ATOM      7  C   UNL     1       9.928  13.125  19.408  0.00  0.00    +0.000 A 
ATOM      8  C   UNL     1       9.642  12.417  20.567  0.00  0.00    +0.000 A 
ATOM      9  C   UNL     1       9.377  11.052  20.507  0.00  0.00    +0.000 A 
ATOM     10  C   UNL     1       9.361  10.372  19.286  0.00  0.00    +0.000 A 
ATOM     11  C   UNL     1       9.675  11.081  18.123  0.00  0.00    +0.000 A 
ATOM     12  C   UNL     1       9.938  12.460  18.182  0.00  0.00    +0.000 A 
BRANCH   7  13
ATOM     13  O   UNL     1      10.157  14.454  19.606  0.00  0.00    +0.000 OA
BRANCH  13  15
ATOM     14  C   UNL     1       8.229  15.667  18.955  0.00  0.00    +0.000 C 
ATOM     15  C   UNL     1       9.668  15.338  18.602  0.00  0.00    +0.000 C 
ENDBRANCH  13  15
ENDBRANCH   7  13
ENDBRANCH   1  10
BRANCH   4  16
ATOM     16  C   UNL     1       7.220   6.511  17.261  0.00  0.00    +0.000 C 
BRANCH  16  17
ATOM     17  C   UNL     1       5.977   5.921  17.850  0.00  0.00    +0.000 A 
ATOM     18  C   UNL     1       4.706   6.297  17.360  0.00  0.00    +0.000 A 
ATOM     19  C   UNL     1       3.566   5.578  17.717  0.00  0.00    +0.000 A 
ATOM     20  C   UNL     1       3.747   4.475  18.522  0.00  0.00    +0.000 A 
ATOM     21  C   UNL     1       4.975   4.148  19.053  0.00  0.00    +0.000 A 
ATOM     22  C   UNL     1       6.104   4.872  18.772  0.00  0.00    +0.000 A 
ATOM     23  O   UNL     1       4.942   2.978  19.748  0.00  0.00    +0.000 OA
ATOM     24  C   UNL     1       3.674   2.478  19.284  0.00  0.00    +0.000 C 
ATOM     25  O   UNL     1       2.808   3.530  18.808  0.00  0.00    +0.000 OA
ENDBRANCH  16  17
ENDBRANCH   4  16
TORSDOF 5
ENDMDL
MODEL 4
REMARK VINA RESULT:      -7.4      2.043      8.754
REMARK  Name = 
REMARK  6 active torsions:
REMARK  status: ('A' for Active; 'I' for Inactive)
REMARK    1  A    between atoms: C_1  and  C_2
REMARK    2  A    between atoms: C_2  and  O_3
REMARK    3  A    between atoms: O_3  and  C_4
REMARK    4  A    between atoms: C_7  and  N_8
REMARK    5  A    between atoms: N_11  and  C_12
REMARK    6  A    between atoms: C_12  and  C_13
REMARK                            x       y       z     vdW  Elec       q    Type
REMARK                         _______ _______ _______ _____ _____    ______ ____
ROOT
ATOM      1  N   UNL     1       2.442   7.316  20.437  0.00  0.00    +0.000 N 
ATOM      2  C   UNL     1       2.701   6.288  19.555  0.00  0.00    +0.000 C 
ATOM      3  O   UNL     1       2.129   6.098  18.484  0.00  0.00    +0.000 OA
ATOM      4  N   UNL     1       3.681   5.433  19.974  0.00  0.00    +0.000 N 
ATOM      5  H   UNL     1       3.069   7.430  21.219  0.00  0.00    +0.000 HD
ATOM      6  H   UNL     1       4.404   5.803  20.568  0.00  0.00    +0.000 HD
ENDROOT
BRANCH   1  10
ATOM      7  C   UNL     1      -0.422  10.381  19.926  0.00  0.00    +0.000 A 
ATOM      8  C   UNL     1       0.518  10.141  18.933  0.00  0.00    +0.000 A 
ATOM      9  C   UNL     1       1.440   9.109  19.077  0.00  0.00    +0.000 A 
ATOM     10  C   UNL     1       1.466   8.318  20.228  0.00  0.00    +0.000 A 
ATOM     11  C   UNL     1       0.502   8.545  21.216  0.00  0.00    +0.000 A 
ATOM     12  C   UNL     1      -0.427   9.588  21.074  0.00  0.00    +0.000 A 
BRANCH   7  13
ATOM     13  O   UNL     1      -1.258  11.426  19.664  0.00  0.00    +0.000 OA
BRANCH  13  15
ATOM     14  C   UNL     1      -2.937  10.920  18.071  0.00  0.00    +0.000 C 
ATOM     15  C   UNL     1      -1.613  11.627  18.300  0.00  0.00    +0.000 C 
ENDBRANCH  13  15
ENDBRANCH   7  13
ENDBRANCH   1  10
BRANCH   4  16
ATOM     16  C   UNL     1       4.031   4.363  19.058  0.00  0.00    +0.000 C 
BRANCH  16  17
ATOM     17  C   UNL     1       4.939   4.889  17.991  0.00  0.00    +0.000 A 
ATOM     18  C   UNL     1       6.202   5.425  18.327  0.00  0.00    +0.000 A 
ATOM     19  C   UNL     1       7.152   5.682  17.338  0.00  0.00    +0.000 A 
ATOM     20  C   UNL     1       6.814   5.351  16.045  0.00  0.00    +0.000 A 
ATOM     21  C   UNL     1       5.559   4.891  15.708  0.00  0.00    +0.000 A 
ATOM     22  C   UNL     1       4.584   4.689  16.650  0.00  0.00    +0.000 A 
ATOM     23  O   UNL     1       5.471   4.547  14.395  0.00  0.00    +0.000 OA
ATOM     24  C   UNL     1       6.875   4.517  14.076  0.00  0.00    +0.000 C 
ATOM     25  O   UNL     1       7.662   5.323  14.978  0.00  0.00    +0.000 OA
ENDBRANCH  16  17
ENDBRANCH   4  16
TORSDOF 5
ENDMDL
MODEL 5
REMARK VINA RESULT:      -7.3      6.049      8.895
REMARK  Name = 
REMARK  6 active torsions:
REMARK  status: ('A' for Active; 'I' for Inactive)
REMARK    1  A    between atoms: C_1  and  C_2
REMARK    2  A    between atoms: C_2  and  O_3
REMARK    3  A    between atoms: O_3  and  C_4
REMARK    4  A    between atoms: C_7  and  N_8
REMARK    5  A    between atoms: N_11  and  C_12
REMARK    6  A    between atoms: C_12  and  C_13
REMARK                            x       y       z     vdW  Elec       q    Type
REMARK                         _______ _______ _______ _____ _____    ______ ____
ROOT
ATOM      1  N   UNL     1       8.006   9.467  17.743  0.00  0.00    +0.000 N 
ATOM      2  C   UNL     1       7.859   8.108  17.927  0.00  0.00    +0.000 C 
ATOM      3  O   UNL     1       8.557   7.401  18.650  0.00  0.00    +0.000 OA
ATOM      4  N   UNL     1       6.839   7.558  17.202  0.00  0.00    +0.000 N 
ATOM      5  H   UNL     1       7.288   9.949  17.222  0.00  0.00    +0.000 HD
ATOM      6  H   UNL     1       6.048   8.142  16.989  0.00  0.00    +0.000 HD
ENDROOT
BRANCH   1  10
ATOM      7  C   UNL     1      10.908  11.937  19.569  0.00  0.00    +0.000 A 
ATOM      8  C   UNL     1      10.009  11.229  20.356  0.00  0.00    +0.000 A 
ATOM      9  C   UNL     1       9.075  10.384  19.764  0.00  0.00    +0.000 A 
ATOM     10  C   UNL     1       8.996  10.255  18.375  0.00  0.00    +0.000 A 
ATOM     11  C   UNL     1       9.919  10.948  17.586  0.00  0.00    +0.000 A 
ATOM     12  C   UNL     1      10.860  11.804  18.182  0.00  0.00    +0.000 A 
BRANCH   7  13
ATOM     13  O   UNL     1      11.761  12.734  20.274  0.00  0.00    +0.000 OA
BRANCH  13  15
ATOM     14  C   UNL     1      11.211  15.035  20.163  0.00  0.00    +0.000 C 
ATOM     15  C   UNL     1      12.146  13.955  19.652  0.00  0.00    +0.000 C 
ENDBRANCH  13  15
ENDBRANCH   7  13
ENDBRANCH   1  10
BRANCH   4  16
ATOM     16  C   UNL     1       6.606   6.140  17.400  0.00  0.00    +0.000 C 
BRANCH  16  17
ATOM     17  C   UNL     1       5.280   5.934  18.063  0.00  0.00    +0.000 A 
ATOM     18  C   UNL     1       4.141   6.643  17.619  0.00  0.00    +0.000 A 
ATOM     19  C   UNL     1       2.865   6.280  18.050  0.00  0.00    +0.000 A 
ATOM     20  C   UNL     1       2.773   5.186  18.883  0.00  0.00    +0.000 A 
ATOM     21  C   UNL     1       3.887   4.537  19.368  0.00  0.00    +0.000 A 
ATOM     22  C   UNL     1       5.157   4.910  19.013  0.00  0.00    +0.000 A 
ATOM     23  O   UNL     1       3.564   3.438  20.102  0.00  0.00    +0.000 OA
ATOM     24  C   UNL     1       2.184   3.305  19.712  0.00  0.00    +0.000 C 
ATOM     25  O   UNL     1       1.623   4.548  19.241  0.00  0.00    +0.000 OA
ENDBRANCH  16  17
ENDBRANCH   4  16
TORSDOF 5
ENDMDL
MODEL 6
REMARK VINA RESULT:      -7.3      2.343      8.673
REMARK  Name = 
REMARK  6 active torsions:
REMARK  status: ('A' for Active; 'I' for Inactive)
REMARK    1  A    between atoms: C_1  and  C_2
REMARK    2  A    between atoms: C_2  and  O_3
REMARK    3  A    between atoms: O_3  and  C_4
REMARK    4  A    between atoms: C_7  and  N_8
REMARK    5  A    between atoms: N_11  and  C_12
REMARK    6  A    between atoms: C_12  and  C_13
REMARK                            x       y       z     vdW  Elec       q    Type
REMARK                         _______ _______ _______ _____ _____    ______ ____
ROOT
ATOM      1  N   UNL     1       2.228   7.145  20.500  0.00  0.00    +0.000 N 
ATOM      2  C   UNL     1       2.542   6.089  19.669  0.00  0.00    +0.000 C 
ATOM      3  O   UNL     1       2.175   5.957  18.504  0.00  0.00    +0.000 OA
ATOM      4  N   UNL     1       3.320   5.133  20.259  0.00  0.00    +0.000 N 
ATOM      5  H   UNL     1       2.698   7.194  21.391  0.00  0.00    +0.000 HD
ATOM      6  H   UNL     1       3.949   5.425  20.989  0.00  0.00    +0.000 HD
ENDROOT
BRANCH   1  10
ATOM      7  C   UNL     1      -0.220  10.358  19.256  0.00  0.00    +0.000 A 
ATOM      8  C   UNL     1      -0.383   9.814  20.524  0.00  0.00    +0.000 A 
ATOM      9  C   UNL     1       0.444   8.781  20.955  0.00  0.00    +0.000 A 
ATOM     10  C   UNL     1       1.428   8.247  20.119  0.00  0.00    +0.000 A 
ATOM     11  C   UNL     1       1.608   8.812  18.852  0.00  0.00    +0.000 A 
ATOM     12  C   UNL     1       0.771   9.852  18.415  0.00  0.00    +0.000 A 
BRANCH   7  13
ATOM     13  O   UNL     1      -1.101  11.354  18.957  0.00  0.00    +0.000 OA
BRANCH  13  15
ATOM     14  C   UNL     1      -2.851  10.229  17.825  0.00  0.00    +0.000 C 
ATOM     15  C   UNL     1      -1.751  11.266  17.694  0.00  0.00    +0.000 C 
ENDBRANCH  13  15
ENDBRANCH   7  13
ENDBRANCH   1  10
BRANCH   4  16
ATOM     16  C   UNL     1       3.725   4.026  19.413  0.00  0.00    +0.000 C 
BRANCH  16  17
ATOM     17  C   UNL     1       4.879   4.442  18.555  0.00  0.00    +0.000 A 
ATOM     18  C   UNL     1       4.853   4.210  17.161  0.00  0.00    +0.000 A 
ATOM     19  C   UNL     1       5.792   4.811  16.324  0.00  0.00    +0.000 A 
ATOM     20  C   UNL     1       6.702   5.662  16.911  0.00  0.00    +0.000 A 
ATOM     21  C   UNL     1       6.769   5.836  18.276  0.00  0.00    +0.000 A 
ATOM     22  C   UNL     1       5.901   5.209  19.131  0.00  0.00    +0.000 A 
ATOM     23  O   UNL     1       7.682   6.780  18.632  0.00  0.00    +0.000 OA
ATOM     24  C   UNL     1       7.890   7.388  17.342  0.00  0.00    +0.000 C 
ATOM     25  O   UNL     1       7.553   6.500  16.255  0.00  0.00    +0.000 OA
ENDBRANCH  16  17
ENDBRANCH   4  16
TORSDOF 5
ENDMDL
MODEL 7
REMARK VINA RESULT:      -7.2      3.263      4.257
REMARK  Name = 
REMARK  6 active torsions:
REMARK  status: ('A' for Active; 'I' for Inactive)
REMARK    1  A    between atoms: C_1  and  C_2
REMARK    2  A    between atoms: C_2  and  O_3
REMARK    3  A    between atoms: O_3  and  C_4
REMARK    4  A    between atoms: C_7  and  N_8
REMARK    5  A    between atoms: N_11  and  C_12
REMARK    6  A    between atoms: C_12  and  C_13
REMARK                            x       y       z     vdW  Elec       q    Type
REMARK                         _______ _______ _______ _____ _____    ______ ____
ROOT
ATOM      1  N   UNL     1       4.488   5.801  18.612  0.00  0.00    +0.000 N 
ATOM      2  C   UNL     1       3.162   6.078  18.875  0.00  0.00    +0.000 C 
ATOM      3  O   UNL     1       2.253   6.087  18.048  0.00  0.00    +0.000 OA
ATOM      4  N   UNL     1       2.907   6.373  20.184  0.00  0.00    +0.000 N 
ATOM      5  H   UNL     1       5.110   5.703  19.401  0.00  0.00    +0.000 HD
ATOM      6  H   UNL     1       3.499   5.957  20.883  0.00  0.00    +0.000 HD
ENDROOT
BRANCH   1  10
ATOM      7  C   UNL     1       5.888   4.763  14.762  0.00  0.00    +0.000 A 
ATOM      8  C   UNL     1       5.636   6.093  15.071  0.00  0.00    +0.000 A 
ATOM      9  C   UNL     1       5.210   6.448  16.347  0.00  0.00    +0.000 A 
ATOM     10  C   UNL     1       4.996   5.480  17.332  0.00  0.00    +0.000 A 
ATOM     11  C   UNL     1       5.275   4.144  17.028  0.00  0.00    +0.000 A 
ATOM     12  C   UNL     1       5.701   3.784  15.739  0.00  0.00    +0.000 A 
BRANCH   7  13
ATOM     13  O   UNL     1       6.288   4.553  13.476  0.00  0.00    +0.000 OA
BRANCH  13  15
ATOM     14  C   UNL     1       4.886   3.385  11.964  0.00  0.00    +0.000 C 
ATOM     15  C   UNL     1       6.042   3.257  12.940  0.00  0.00    +0.000 C 
ENDBRANCH  13  15
ENDBRANCH   7  13
ENDBRANCH   1  10
BRANCH   4  16
ATOM     16  C   UNL     1       1.518   6.619  20.525  0.00  0.00    +0.000 C 
BRANCH  16  17
ATOM     17  C   UNL     1       1.307   8.083  20.755  0.00  0.00    +0.000 A 
ATOM     18  C   UNL     1       1.271   8.980  19.663  0.00  0.00    +0.000 A 
ATOM     19  C   UNL     1       0.827  10.291  19.835  0.00  0.00    +0.000 A 
ATOM     20  C   UNL     1       0.392  10.646  21.093  0.00  0.00    +0.000 A 
ATOM     21  C   UNL     1       0.490   9.793  22.171  0.00  0.00    +0.000 A 
ATOM     22  C   UNL     1       0.980   8.520  22.047  0.00  0.00    +0.000 A 
ATOM     23  O   UNL     1      -0.074  10.315  23.294  0.00  0.00    +0.000 OA
ATOM     24  C   UNL     1      -0.814  11.394  22.693  0.00  0.00    +0.000 C 
ATOM     25  O   UNL     1      -0.268  11.793  21.418  0.00  0.00    +0.000 OA
ENDBRANCH  16  17
ENDBRANCH   4  16
TORSDOF 5
ENDMDL
MODEL 8
REMARK VINA RESULT:      -7.2      2.305      8.753
REMARK  Name = 
REMARK  6 active torsions:
REMARK  status: ('A' for Active; 'I' for Inactive)
REMARK    1  A    between atoms: C_1  and  C_2
REMARK    2  A    between atoms: C_2  and  O_3
REMARK    3  A    between atoms: O_3  and  C_4
REMARK    4  A    between atoms: C_7  and  N_8
REMARK    5  A    between atoms: N_11  and  C_12
REMARK    6  A    between atoms: C_12  and  C_13
REMARK                            x       y       z     vdW  Elec       q    Type
REMARK                         _______ _______ _______ _____ _____    ______ ____
ROOT
ATOM      1  N   UNL     1       2.192   7.259  20.474  0.00  0.00    +0.000 N 
ATOM      2  C   UNL     1       2.483   6.167  19.683  0.00  0.00    +0.000 C 
ATOM      3  O   UNL     1       2.121   6.005  18.520  0.00  0.00    +0.000 OA
ATOM      4  N   UNL     1       3.230   5.212  20.313  0.00  0.00    +0.000 N 
ATOM      5  H   UNL     1       2.656   7.326  21.368  0.00  0.00    +0.000 HD
ATOM      6  H   UNL     1       3.861   5.511  21.038  0.00  0.00    +0.000 HD
ENDROOT
BRANCH   1  10
ATOM      7  C   UNL     1      -0.047  10.650  19.314  0.00  0.00    +0.000 A 
ATOM      8  C   UNL     1       0.932  10.146  18.469  0.00  0.00    +0.000 A 
ATOM      9  C   UNL     1       1.648   9.008  18.827  0.00  0.00    +0.000 A 
ATOM     10  C   UNL     1       1.425   8.369  20.049  0.00  0.00    +0.000 A 
ATOM     11  C   UNL     1       0.421   8.862  20.887  0.00  0.00    +0.000 A 
ATOM     12  C   UNL     1      -0.300  10.013  20.529  0.00  0.00    +0.000 A 
BRANCH   7  13
ATOM     13  O   UNL     1      -0.664  11.774  18.849  0.00  0.00    +0.000 OA
BRANCH  13  15
ATOM     14  C   UNL     1      -2.509  11.083  17.533  0.00  0.00    +0.000 C 
ATOM     15  C   UNL     1      -2.087  11.752  18.829  0.00  0.00    +0.000 C 
ENDBRANCH  13  15
ENDBRANCH   7  13
ENDBRANCH   1  10
BRANCH   4  16
ATOM     16  C   UNL     1       3.611   4.065  19.509  0.00  0.00    +0.000 C 
BRANCH  16  17
ATOM     17  C   UNL     1       4.771   4.425  18.634  0.00  0.00    +0.000 A 
ATOM     18  C   UNL     1       4.738   4.140  17.250  0.00  0.00    +0.000 A 
ATOM     19  C   UNL     1       5.686   4.690  16.388  0.00  0.00    +0.000 A 
ATOM     20  C   UNL     1       6.614   5.545  16.941  0.00  0.00    +0.000 A 
ATOM     21  C   UNL     1       6.688   5.770  18.299  0.00  0.00    +0.000 A 
ATOM     22  C   UNL     1       5.809   5.194  19.178  0.00  0.00    +0.000 A 
ATOM     23  O   UNL     1       7.619   6.710  18.616  0.00  0.00    +0.000 OA
ATOM     24  C   UNL     1       7.836   7.263  17.304  0.00  0.00    +0.000 C 
ATOM     25  O   UNL     1       7.480   6.341  16.252  0.00  0.00    +0.000 OA
ENDBRANCH  16  17
ENDBRANCH   4  16
TORSDOF 5
ENDMDL
MODEL 9
REMARK VINA RESULT:      -7.2      6.404      9.138
REMARK  Name = 
REMARK  6 active torsions:
REMARK  status: ('A' for Active; 'I' for Inactive)
REMARK    1  A    between atoms: C_1  and  C_2
REMARK    2  A    between atoms: C_2  and  O_3
REMARK    3  A    between atoms: O_3  and  C_4
REMARK    4  A    between atoms: C_7  and  N_8
REMARK    5  A    between atoms: N_11  and  C_12
REMARK    6  A    between atoms: C_12  and  C_13
REMARK                            x       y       z     vdW  Elec       q    Type
REMARK                         _______ _______ _______ _____ _____    ______ ____
ROOT
ATOM      1  N   UNL     1       6.805   7.837  17.104  0.00  0.00    +0.000 N 
ATOM      2  C   UNL     1       7.816   8.098  18.007  0.00  0.00    +0.000 C 
ATOM      3  O   UNL     1       8.285   7.297  18.812  0.00  0.00    +0.000 OA
ATOM      4  N   UNL     1       8.282   9.381  17.958  0.00  0.00    +0.000 N 
ATOM      5  H   UNL     1       6.601   8.544  16.414  0.00  0.00    +0.000 HD
ATOM      6  H   UNL     1       8.234   9.866  17.077  0.00  0.00    +0.000 HD
ENDROOT
BRANCH   1  10
ATOM      7  C   UNL     1       4.977   4.040  16.789  0.00  0.00    +0.000 A 
ATOM      8  C   UNL     1       4.339   5.059  17.484  0.00  0.00    +0.000 A 
ATOM      9  C   UNL     1       4.917   6.323  17.561  0.00  0.00    +0.000 A 
ATOM     10  C   UNL     1       6.157   6.587  16.974  0.00  0.00    +0.000 A 
ATOM     11  C   UNL     1       6.786   5.567  16.253  0.00  0.00    +0.000 A 
ATOM     12  C   UNL     1       6.206   4.290  16.179  0.00  0.00    +0.000 A 
BRANCH   7  13
ATOM     13  O   UNL     1       4.309   2.851  16.801  0.00  0.00    +0.000 OA
BRANCH  13  15
ATOM     14  C   UNL     1       3.246   1.671  18.558  0.00  0.00    +0.000 C 
ATOM     15  C   UNL     1       3.107   2.808  17.563  0.00  0.00    +0.000 C 
ENDBRANCH  13  15
ENDBRANCH   7  13
ENDBRANCH   1  10
BRANCH   4  16
ATOM     16  C   UNL     1       9.384   9.696  18.850  0.00  0.00    +0.000 C 
BRANCH  16  17
ATOM     17  C   UNL     1       9.531  11.181  18.966  0.00  0.00    +0.000 A 
ATOM     18  C   UNL     1       9.486  11.807  20.232  0.00  0.00    +0.000 A 
ATOM     19  C   UNL     1       9.871  13.139  20.380  0.00  0.00    +0.000 A 
ATOM     20  C   UNL     1      10.331  13.787  19.255  0.00  0.00    +0.000 A 
ATOM     21  C   UNL     1      10.312  13.198  18.009  0.00  0.00    +0.000 A 
ATOM     22  C   UNL     1       9.880  11.912  17.821  0.00  0.00    +0.000 A 
ATOM     23  O   UNL     1      10.888  13.983  17.059  0.00  0.00    +0.000 OA
ATOM     24  C   UNL     1      11.553  14.927  17.920  0.00  0.00    +0.000 C 
ATOM     25  O   UNL     1      10.945  15.003  19.226  0.00  0.00    +0.000 OA
ENDBRANCH  16  17
ENDBRANCH   4  16
TORSDOF 5
ENDMDL
