MODEL 1
REMARK VINA RESULT:      -5.4      0.000      0.000
REMARK  Name = 
REMARK  3 active torsions:
REMARK  status: ('A' for Active; 'I' for Inactive)
REMARK    1  A    between atoms: N_1  and  C_2
REMARK    2  A    between atoms: C_6  and  N_7
REMARK    3  A    between atoms: C_11  and  O_12
REMARK                            x       y       z     vdW  Elec       q    Type
REMARK                         _______ _______ _______ _____ _____    ______ ____
ROOT
ATOM      1  C   UNL     1       3.284   4.379  18.091  0.00  0.00    +0.000 A 
ATOM      2  C   UNL     1       3.815   3.983  16.859  0.00  0.00    +0.000 A 
ATOM      3  C   UNL     1       5.149   4.253  16.535  0.00  0.00    +0.000 A 
ATOM      4 CL   UNL     1       5.725   3.722  14.998  0.00  0.00    +0.000 Cl
ATOM      5  C   UNL     1       5.929   4.970  17.446  0.00  0.00    +0.000 A 
ATOM      6  C   UNL     1       5.408   5.431  18.661  0.00  0.00    +0.000 A 
ATOM      7  C   UNL     1       4.085   5.134  18.965  0.00  0.00    +0.000 A 
ENDROOT
BRANCH   1   8
ATOM      8  N   UNL     1       1.915   4.220  18.351  0.00  0.00    +0.000 N 
ATOM      9  H   UNL     1       1.690   3.532  19.061  0.00  0.00    +0.000 HD
ATOM     10  H   UNL     1       1.464   5.122  18.509  0.00  0.00    +0.000 HD
ENDBRANCH   1   8
BRANCH   5  11
ATOM     11  N   UNL     1       7.313   5.269  17.158  0.00  0.00    +0.000 N 
ATOM     12  O   UNL     1       7.561   6.356  16.622  0.00  0.00    +0.000 OA
ATOM     13  O   UNL     1       8.138   4.378  17.398  0.00  0.00    +0.000 OA
ENDBRANCH   5  11
BRANCH   7  14
ATOM     14  O   UNL     1       3.530   5.546  20.148  0.00  0.00    +0.000 OA
ATOM     15  H   UNL     1       3.075   4.800  20.572  0.00  0.00    +0.000 HD
ENDBRANCH   7  14
TORSDOF 3
ENDMDL
MODEL 2
REMARK VINA RESULT:      -5.3      3.283      4.559
REMARK  Name = 
REMARK  3 active torsions:
REMARK  status: ('A' for Active; 'I' for Inactive)
REMARK    1  A    between atoms: N_1  and  C_2
REMARK    2  A    between atoms: C_6  and  N_7
REMARK    3  A    between atoms: C_11  and  O_12
REMARK                            x       y       z     vdW  Elec       q    Type
REMARK                         _______ _______ _______ _____ _____    ______ ____
ROOT
ATOM      1  C   UNL     1       4.412   2.964  19.614  0.00  0.00    +0.000 A 
ATOM      2  C   UNL     1       3.086   3.100  20.041  0.00  0.00    +0.000 A 
ATOM      3  C   UNL     1       2.410   4.316  19.898  0.00  0.00    +0.000 A 
ATOM      4 CL   UNL     1       0.775   4.394  20.444  0.00  0.00    +0.000 Cl
ATOM      5  C   UNL     1       3.098   5.408  19.364  0.00  0.00    +0.000 A 
ATOM      6  C   UNL     1       4.443   5.319  18.983  0.00  0.00    +0.000 A 
ATOM      7  C   UNL     1       5.086   4.094  19.121  0.00  0.00    +0.000 A 
ENDROOT
BRANCH   1   8
ATOM      8  N   UNL     1       5.120   1.783  19.882  0.00  0.00    +0.000 N 
ATOM      9  H   UNL     1       4.544   0.977  20.096  0.00  0.00    +0.000 HD
ATOM     10  H   UNL     1       5.815   1.599  19.157  0.00  0.00    +0.000 HD
ENDBRANCH   1   8
BRANCH   5  11
ATOM     11  N   UNL     1       2.440   6.684  19.192  0.00  0.00    +0.000 N 
ATOM     12  O   UNL     1       2.244   7.071  18.034  0.00  0.00    +0.000 OA
ATOM     13  O   UNL     1       2.195   7.327  20.220  0.00  0.00    +0.000 OA
ENDBRANCH   5  11
BRANCH   7  14
ATOM     14  O   UNL     1       6.396   3.947  18.747  0.00  0.00    +0.000 OA
ATOM     15  H   UNL     1       6.973   4.123  19.507  0.00  0.00    +0.000 HD
ENDBRANCH   7  14
TORSDOF 3
ENDMDL
MODEL 3
REMARK VINA RESULT:      -5.3      2.436      4.709
REMARK  Name = 
REMARK  3 active torsions:
REMARK  status: ('A' for Active; 'I' for Inactive)
REMARK    1  A    between atoms: N_1  and  C_2
REMARK    2  A    between atoms: C_6  and  N_7
REMARK    3  A    between atoms: C_11  and  O_12
REMARK                            x       y       z     vdW  Elec       q    Type
REMARK                         _______ _______ _______ _____ _____    ______ ____
ROOT
ATOM      1  C   UNL     1       5.858   5.561  16.555  0.00  0.00    +0.000 A 
ATOM      2  C   UNL     1       5.052   6.579  17.076  0.00  0.00    +0.000 A 
ATOM      3  C   UNL     1       3.793   6.289  17.614  0.00  0.00    +0.000 A 
ATOM      4 CL   UNL     1       2.868   7.604  18.242  0.00  0.00    +0.000 Cl
ATOM      5  C   UNL     1       3.335   4.970  17.578  0.00  0.00    +0.000 A 
ATOM      6  C   UNL     1       4.095   3.940  17.008  0.00  0.00    +0.000 A 
ATOM      7  C   UNL     1       5.348   4.253  16.497  0.00  0.00    +0.000 A 
ENDROOT
BRANCH   1   8
ATOM      8  N   UNL     1       7.057   5.879  15.900  0.00  0.00    +0.000 N 
ATOM      9  H   UNL     1       6.961   6.109  14.917  0.00  0.00    +0.000 HD
ATOM     10  H   UNL     1       7.589   6.575  16.425  0.00  0.00    +0.000 HD
ENDBRANCH   1   8
BRANCH   5  11
ATOM     11  N   UNL     1       2.044   4.622  18.126  0.00  0.00    +0.000 N 
ATOM     12  O   UNL     1       1.927   4.630  19.358  0.00  0.00    +0.000 OA
ATOM     13  O   UNL     1       1.175   4.265  17.321  0.00  0.00    +0.000 OA
ENDBRANCH   5  11
BRANCH   7  14
ATOM     14  O   UNL     1       6.139   3.280  15.944  0.00  0.00    +0.000 OA
ATOM     15  H   UNL     1       6.811   3.003  16.588  0.00  0.00    +0.000 HD
ENDBRANCH   7  14
TORSDOF 3
ENDMDL
MODEL 4
REMARK VINA RESULT:      -5.2      2.073      2.473
REMARK  Name = 
REMARK  3 active torsions:
REMARK  status: ('A' for Active; 'I' for Inactive)
REMARK    1  A    between atoms: N_1  and  C_2
REMARK    2  A    between atoms: C_6  and  N_7
REMARK    3  A    between atoms: C_11  and  O_12
REMARK                            x       y       z     vdW  Elec       q    Type
REMARK                         _______ _______ _______ _____ _____    ______ ____
ROOT
ATOM      1  C   UNL     1       3.540   4.029  18.780  0.00  0.00    +0.000 A 
ATOM      2  C   UNL     1       4.683   4.580  19.369  0.00  0.00    +0.000 A 
ATOM      3  C   UNL     1       5.781   4.952  18.585  0.00  0.00    +0.000 A 
ATOM      4 CL   UNL     1       7.147   5.633  19.392  0.00  0.00    +0.000 Cl
ATOM      5  C   UNL     1       5.735   4.718  17.209  0.00  0.00    +0.000 A 
ATOM      6  C   UNL     1       4.628   4.112  16.601  0.00  0.00    +0.000 A 
ATOM      7  C   UNL     1       3.545   3.769  17.399  0.00  0.00    +0.000 A 
ENDROOT
BRANCH   1   8
ATOM      8  N   UNL     1       2.501   3.539  19.585  0.00  0.00    +0.000 N 
ATOM      9  H   UNL     1       2.580   3.764  20.571  0.00  0.00    +0.000 HD
ATOM     10  H   UNL     1       1.589   3.776  19.192  0.00  0.00    +0.000 HD
ENDBRANCH   1   8
BRANCH   5  11
ATOM     11  N   UNL     1       6.843   5.090  16.359  0.00  0.00    +0.000 N 
ATOM     12  O   UNL     1       6.675   6.042  15.587  0.00  0.00    +0.000 OA
ATOM     13  O   UNL     1       7.851   4.374  16.413  0.00  0.00    +0.000 OA
ENDBRANCH   5  11
BRANCH   7  14
ATOM     14  O   UNL     1       2.430   3.190  16.852  0.00  0.00    +0.000 OA
ATOM     15  H   UNL     1       1.893   2.788  17.555  0.00  0.00    +0.000 HD
ENDBRANCH   7  14
TORSDOF 3
ENDMDL
MODEL 5
REMARK VINA RESULT:      -5.2      2.578      2.853
REMARK  Name = 
REMARK  3 active torsions:
REMARK  status: ('A' for Active; 'I' for Inactive)
REMARK    1  A    between atoms: N_1  and  C_2
REMARK    2  A    between atoms: C_6  and  N_7
REMARK    3  A    between atoms: C_11  and  O_12
REMARK                            x       y       z     vdW  Elec       q    Type
REMARK                         _______ _______ _______ _____ _____    ______ ____
ROOT
ATOM      1  C   UNL     1       3.490   4.445  19.424  0.00  0.00    +0.000 A 
ATOM      2  C   UNL     1       2.984   5.689  19.030  0.00  0.00    +0.000 A 
ATOM      3  C   UNL     1       3.661   6.468  18.085  0.00  0.00    +0.000 A 
ATOM      4 CL   UNL     1       2.963   7.985  17.649  0.00  0.00    +0.000 Cl
ATOM      5  C   UNL     1       4.876   6.004  17.577  0.00  0.00    +0.000 A 
ATOM      6  C   UNL     1       5.436   4.791  17.998  0.00  0.00    +0.000 A 
ATOM      7  C   UNL     1       4.736   4.029  18.924  0.00  0.00    +0.000 A 
ENDROOT
BRANCH   1   8
ATOM      8  N   UNL     1       2.875   3.734  20.465  0.00  0.00    +0.000 N 
ATOM      9  H   UNL     1       1.886   3.923  20.588  0.00  0.00    +0.000 HD
ATOM     10  H   UNL     1       3.089   2.738  20.406  0.00  0.00    +0.000 HD
ENDBRANCH   1   8
BRANCH   5  11
ATOM     11  N   UNL     1       5.608   6.772  16.596  0.00  0.00    +0.000 N 
ATOM     12  O   UNL     1       5.225   6.708  15.421  0.00  0.00    +0.000 OA
ATOM     13  O   UNL     1       6.614   7.372  16.995  0.00  0.00    +0.000 OA
ENDBRANCH   5  11
BRANCH   7  14
ATOM     14  O   UNL     1       5.230   2.826  19.356  0.00  0.00    +0.000 OA
ATOM     15  H   UNL     1       5.273   2.205  18.611  0.00  0.00    +0.000 HD
ENDBRANCH   7  14
TORSDOF 3
ENDMDL
MODEL 6
REMARK VINA RESULT:      -5.2      2.723      4.365
REMARK  Name = 
REMARK  3 active torsions:
REMARK  status: ('A' for Active; 'I' for Inactive)
REMARK    1  A    between atoms: N_1  and  C_2
REMARK    2  A    between atoms: C_6  and  N_7
REMARK    3  A    between atoms: C_11  and  O_12
REMARK                            x       y       z     vdW  Elec       q    Type
REMARK                         _______ _______ _______ _____ _____    ______ ____
ROOT
ATOM      1  C   UNL     1       6.936   5.021  15.701  0.00  0.00    +0.000 A 
ATOM      2  C   UNL     1       7.422   5.412  16.954  0.00  0.00    +0.000 A 
ATOM      3  C   UNL     1       6.716   5.103  18.122  0.00  0.00    +0.000 A 
ATOM      4 CL   UNL     1       7.390   5.618  19.625  0.00  0.00    +0.000 Cl
ATOM      5  C   UNL     1       5.493   4.439  18.012  0.00  0.00    +0.000 A 
ATOM      6  C   UNL     1       4.953   4.087  16.768  0.00  0.00    +0.000 A 
ATOM      7  C   UNL     1       5.682   4.391  15.625  0.00  0.00    +0.000 A 
ENDROOT
BRANCH   1   8
ATOM      8  N   UNL     1       7.582   5.448  14.532  0.00  0.00    +0.000 N 
ATOM      9  H   UNL     1       6.967   5.637  13.747  0.00  0.00    +0.000 HD
ATOM     10  H   UNL     1       8.228   6.214  14.728  0.00  0.00    +0.000 HD
ENDBRANCH   1   8
BRANCH   5  11
ATOM     11  N   UNL     1       4.730   4.094  19.191  0.00  0.00    +0.000 N 
ATOM     12  O   UNL     1       3.961   4.952  19.642  0.00  0.00    +0.000 OA
ATOM     13  O   UNL     1       4.966   2.994  19.705  0.00  0.00    +0.000 OA
ENDBRANCH   5  11
BRANCH   7  14
ATOM     14  O   UNL     1       5.209   4.053  14.384  0.00  0.00    +0.000 OA
ATOM     15  H   UNL     1       5.953   3.956  13.767  0.00  0.00    +0.000 HD
ENDBRANCH   7  14
TORSDOF 3
ENDMDL
MODEL 7
REMARK VINA RESULT:      -5.2      2.450      4.453
REMARK  Name = 
REMARK  3 active torsions:
REMARK  status: ('A' for Active; 'I' for Inactive)
REMARK    1  A    between atoms: N_1  and  C_2
REMARK    2  A    between atoms: C_6  and  N_7
REMARK    3  A    between atoms: C_11  and  O_12
REMARK                            x       y       z     vdW  Elec       q    Type
REMARK                         _______ _______ _______ _____ _____    ______ ____
ROOT
ATOM      1  C   UNL     1       6.294   6.261  17.071  0.00  0.00    +0.000 A 
ATOM      2  C   UNL     1       5.017   6.703  17.434  0.00  0.00    +0.000 A 
ATOM      3  C   UNL     1       3.983   5.788  17.662  0.00  0.00    +0.000 A 
ATOM      4 CL   UNL     1       2.441   6.418  18.114  0.00  0.00    +0.000 Cl
ATOM      5  C   UNL     1       4.236   4.427  17.472  0.00  0.00    +0.000 A 
ATOM      6  C   UNL     1       5.488   3.961  17.051  0.00  0.00    +0.000 A 
ATOM      7  C   UNL     1       6.501   4.889  16.848  0.00  0.00    +0.000 A 
ENDROOT
BRANCH   1   8
ATOM      8  N   UNL     1       7.285   7.190  16.718  0.00  0.00    +0.000 N 
ATOM      9  H   UNL     1       7.398   7.338  15.721  0.00  0.00    +0.000 HD
ATOM     10  H   UNL     1       7.179   8.058  17.243  0.00  0.00    +0.000 HD
ENDBRANCH   1   8
BRANCH   5  11
ATOM     11  N   UNL     1       3.201   3.445  17.700  0.00  0.00    +0.000 N 
ATOM     12  O   UNL     1       3.284   2.757  18.724  0.00  0.00    +0.000 OA
ATOM     13  O   UNL     1       2.351   3.314  16.809  0.00  0.00    +0.000 OA
ENDBRANCH   5  11
BRANCH   7  14
ATOM     14  O   UNL     1       7.750   4.485  16.453  0.00  0.00    +0.000 OA
ATOM     15  H   UNL     1       7.914   4.781  15.543  0.00  0.00    +0.000 HD
ENDBRANCH   7  14
TORSDOF 3
ENDMDL
MODEL 8
REMARK VINA RESULT:      -5.1      3.592      4.439
REMARK  Name = 
REMARK  3 active torsions:
REMARK  status: ('A' for Active; 'I' for Inactive)
REMARK    1  A    between atoms: N_1  and  C_2
REMARK    2  A    between atoms: C_6  and  N_7
REMARK    3  A    between atoms: C_11  and  O_12
REMARK                            x       y       z     vdW  Elec       q    Type
REMARK                         _______ _______ _______ _____ _____    ______ ____
ROOT
ATOM      1  C   UNL     1       2.749   6.136  19.610  0.00  0.00    +0.000 A 
ATOM      2  C   UNL     1       2.181   5.203  20.485  0.00  0.00    +0.000 A 
ATOM      3  C   UNL     1       2.632   3.878  20.507  0.00  0.00    +0.000 A 
ATOM      4 CL   UNL     1       1.882   2.796  21.623  0.00  0.00    +0.000 Cl
ATOM      5  C   UNL     1       3.625   3.491  19.604  0.00  0.00    +0.000 A 
ATOM      6  C   UNL     1       4.169   4.388  18.676  0.00  0.00    +0.000 A 
ATOM      7  C   UNL     1       3.716   5.701  18.687  0.00  0.00    +0.000 A 
ENDROOT
BRANCH   1   8
ATOM      8  N   UNL     1       2.202   7.423  19.504  0.00  0.00    +0.000 N 
ATOM      9  H   UNL     1       2.544   8.091  20.186  0.00  0.00    +0.000 HD
ATOM     10  H   UNL     1       2.256   7.767  18.544  0.00  0.00    +0.000 HD
ENDBRANCH   1   8
BRANCH   5  11
ATOM     11  N   UNL     1       4.124   2.135  19.593  0.00  0.00    +0.000 N 
ATOM     12  O   UNL     1       5.004   1.845  20.413  0.00  0.00    +0.000 OA
ATOM     13  O   UNL     1       3.688   1.388  18.708  0.00  0.00    +0.000 OA
ENDBRANCH   5  11
BRANCH   7  14
ATOM     14  O   UNL     1       4.227   6.624  17.812  0.00  0.00    +0.000 OA
ATOM     15  H   UNL     1       5.072   6.962  18.152  0.00  0.00    +0.000 HD
ENDBRANCH   7  14
TORSDOF 3
ENDMDL
MODEL 9
REMARK VINA RESULT:      -5.1      1.980      2.223
REMARK  Name = 
REMARK  3 active torsions:
REMARK  status: ('A' for Active; 'I' for Inactive)
REMARK    1  A    between atoms: N_1  and  C_2
REMARK    2  A    between atoms: C_6  and  N_7
REMARK    3  A    between atoms: C_11  and  O_12
REMARK                            x       y       z     vdW  Elec       q    Type
REMARK                         _______ _______ _______ _____ _____    ______ ____
ROOT
ATOM      1  C   UNL     1       2.847   4.313  18.056  0.00  0.00    +0.000 A 
ATOM      2  C   UNL     1       3.512   5.424  17.526  0.00  0.00    +0.000 A 
ATOM      3  C   UNL     1       4.871   5.634  17.786  0.00  0.00    +0.000 A 
ATOM      4 CL   UNL     1       5.615   7.025  17.086  0.00  0.00    +0.000 Cl
ATOM      5  C   UNL     1       5.541   4.740  18.624  0.00  0.00    +0.000 A 
ATOM      6  C   UNL     1       4.886   3.653  19.217  0.00  0.00    +0.000 A 
ATOM      7  C   UNL     1       3.542   3.458  18.929  0.00  0.00    +0.000 A 
ENDROOT
BRANCH   1   8
ATOM      8  N   UNL     1       1.460   4.183  17.899  0.00  0.00    +0.000 N 
ATOM      9  H   UNL     1       1.131   4.224  16.940  0.00  0.00    +0.000 HD
ATOM     10  H   UNL     1       1.106   3.372  18.409  0.00  0.00    +0.000 HD
ENDBRANCH   1   8
BRANCH   5  11
ATOM     11  N   UNL     1       6.945   4.914  18.918  0.00  0.00    +0.000 N 
ATOM     12  O   UNL     1       7.758   4.451  18.107  0.00  0.00    +0.000 OA
ATOM     13  O   UNL     1       7.227   5.444  20.000  0.00  0.00    +0.000 OA
ENDBRANCH   5  11
BRANCH   7  14
ATOM     14  O   UNL     1       2.858   2.400  19.469  0.00  0.00    +0.000 OA
ATOM     15  H   UNL     1       2.081   2.201  18.921  0.00  0.00    +0.000 HD
ENDBRANCH   7  14
TORSDOF 3
ENDMDL
