MODEL 1
REMARK VINA RESULT:      -9.7      0.000      0.000
REMARK  Name = 
REMARK  7 active torsions:
REMARK  status: ('A' for Active; 'I' for Inactive)
REMARK    1  A    between atoms: C_1  and  O_2
REMARK    2  A    between atoms: O_2  and  C_3
REMARK    3  A    between atoms: C_6  and  C_7
REMARK    4  A    between atoms: C_15  and  N_16
REMARK    5  A    between atoms: N_19  and  N_20
REMARK    6  A    between atoms: C_21  and  C_23
REMARK    7  A    between atoms: C_23  and  C_24
REMARK                            x       y       z     vdW  Elec       q    Type
REMARK                         _______ _______ _______ _____ _____    ______ ____
ROOT
ATOM      1  C   UNL     1       2.678   6.020  18.706  0.00  0.00    +0.000 A 
ATOM      2  N   UNL     1       2.109   5.201  19.674  0.00  0.00    +0.000 N 
ATOM      3  N   UNL     1       1.572   5.876  20.724  0.00  0.00    +0.000 NA
ATOM      4  C   UNL     1       1.589   7.115  20.264  0.00  0.00    +0.000 A 
ATOM      5  C   UNL     1       2.101   7.232  18.975  0.00  0.00    +0.000 A 
ATOM      6  C   UNL     1       1.972   8.598  18.535  0.00  0.00    +0.000 C 
ATOM      7  O   UNL     1       2.263   9.051  17.445  0.00  0.00    +0.000 OA
ATOM      8  C   UNL     1       1.231   9.307  19.665  0.00  0.00    +0.000 A 
ATOM      9  C   UNL     1       0.696  10.587  19.815  0.00  0.00    +0.000 A 
ATOM     10  C   UNL     1       0.491  11.011  21.140  0.00  0.00    +0.000 A 
ATOM     11  C   UNL     1       0.670  10.152  22.242  0.00  0.00    +0.000 A 
ATOM     12  C   UNL     1       0.969   8.802  22.042  0.00  0.00    +0.000 A 
ATOM     13  C   UNL     1       1.205   8.402  20.751  0.00  0.00    +0.000 A 
ATOM     14  H   UNL     1       2.137   4.187  19.714  0.00  0.00    +0.000 HD
ENDROOT
BRANCH   1  18
ATOM     15  C   UNL     1       5.818   4.531  16.223  0.00  0.00    +0.000 A 
ATOM     16  C   UNL     1       5.748   5.897  16.512  0.00  0.00    +0.000 A 
ATOM     17  C   UNL     1       4.717   6.412  17.312  0.00  0.00    +0.000 A 
ATOM     18  C   UNL     1       3.724   5.565  17.801  0.00  0.00    +0.000 A 
ATOM     19  C   UNL     1       3.799   4.194  17.498  0.00  0.00    +0.000 A 
ATOM     20  C   UNL     1       4.836   3.679  16.719  0.00  0.00    +0.000 A 
BRANCH  15  22
ATOM     21  C   UNL     1       6.640   4.216  14.032  0.00  0.00    +0.000 C 
ATOM     22  O   UNL     1       6.865   4.137  15.436  0.00  0.00    +0.000 OA
ENDBRANCH  15  22
ENDBRANCH   1  18
BRANCH   9  23
ATOM     23  N   UNL     1       0.268  11.488  18.804  0.00  0.00    +0.000 N 
ATOM     24  C   UNL     1      -0.994  11.879  18.424  0.00  0.00    +0.000 C 
ATOM     25  O   UNL     1      -1.137  12.729  17.537  0.00  0.00    +0.000 OA
ATOM     26  N   UNL     1      -2.028  11.382  19.147  0.00  0.00    +0.000 N 
ATOM     27  H   UNL     1       0.945  12.165  18.467  0.00  0.00    +0.000 HD
ATOM     28  H   UNL     1      -1.948  10.405  19.367  0.00  0.00    +0.000 HD
BRANCH  26  29
ATOM     29  N   UNL     1      -3.340  11.662  18.826  0.00  0.00    +0.000 N 
ATOM     30  C   UNL     1      -4.013  10.724  18.064  0.00  0.00    +0.000 C 
ATOM     31  O   UNL     1      -3.519   9.655  17.698  0.00  0.00    +0.000 OA
ATOM     32  H   UNL     1      -3.732  12.533  19.167  0.00  0.00    +0.000 HD
BRANCH  30  33
ATOM     33  C   UNL     1      -5.433  11.123  17.738  0.00  0.00    +0.000 C 
BRANCH  33  34
ATOM     34  C   UNL     1      -6.369  10.772  18.864  0.00  0.00    +0.000 A 
ATOM     35  C   UNL     1      -6.829  11.757  19.744  0.00  0.00    +0.000 A 
ATOM     36  C   UNL     1      -7.597  11.403  20.854  0.00  0.00    +0.000 A 
ATOM     37  C   UNL     1      -7.917  10.066  21.086  0.00  0.00    +0.000 A 
ATOM     38  C   UNL     1      -7.504   9.085  20.188  0.00  0.00    +0.000 A 
ATOM     39  C   UNL     1      -6.741   9.437  19.076  0.00  0.00    +0.000 A 
ENDBRANCH  33  34
ENDBRANCH  30  33
ENDBRANCH  26  29
ENDBRANCH   9  23
TORSDOF 6
ENDMDL
MODEL 2
REMARK VINA RESULT:      -9.4      3.478      5.396
REMARK  Name = 
REMARK  7 active torsions:
REMARK  status: ('A' for Active; 'I' for Inactive)
REMARK    1  A    between atoms: C_1  and  O_2
REMARK    2  A    between atoms: O_2  and  C_3
REMARK    3  A    between atoms: C_6  and  C_7
REMARK    4  A    between atoms: C_15  and  N_16
REMARK    5  A    between atoms: N_19  and  N_20
REMARK    6  A    between atoms: C_21  and  C_23
REMARK    7  A    between atoms: C_23  and  C_24
REMARK                            x       y       z     vdW  Elec       q    Type
REMARK                         _______ _______ _______ _____ _____    ______ ____
ROOT
ATOM      1  C   UNL     1       2.969   6.354  18.637  0.00  0.00    +0.000 A 
ATOM      2  N   UNL     1       2.578   5.408  19.577  0.00  0.00    +0.000 N 
ATOM      3  N   UNL     1       1.961   5.934  20.668  0.00  0.00    +0.000 NA
ATOM      4  C   UNL     1       1.751   7.176  20.267  0.00  0.00    +0.000 A 
ATOM      5  C   UNL     1       2.199   7.435  18.975  0.00  0.00    +0.000 A 
ATOM      6  C   UNL     1       1.824   8.776  18.603  0.00  0.00    +0.000 C 
ATOM      7  O   UNL     1       2.002   9.319  17.529  0.00  0.00    +0.000 OA
ATOM      8  C   UNL     1       1.002   9.296  19.779  0.00  0.00    +0.000 A 
ATOM      9  C   UNL     1       0.259  10.455  20.000  0.00  0.00    +0.000 A 
ATOM     10  C   UNL     1       0.020  10.780  21.347  0.00  0.00    +0.000 A 
ATOM     11  C   UNL     1       0.375   9.919  22.404  0.00  0.00    +0.000 A 
ATOM     12  C   UNL     1       0.898   8.651  22.134  0.00  0.00    +0.000 A 
ATOM     13  C   UNL     1       1.164   8.354  20.821  0.00  0.00    +0.000 A 
ATOM     14  H   UNL     1       2.781   4.414  19.568  0.00  0.00    +0.000 HD
ENDROOT
BRANCH   1  18
ATOM     15  C   UNL     1       6.221   5.506  16.002  0.00  0.00    +0.000 A 
ATOM     16  C   UNL     1       6.095   6.779  16.563  0.00  0.00    +0.000 A 
ATOM     17  C   UNL     1       5.027   7.087  17.419  0.00  0.00    +0.000 A 
ATOM     18  C   UNL     1       4.053   6.128  17.692  0.00  0.00    +0.000 A 
ATOM     19  C   UNL     1       4.184   4.853  17.116  0.00  0.00    +0.000 A 
ATOM     20  C   UNL     1       5.257   4.541  16.280  0.00  0.00    +0.000 A 
BRANCH  15  22
ATOM     21  C   UNL     1       7.008   4.759  13.905  0.00  0.00    +0.000 C 
ATOM     22  O   UNL     1       7.300   5.314  15.184  0.00  0.00    +0.000 OA
ENDBRANCH  15  22
ENDBRANCH   1  18
BRANCH   9  23
ATOM     23  N   UNL     1      -0.346  11.311  19.041  0.00  0.00    +0.000 N 
ATOM     24  C   UNL     1       0.072  12.509  18.513  0.00  0.00    +0.000 C 
ATOM     25  O   UNL     1      -0.598  13.066  17.636  0.00  0.00    +0.000 OA
ATOM     26  N   UNL     1       1.289  12.957  18.910  0.00  0.00    +0.000 N 
ATOM     27  H   UNL     1      -1.050  10.903  18.433  0.00  0.00    +0.000 HD
ATOM     28  H   UNL     1       1.466  12.855  19.895  0.00  0.00    +0.000 HD
BRANCH  26  29
ATOM     29  N   UNL     1       1.791  14.170  18.489  0.00  0.00    +0.000 N 
ATOM     30  C   UNL     1       2.151  15.074  19.471  0.00  0.00    +0.000 C 
ATOM     31  O   UNL     1       2.084  14.839  20.679  0.00  0.00    +0.000 OA
ATOM     32  H   UNL     1       1.865  14.326  17.490  0.00  0.00    +0.000 HD
BRANCH  30  33
ATOM     33  C   UNL     1       2.665  16.385  18.922  0.00  0.00    +0.000 C 
BRANCH  33  34
ATOM     34  C   UNL     1       1.562  17.167  18.261  0.00  0.00    +0.000 A 
ATOM     35  C   UNL     1       0.274  17.188  18.806  0.00  0.00    +0.000 A 
ATOM     36  C   UNL     1      -0.768  17.816  18.121  0.00  0.00    +0.000 A 
ATOM     37  C   UNL     1      -0.528  18.432  16.895  0.00  0.00    +0.000 A 
ATOM     38  C   UNL     1       0.761  18.459  16.368  0.00  0.00    +0.000 A 
ATOM     39  C   UNL     1       1.804  17.837  17.052  0.00  0.00    +0.000 A 
ENDBRANCH  33  34
ENDBRANCH  30  33
ENDBRANCH  26  29
ENDBRANCH   9  23
TORSDOF 6
ENDMDL
MODEL 3
REMARK VINA RESULT:      -9.2      0.401      1.198
REMARK  Name = 
REMARK  7 active torsions:
REMARK  status: ('A' for Active; 'I' for Inactive)
REMARK    1  A    between atoms: C_1  and  O_2
REMARK    2  A    between atoms: O_2  and  C_3
REMARK    3  A    between atoms: C_6  and  C_7
REMARK    4  A    between atoms: C_15  and  N_16
REMARK    5  A    between atoms: N_19  and  N_20
REMARK    6  A    between atoms: C_21  and  C_23
REMARK    7  A    between atoms: C_23  and  C_24
REMARK                            x       y       z     vdW  Elec       q    Type
REMARK                         _______ _______ _______ _____ _____    ______ ____
ROOT
ATOM      1  C   UNL     1       2.720   5.866  18.696  0.00  0.00    +0.000 A 
ATOM      2  N   UNL     1       2.156   5.096  19.706  0.00  0.00    +0.000 N 
ATOM      3  N   UNL     1       1.669   5.820  20.748  0.00  0.00    +0.000 NA
ATOM      4  C   UNL     1       1.708   7.043  20.246  0.00  0.00    +0.000 A 
ATOM      5  C   UNL     1       2.185   7.103  18.941  0.00  0.00    +0.000 A 
ATOM      6  C   UNL     1       2.083   8.457  18.459  0.00  0.00    +0.000 C 
ATOM      7  O   UNL     1       2.355   8.866  17.347  0.00  0.00    +0.000 OA
ATOM      8  C   UNL     1       1.394   9.224  19.585  0.00  0.00    +0.000 A 
ATOM      9  C   UNL     1       0.901  10.522  19.707  0.00  0.00    +0.000 A 
ATOM     10  C   UNL     1       0.746  10.995  21.023  0.00  0.00    +0.000 A 
ATOM     11  C   UNL     1       0.932  10.168  22.147  0.00  0.00    +0.000 A 
ATOM     12  C   UNL     1       1.187   8.803  21.983  0.00  0.00    +0.000 A 
ATOM     13  C   UNL     1       1.374   8.356  20.701  0.00  0.00    +0.000 A 
ATOM     14  H   UNL     1       2.157   4.084  19.778  0.00  0.00    +0.000 HD
ENDROOT
BRANCH   1  18
ATOM     15  C   UNL     1       5.548   4.456  15.823  0.00  0.00    +0.000 A 
ATOM     16  C   UNL     1       4.916   3.550  16.679  0.00  0.00    +0.000 A 
ATOM     17  C   UNL     1       3.996   3.991  17.641  0.00  0.00    +0.000 A 
ATOM     18  C   UNL     1       3.726   5.352  17.778  0.00  0.00    +0.000 A 
ATOM     19  C   UNL     1       4.373   6.256  16.918  0.00  0.00    +0.000 A 
ATOM     20  C   UNL     1       5.274   5.815  15.947  0.00  0.00    +0.000 A 
BRANCH  15  22
ATOM     21  C   UNL     1       7.106   4.858  14.094  0.00  0.00    +0.000 C 
ATOM     22  O   UNL     1       6.425   3.919  14.921  0.00  0.00    +0.000 OA
ENDBRANCH  15  22
ENDBRANCH   1  18
BRANCH   9  23
ATOM     23  N   UNL     1       0.469  11.402  18.679  0.00  0.00    +0.000 N 
ATOM     24  C   UNL     1      -0.794  11.798  18.305  0.00  0.00    +0.000 C 
ATOM     25  O   UNL     1      -0.939  12.627  17.399  0.00  0.00    +0.000 OA
ATOM     26  N   UNL     1      -1.824  11.332  19.054  0.00  0.00    +0.000 N 
ATOM     27  H   UNL     1       1.149  12.063  18.316  0.00  0.00    +0.000 HD
ATOM     28  H   UNL     1      -1.751  10.360  19.299  0.00  0.00    +0.000 HD
BRANCH  26  29
ATOM     29  N   UNL     1      -3.136  11.618  18.744  0.00  0.00    +0.000 N 
ATOM     30  C   UNL     1      -3.785  10.742  17.894  0.00  0.00    +0.000 C 
ATOM     31  O   UNL     1      -3.270   9.717  17.441  0.00  0.00    +0.000 OA
ATOM     32  H   UNL     1      -3.546  12.450  19.155  0.00  0.00    +0.000 HD
BRANCH  30  33
ATOM     33  C   UNL     1      -5.208  11.145  17.586  0.00  0.00    +0.000 C 
BRANCH  33  34
ATOM     34  C   UNL     1      -6.087  11.007  18.801  0.00  0.00    +0.000 A 
ATOM     35  C   UNL     1      -6.416   9.745  19.306  0.00  0.00    +0.000 A 
ATOM     36  C   UNL     1      -7.327   9.624  20.356  0.00  0.00    +0.000 A 
ATOM     37  C   UNL     1      -7.907  10.762  20.912  0.00  0.00    +0.000 A 
ATOM     38  C   UNL     1      -7.550  12.026  20.448  0.00  0.00    +0.000 A 
ATOM     39  C   UNL     1      -6.636  12.149  19.403  0.00  0.00    +0.000 A 
ENDBRANCH  33  34
ENDBRANCH  30  33
ENDBRANCH  26  29
ENDBRANCH   9  23
TORSDOF 6
ENDMDL
MODEL 4
REMARK VINA RESULT:      -9.2      3.642      6.716
REMARK  Name = 
REMARK  7 active torsions:
REMARK  status: ('A' for Active; 'I' for Inactive)
REMARK    1  A    between atoms: C_1  and  O_2
REMARK    2  A    between atoms: O_2  and  C_3
REMARK    3  A    between atoms: C_6  and  C_7
REMARK    4  A    between atoms: C_15  and  N_16
REMARK    5  A    between atoms: N_19  and  N_20
REMARK    6  A    between atoms: C_21  and  C_23
REMARK    7  A    between atoms: C_23  and  C_24
REMARK                            x       y       z     vdW  Elec       q    Type
REMARK                         _______ _______ _______ _____ _____    ______ ____
ROOT
ATOM      1  C   UNL     1       2.899   6.322  18.658  0.00  0.00    +0.000 A 
ATOM      2  N   UNL     1       2.490   5.350  19.564  0.00  0.00    +0.000 N 
ATOM      3  N   UNL     1       1.879   5.849  20.671  0.00  0.00    +0.000 NA
ATOM      4  C   UNL     1       1.691   7.107  20.312  0.00  0.00    +0.000 A 
ATOM      5  C   UNL     1       2.146   7.403  19.031  0.00  0.00    +0.000 A 
ATOM      6  C   UNL     1       1.796   8.762  18.704  0.00  0.00    +0.000 C 
ATOM      7  O   UNL     1       1.985   9.338  17.650  0.00  0.00    +0.000 OA
ATOM      8  C   UNL     1       0.980   9.255  19.896  0.00  0.00    +0.000 A 
ATOM      9  C   UNL     1       0.256  10.418  20.155  0.00  0.00    +0.000 A 
ATOM     10  C   UNL     1       0.019  10.701  21.512  0.00  0.00    +0.000 A 
ATOM     11  C   UNL     1       0.356   9.798  22.539  0.00  0.00    +0.000 A 
ATOM     12  C   UNL     1       0.858   8.531  22.227  0.00  0.00    +0.000 A 
ATOM     13  C   UNL     1       1.122   8.276  20.906  0.00  0.00    +0.000 A 
ATOM     14  H   UNL     1       2.676   4.354  19.521  0.00  0.00    +0.000 HD
ENDROOT
BRANCH   1  18
ATOM     15  C   UNL     1       6.149   5.515  16.007  0.00  0.00    +0.000 A 
ATOM     16  C   UNL     1       6.014   6.784  16.574  0.00  0.00    +0.000 A 
ATOM     17  C   UNL     1       4.946   7.078  17.435  0.00  0.00    +0.000 A 
ATOM     18  C   UNL     1       3.981   6.109  17.708  0.00  0.00    +0.000 A 
ATOM     19  C   UNL     1       4.122   4.838  17.125  0.00  0.00    +0.000 A 
ATOM     20  C   UNL     1       5.195   4.540  16.284  0.00  0.00    +0.000 A 
BRANCH  15  22
ATOM     21  C   UNL     1       6.956   4.667  13.956  0.00  0.00    +0.000 C 
ATOM     22  O   UNL     1       7.227   5.336  15.184  0.00  0.00    +0.000 OA
ENDBRANCH  15  22
ENDBRANCH   1  18
BRANCH   9  23
ATOM     23  N   UNL     1      -0.333  11.316  19.224  0.00  0.00    +0.000 N 
ATOM     24  C   UNL     1       0.234  12.270  18.413  0.00  0.00    +0.000 C 
ATOM     25  O   UNL     1      -0.472  12.914  17.629  0.00  0.00    +0.000 OA
ATOM     26  N   UNL     1       1.587  12.364  18.438  0.00  0.00    +0.000 N 
ATOM     27  H   UNL     1      -1.257  11.083  18.874  0.00  0.00    +0.000 HD
ATOM     28  H   UNL     1       1.988  12.313  19.358  0.00  0.00    +0.000 HD
BRANCH  26  29
ATOM     29  N   UNL     1       2.263  13.317  17.707  0.00  0.00    +0.000 N 
ATOM     30  C   UNL     1       2.778  14.394  18.406  0.00  0.00    +0.000 C 
ATOM     31  O   UNL     1       2.698  14.520  19.629  0.00  0.00    +0.000 OA
ATOM     32  H   UNL     1       2.342  13.174  16.706  0.00  0.00    +0.000 HD
BRANCH  30  33
ATOM     33  C   UNL     1       3.479  15.402  17.525  0.00  0.00    +0.000 C 
BRANCH  33  34
ATOM     34  C   UNL     1       4.896  15.629  17.979  0.00  0.00    +0.000 A 
ATOM     35  C   UNL     1       5.880  14.657  17.770  0.00  0.00    +0.000 A 
ATOM     36  C   UNL     1       7.159  14.826  18.302  0.00  0.00    +0.000 A 
ATOM     37  C   UNL     1       7.465  15.969  19.037  0.00  0.00    +0.000 A 
ATOM     38  C   UNL     1       6.507  16.965  19.209  0.00  0.00    +0.000 A 
ATOM     39  C   UNL     1       5.230  16.801  18.674  0.00  0.00    +0.000 A 
ENDBRANCH  33  34
ENDBRANCH  30  33
ENDBRANCH  26  29
ENDBRANCH   9  23
TORSDOF 6
ENDMDL
MODEL 5
REMARK VINA RESULT:      -9.2      3.638      6.678
REMARK  Name = 
REMARK  7 active torsions:
REMARK  status: ('A' for Active; 'I' for Inactive)
REMARK    1  A    between atoms: C_1  and  O_2
REMARK    2  A    between atoms: O_2  and  C_3
REMARK    3  A    between atoms: C_6  and  C_7
REMARK    4  A    between atoms: C_15  and  N_16
REMARK    5  A    between atoms: N_19  and  N_20
REMARK    6  A    between atoms: C_21  and  C_23
REMARK    7  A    between atoms: C_23  and  C_24
REMARK                            x       y       z     vdW  Elec       q    Type
REMARK                         _______ _______ _______ _____ _____    ______ ____
ROOT
ATOM      1  C   UNL     1       2.939   6.480  19.079  0.00  0.00    +0.000 A 
ATOM      2  N   UNL     1       2.495   5.507  19.967  0.00  0.00    +0.000 N 
ATOM      3  N   UNL     1       1.772   5.998  21.009  0.00  0.00    +0.000 NA
ATOM      4  C   UNL     1       1.563   7.241  20.609  0.00  0.00    +0.000 A 
ATOM      5  C   UNL     1       2.113   7.534  19.365  0.00  0.00    +0.000 A 
ATOM      6  C   UNL     1       1.735   8.870  18.981  0.00  0.00    +0.000 C 
ATOM      7  O   UNL     1       1.989   9.436  17.935  0.00  0.00    +0.000 OA
ATOM      8  C   UNL     1       0.800   9.348  20.089  0.00  0.00    +0.000 A 
ATOM      9  C   UNL     1       0.009  10.483  20.262  0.00  0.00    +0.000 A 
ATOM     10  C   UNL     1      -0.354  10.779  21.588  0.00  0.00    +0.000 A 
ATOM     11  C   UNL     1      -0.068   9.909  22.659  0.00  0.00    +0.000 A 
ATOM     12  C   UNL     1       0.512   8.660  22.416  0.00  0.00    +0.000 A 
ATOM     13  C   UNL     1       0.897   8.393  21.128  0.00  0.00    +0.000 A 
ATOM     14  H   UNL     1       2.726   4.519  19.961  0.00  0.00    +0.000 HD
ENDROOT
BRANCH   1  18
ATOM     15  C   UNL     1       6.218   5.850  16.416  0.00  0.00    +0.000 A 
ATOM     16  C   UNL     1       6.252   5.303  17.701  0.00  0.00    +0.000 A 
ATOM     17  C   UNL     1       5.194   5.509  18.600  0.00  0.00    +0.000 A 
ATOM     18  C   UNL     1       4.106   6.298  18.228  0.00  0.00    +0.000 A 
ATOM     19  C   UNL     1       4.086   6.851  16.936  0.00  0.00    +0.000 A 
ATOM     20  C   UNL     1       5.129   6.629  16.036  0.00  0.00    +0.000 A 
BRANCH  15  22
ATOM     21  C   UNL     1       7.036   4.782  14.475  0.00  0.00    +0.000 C 
ATOM     22  O   UNL     1       7.300   5.585  15.622  0.00  0.00    +0.000 OA
ENDBRANCH  15  22
ENDBRANCH   1  18
BRANCH   9  23
ATOM     23  N   UNL     1      -0.535  11.339  19.267  0.00  0.00    +0.000 N 
ATOM     24  C   UNL     1       0.070  12.254  18.438  0.00  0.00    +0.000 C 
ATOM     25  O   UNL     1      -0.599  12.862  17.595  0.00  0.00    +0.000 OA
ATOM     26  N   UNL     1       1.420  12.347  18.518  0.00  0.00    +0.000 N 
ATOM     27  H   UNL     1      -1.444  11.091  18.887  0.00  0.00    +0.000 HD
ATOM     28  H   UNL     1       1.781  12.337  19.456  0.00  0.00    +0.000 HD
BRANCH  26  29
ATOM     29  N   UNL     1       2.131  13.265  17.775  0.00  0.00    +0.000 N 
ATOM     30  C   UNL     1       2.632  14.364  18.449  0.00  0.00    +0.000 C 
ATOM     31  O   UNL     1       2.511  14.538  19.663  0.00  0.00    +0.000 OA
ATOM     32  H   UNL     1       2.244  13.081  16.784  0.00  0.00    +0.000 HD
BRANCH  30  33
ATOM     33  C   UNL     1       3.374  15.330  17.555  0.00  0.00    +0.000 C 
BRANCH  33  34
ATOM     34  C   UNL     1       4.780  15.554  18.043  0.00  0.00    +0.000 A 
ATOM     35  C   UNL     1       5.127  16.735  18.708  0.00  0.00    +0.000 A 
ATOM     36  C   UNL     1       6.457  16.984  19.048  0.00  0.00    +0.000 A 
ATOM     37  C   UNL     1       7.445  16.053  18.735  0.00  0.00    +0.000 A 
ATOM     38  C   UNL     1       7.102  14.853  18.117  0.00  0.00    +0.000 A 
ATOM     39  C   UNL     1       5.774  14.599  17.781  0.00  0.00    +0.000 A 
ENDBRANCH  33  34
ENDBRANCH  30  33
ENDBRANCH  26  29
ENDBRANCH   9  23
TORSDOF 6
ENDMDL
MODEL 6
REMARK VINA RESULT:      -8.9      3.637      5.482
REMARK  Name = 
REMARK  7 active torsions:
REMARK  status: ('A' for Active; 'I' for Inactive)
REMARK    1  A    between atoms: C_1  and  O_2
REMARK    2  A    between atoms: O_2  and  C_3
REMARK    3  A    between atoms: C_6  and  C_7
REMARK    4  A    between atoms: C_15  and  N_16
REMARK    5  A    between atoms: N_19  and  N_20
REMARK    6  A    between atoms: C_21  and  C_23
REMARK    7  A    between atoms: C_23  and  C_24
REMARK                            x       y       z     vdW  Elec       q    Type
REMARK                         _______ _______ _______ _____ _____    ______ ____
ROOT
ATOM      1  C   UNL     1       2.872   6.116  18.540  0.00  0.00    +0.000 A 
ATOM      2  N   UNL     1       2.404   5.202  19.476  0.00  0.00    +0.000 N 
ATOM      3  N   UNL     1       1.851   5.773  20.579  0.00  0.00    +0.000 NA
ATOM      4  C   UNL     1       1.753   7.033  20.190  0.00  0.00    +0.000 A 
ATOM      5  C   UNL     1       2.209   7.261  18.895  0.00  0.00    +0.000 A 
ATOM      6  C   UNL     1       1.958   8.634  18.538  0.00  0.00    +0.000 C 
ATOM      7  O   UNL     1       2.174   9.168  17.467  0.00  0.00    +0.000 OA
ATOM      8  C   UNL     1       1.200   9.217  19.728  0.00  0.00    +0.000 A 
ATOM      9  C   UNL     1       0.571  10.439  19.966  0.00  0.00    +0.000 A 
ATOM     10  C   UNL     1       0.377  10.772  21.319  0.00  0.00    +0.000 A 
ATOM     11  C   UNL     1       0.661   9.872  22.364  0.00  0.00    +0.000 A 
ATOM     12  C   UNL     1       1.061   8.563  22.078  0.00  0.00    +0.000 A 
ATOM     13  C   UNL     1       1.284   8.255  20.761  0.00  0.00    +0.000 A 
ATOM     14  H   UNL     1       2.514   4.193  19.457  0.00  0.00    +0.000 HD
ENDROOT
BRANCH   1  18
ATOM     15  C   UNL     1       5.806   5.275  15.553  0.00  0.00    +0.000 A 
ATOM     16  C   UNL     1       5.322   4.243  16.361  0.00  0.00    +0.000 A 
ATOM     17  C   UNL     1       4.370   4.498  17.360  0.00  0.00    +0.000 A 
ATOM     18  C   UNL     1       3.920   5.799  17.581  0.00  0.00    +0.000 A 
ATOM     19  C   UNL     1       4.420   6.831  16.768  0.00  0.00    +0.000 A 
ATOM     20  C   UNL     1       5.352   6.574  15.761  0.00  0.00    +0.000 A 
BRANCH  15  22
ATOM     21  C   UNL     1       6.252   4.054  13.582  0.00  0.00    +0.000 C 
ATOM     22  O   UNL     1       6.730   4.916  14.610  0.00  0.00    +0.000 OA
ENDBRANCH  15  22
ENDBRANCH   1  18
BRANCH   9  23
ATOM     23  N   UNL     1       0.037  11.356  19.021  0.00  0.00    +0.000 N 
ATOM     24  C   UNL     1       0.265  12.699  18.844  0.00  0.00    +0.000 C 
ATOM     25  O   UNL     1      -0.276  13.301  17.909  0.00  0.00    +0.000 OA
ATOM     26  N   UNL     1       1.189  13.272  19.656  0.00  0.00    +0.000 N 
ATOM     27  H   UNL     1      -0.363  10.968  18.172  0.00  0.00    +0.000 HD
ATOM     28  H   UNL     1       1.128  12.986  20.618  0.00  0.00    +0.000 HD
BRANCH  26  29
ATOM     29  N   UNL     1       1.463  14.622  19.607  0.00  0.00    +0.000 N 
ATOM     30  C   UNL     1       2.462  15.028  18.741  0.00  0.00    +0.000 C 
ATOM     31  O   UNL     1       3.079  14.262  17.998  0.00  0.00    +0.000 OA
ATOM     32  H   UNL     1       0.920  15.234  20.206  0.00  0.00    +0.000 HD
BRANCH  30  33
ATOM     33  C   UNL     1       2.715  16.517  18.772  0.00  0.00    +0.000 C 
BRANCH  33  34
ATOM     34  C   UNL     1       1.590  17.273  18.117  0.00  0.00    +0.000 A 
ATOM     35  C   UNL     1       0.324  17.326  18.709  0.00  0.00    +0.000 A 
ATOM     36  C   UNL     1      -0.742  17.926  18.036  0.00  0.00    +0.000 A 
ATOM     37  C   UNL     1      -0.546  18.483  16.773  0.00  0.00    +0.000 A 
ATOM     38  C   UNL     1       0.722  18.478  16.197  0.00  0.00    +0.000 A 
ATOM     39  C   UNL     1       1.788  17.885  16.870  0.00  0.00    +0.000 A 
ENDBRANCH  33  34
ENDBRANCH  30  33
ENDBRANCH  26  29
ENDBRANCH   9  23
TORSDOF 6
ENDMDL
MODEL 7
REMARK VINA RESULT:      -8.8      3.627      5.355
REMARK  Name = 
REMARK  7 active torsions:
REMARK  status: ('A' for Active; 'I' for Inactive)
REMARK    1  A    between atoms: C_1  and  O_2
REMARK    2  A    between atoms: O_2  and  C_3
REMARK    3  A    between atoms: C_6  and  C_7
REMARK    4  A    between atoms: C_15  and  N_16
REMARK    5  A    between atoms: N_19  and  N_20
REMARK    6  A    between atoms: C_21  and  C_23
REMARK    7  A    between atoms: C_23  and  C_24
REMARK                            x       y       z     vdW  Elec       q    Type
REMARK                         _______ _______ _______ _____ _____    ______ ____
ROOT
ATOM      1  C   UNL     1       3.187   6.002  18.548  0.00  0.00    +0.000 A 
ATOM      2  N   UNL     1       2.724   5.064  19.463  0.00  0.00    +0.000 N 
ATOM      3  N   UNL     1       2.087   5.605  20.535  0.00  0.00    +0.000 NA
ATOM      4  C   UNL     1       1.941   6.857  20.138  0.00  0.00    +0.000 A 
ATOM      5  C   UNL     1       2.447   7.109  18.867  0.00  0.00    +0.000 A 
ATOM      6  C   UNL     1       2.140   8.467  18.493  0.00  0.00    +0.000 C 
ATOM      7  O   UNL     1       2.380   9.011  17.432  0.00  0.00    +0.000 OA
ATOM      8  C   UNL     1       1.295   9.009  19.643  0.00  0.00    +0.000 A 
ATOM      9  C   UNL     1       0.590  10.195  19.846  0.00  0.00    +0.000 A 
ATOM     10  C   UNL     1       0.313  10.518  21.187  0.00  0.00    +0.000 A 
ATOM     11  C   UNL     1       0.594   9.635  22.248  0.00  0.00    +0.000 A 
ATOM     12  C   UNL     1       1.077   8.349  21.986  0.00  0.00    +0.000 A 
ATOM     13  C   UNL     1       1.380   8.053  20.681  0.00  0.00    +0.000 A 
ATOM     14  H   UNL     1       2.889   4.063  19.452  0.00  0.00    +0.000 HD
ENDROOT
BRANCH   1  18
ATOM     15  C   UNL     1       6.376   5.429  15.764  0.00  0.00    +0.000 A 
ATOM     16  C   UNL     1       5.447   4.407  15.978  0.00  0.00    +0.000 A 
ATOM     17  C   UNL     1       4.401   4.565  16.898  0.00  0.00    +0.000 A 
ATOM     18  C   UNL     1       4.296   5.740  17.642  0.00  0.00    +0.000 A 
ATOM     19  C   UNL     1       5.240   6.759  17.426  0.00  0.00    +0.000 A 
ATOM     20  C   UNL     1       6.270   6.609  16.495  0.00  0.00    +0.000 A 
BRANCH  15  22
ATOM     21  C   UNL     1       6.900   4.645  13.599  0.00  0.00    +0.000 C 
ATOM     22  O   UNL     1       7.353   5.170  14.843  0.00  0.00    +0.000 OA
ENDBRANCH  15  22
ENDBRANCH   1  18
BRANCH   9  23
ATOM     23  N   UNL     1       0.055  11.081  18.874  0.00  0.00    +0.000 N 
ATOM     24  C   UNL     1       0.368  12.387  18.578  0.00  0.00    +0.000 C 
ATOM     25  O   UNL     1      -0.197  12.961  17.640  0.00  0.00    +0.000 OA
ATOM     26  N   UNL     1       1.391  12.940  19.276  0.00  0.00    +0.000 N 
ATOM     27  H   UNL     1      -0.436  10.667  18.088  0.00  0.00    +0.000 HD
ATOM     28  H   UNL     1       1.383  12.730  20.259  0.00  0.00    +0.000 HD
BRANCH  26  29
ATOM     29  N   UNL     1       1.760  14.257  19.103  0.00  0.00    +0.000 N 
ATOM     30  C   UNL     1       1.548  15.113  20.169  0.00  0.00    +0.000 C 
ATOM     31  O   UNL     1       1.092  14.754  21.256  0.00  0.00    +0.000 OA
ATOM     32  H   UNL     1       2.162  14.519  18.210  0.00  0.00    +0.000 HD
BRANCH  30  33
ATOM     33  C   UNL     1       1.956  16.539  19.884  0.00  0.00    +0.000 C 
BRANCH  33  34
ATOM     34  C   UNL     1       1.115  17.137  18.788  0.00  0.00    +0.000 A 
ATOM     35  C   UNL     1       1.706  17.623  17.617  0.00  0.00    +0.000 A 
ATOM     36  C   UNL     1       0.933  18.283  16.662  0.00  0.00    +0.000 A 
ATOM     37  C   UNL     1      -0.435  18.454  16.866  0.00  0.00    +0.000 A 
ATOM     38  C   UNL     1      -1.041  17.931  18.005  0.00  0.00    +0.000 A 
ATOM     39  C   UNL     1      -0.271  17.266  18.958  0.00  0.00    +0.000 A 
ENDBRANCH  33  34
ENDBRANCH  30  33
ENDBRANCH  26  29
ENDBRANCH   9  23
TORSDOF 6
ENDMDL
MODEL 8
REMARK VINA RESULT:      -8.8      1.677      2.157
REMARK  Name = 
REMARK  7 active torsions:
REMARK  status: ('A' for Active; 'I' for Inactive)
REMARK    1  A    between atoms: C_1  and  O_2
REMARK    2  A    between atoms: O_2  and  C_3
REMARK    3  A    between atoms: C_6  and  C_7
REMARK    4  A    between atoms: C_15  and  N_16
REMARK    5  A    between atoms: N_19  and  N_20
REMARK    6  A    between atoms: C_21  and  C_23
REMARK    7  A    between atoms: C_23  and  C_24
REMARK                            x       y       z     vdW  Elec       q    Type
REMARK                         _______ _______ _______ _____ _____    ______ ____
ROOT
ATOM      1  C   UNL     1       3.177   6.020  18.691  0.00  0.00    +0.000 A 
ATOM      2  N   UNL     1       2.785   5.166  19.714  0.00  0.00    +0.000 N 
ATOM      3  N   UNL     1       2.161   5.791  20.748  0.00  0.00    +0.000 NA
ATOM      4  C   UNL     1       1.949   6.988  20.229  0.00  0.00    +0.000 A 
ATOM      5  C   UNL     1       2.401   7.125  18.920  0.00  0.00    +0.000 A 
ATOM      6  C   UNL     1       2.023   8.422  18.420  0.00  0.00    +0.000 C 
ATOM      7  O   UNL     1       2.204   8.861  17.300  0.00  0.00    +0.000 OA
ATOM      8  C   UNL     1       1.194   9.048  19.538  0.00  0.00    +0.000 A 
ATOM      9  C   UNL     1       0.446  10.221  19.644  0.00  0.00    +0.000 A 
ATOM     10  C   UNL     1       0.199  10.672  20.953  0.00  0.00    +0.000 A 
ATOM     11  C   UNL     1       0.553   9.916  22.089  0.00  0.00    +0.000 A 
ATOM     12  C   UNL     1       1.082   8.631  21.943  0.00  0.00    +0.000 A 
ATOM     13  C   UNL     1       1.354   8.212  20.666  0.00  0.00    +0.000 A 
ATOM     14  H   UNL     1       2.992   4.177  19.801  0.00  0.00    +0.000 HD
ENDROOT
BRANCH   1  18
ATOM     15  C   UNL     1       6.391   4.893  16.114  0.00  0.00    +0.000 A 
ATOM     16  C   UNL     1       6.490   6.058  16.879  0.00  0.00    +0.000 A 
ATOM     17  C   UNL     1       5.440   6.458  17.720  0.00  0.00    +0.000 A 
ATOM     18  C   UNL     1       4.266   5.709  17.776  0.00  0.00    +0.000 A 
ATOM     19  C   UNL     1       4.174   4.543  16.996  0.00  0.00    +0.000 A 
ATOM     20  C   UNL     1       5.225   4.135  16.174  0.00  0.00    +0.000 A 
BRANCH  15  22
ATOM     21  C   UNL     1       7.269   4.738  13.927  0.00  0.00    +0.000 C 
ATOM     22  O   UNL     1       7.472   4.596  15.330  0.00  0.00    +0.000 OA
ENDBRANCH  15  22
ENDBRANCH   1  18
BRANCH   9  23
ATOM     23  N   UNL     1      -0.159  10.978  18.605  0.00  0.00    +0.000 N 
ATOM     24  C   UNL     1      -1.281  11.772  18.607  0.00  0.00    +0.000 C 
ATOM     25  O   UNL     1      -1.602  12.391  17.587  0.00  0.00    +0.000 OA
ATOM     26  N   UNL     1      -1.916  11.925  19.796  0.00  0.00    +0.000 N 
ATOM     27  H   UNL     1       0.421  11.218  17.807  0.00  0.00    +0.000 HD
ATOM     28  H   UNL     1      -2.009  11.077  20.327  0.00  0.00    +0.000 HD
BRANCH  26  29
ATOM     29  N   UNL     1      -3.081  12.654  19.910  0.00  0.00    +0.000 N 
ATOM     30  C   UNL     1      -3.384  13.158  21.161  0.00  0.00    +0.000 C 
ATOM     31  O   UNL     1      -2.660  13.024  22.150  0.00  0.00    +0.000 OA
ATOM     32  H   UNL     1      -3.642  12.777  19.074  0.00  0.00    +0.000 HD
BRANCH  30  33
ATOM     33  C   UNL     1      -4.689  13.920  21.201  0.00  0.00    +0.000 C 
BRANCH  33  34
ATOM     34  C   UNL     1      -5.768  13.116  21.876  0.00  0.00    +0.000 A 
ATOM     35  C   UNL     1      -6.587  12.256  21.137  0.00  0.00    +0.000 A 
ATOM     36  C   UNL     1      -7.661  11.609  21.751  0.00  0.00    +0.000 A 
ATOM     37  C   UNL     1      -7.915  11.810  23.106  0.00  0.00    +0.000 A 
ATOM     38  C   UNL     1      -7.076  12.625  23.861  0.00  0.00    +0.000 A 
ATOM     39  C   UNL     1      -6.000  13.268  23.251  0.00  0.00    +0.000 A 
ENDBRANCH  33  34
ENDBRANCH  30  33
ENDBRANCH  26  29
ENDBRANCH   9  23
TORSDOF 6
ENDMDL
MODEL 9
REMARK VINA RESULT:      -8.8      1.414      1.868
REMARK  Name = 
REMARK  7 active torsions:
REMARK  status: ('A' for Active; 'I' for Inactive)
REMARK    1  A    between atoms: C_1  and  O_2
REMARK    2  A    between atoms: O_2  and  C_3
REMARK    3  A    between atoms: C_6  and  C_7
REMARK    4  A    between atoms: C_15  and  N_16
REMARK    5  A    between atoms: N_19  and  N_20
REMARK    6  A    between atoms: C_21  and  C_23
REMARK    7  A    between atoms: C_23  and  C_24
REMARK                            x       y       z     vdW  Elec       q    Type
REMARK                         _______ _______ _______ _____ _____    ______ ____
ROOT
ATOM      1  C   UNL     1       3.032   6.090  18.577  0.00  0.00    +0.000 A 
ATOM      2  N   UNL     1       2.479   5.229  19.518  0.00  0.00    +0.000 N 
ATOM      3  N   UNL     1       1.839   5.862  20.537  0.00  0.00    +0.000 NA
ATOM      4  C   UNL     1       1.785   7.099  20.073  0.00  0.00    +0.000 A 
ATOM      5  C   UNL     1       2.351   7.255  18.812  0.00  0.00    +0.000 A 
ATOM      6  C   UNL     1       2.142   8.607  18.360  0.00  0.00    +0.000 C 
ATOM      7  O   UNL     1       2.453   9.080  17.284  0.00  0.00    +0.000 OA
ATOM      8  C   UNL     1       1.291   9.257  19.448  0.00  0.00    +0.000 A 
ATOM      9  C   UNL     1       0.654  10.492  19.565  0.00  0.00    +0.000 A 
ATOM     10  C   UNL     1       0.350  10.900  20.877  0.00  0.00    +0.000 A 
ATOM     11  C   UNL     1       0.537  10.057  21.990  0.00  0.00    +0.000 A 
ATOM     12  C   UNL     1       0.949   8.733  21.810  0.00  0.00    +0.000 A 
ATOM     13  C   UNL     1       1.280   8.353  20.535  0.00  0.00    +0.000 A 
ATOM     14  H   UNL     1       2.582   4.221  19.563  0.00  0.00    +0.000 HD
ENDROOT
BRANCH   1  18
ATOM     15  C   UNL     1       6.307   5.208  15.981  0.00  0.00    +0.000 A 
ATOM     16  C   UNL     1       5.199   4.358  16.015  0.00  0.00    +0.000 A 
ATOM     17  C   UNL     1       4.118   4.617  16.871  0.00  0.00    +0.000 A 
ATOM     18  C   UNL     1       4.155   5.716  17.729  0.00  0.00    +0.000 A 
ATOM     19  C   UNL     1       5.278   6.560  17.693  0.00  0.00    +0.000 A 
ATOM     20  C   UNL     1       6.344   6.313  16.827  0.00  0.00    +0.000 A 
BRANCH  15  22
ATOM     21  C   UNL     1       6.872   4.234  13.905  0.00  0.00    +0.000 C 
ATOM     22  O   UNL     1       7.303   4.862  15.109  0.00  0.00    +0.000 OA
ENDBRANCH  15  22
ENDBRANCH   1  18
BRANCH   9  23
ATOM     23  N   UNL     1       0.210  11.357  18.530  0.00  0.00    +0.000 N 
ATOM     24  C   UNL     1      -0.949  12.085  18.401  0.00  0.00    +0.000 C 
ATOM     25  O   UNL     1      -1.109  12.826  17.424  0.00  0.00    +0.000 OA
ATOM     26  N   UNL     1      -1.817  12.035  19.442  0.00  0.00    +0.000 N 
ATOM     27  H   UNL     1       0.916  11.737  17.907  0.00  0.00    +0.000 HD
ATOM     28  H   UNL     1      -1.947  11.116  19.829  0.00  0.00    +0.000 HD
BRANCH  26  29
ATOM     29  N   UNL     1      -3.035  12.680  19.404  0.00  0.00    +0.000 N 
ATOM     30  C   UNL     1      -3.664  12.903  20.616  0.00  0.00    +0.000 C 
ATOM     31  O   UNL     1      -3.180  12.595  21.707  0.00  0.00    +0.000 OA
ATOM     32  H   UNL     1      -3.396  12.951  18.496  0.00  0.00    +0.000 HD
BRANCH  30  33
ATOM     33  C   UNL     1      -5.003  13.590  20.480  0.00  0.00    +0.000 C 
BRANCH  33  34
ATOM     34  C   UNL     1      -6.078  12.836  21.215  0.00  0.00    +0.000 A 
ATOM     35  C   UNL     1      -6.364  13.120  22.554  0.00  0.00    +0.000 A 
ATOM     36  C   UNL     1      -7.277  12.334  23.259  0.00  0.00    +0.000 A 
ATOM     37  C   UNL     1      -7.915  11.268  22.629  0.00  0.00    +0.000 A 
ATOM     38  C   UNL     1      -7.673  11.007  21.282  0.00  0.00    +0.000 A 
ATOM     39  C   UNL     1      -6.766  11.794  20.575  0.00  0.00    +0.000 A 
ENDBRANCH  33  34
ENDBRANCH  30  33
ENDBRANCH  26  29
ENDBRANCH   9  23
TORSDOF 6
ENDMDL
