MODEL 1
REMARK VINA RESULT:      -6.3      0.000      0.000
REMARK  Name = 
REMARK  9 active torsions:
REMARK  status: ('A' for Active; 'I' for Inactive)
REMARK    1  A    between atoms: C_1  and  O_2
REMARK    2  A    between atoms: O_2  and  C_3
REMARK    3  A    between atoms: C_3  and  C_5
REMARK    4  A    between atoms: C_6  and  C_7
REMARK    5  A    between atoms: C_12  and  O_13
REMARK    6  A    between atoms: O_13  and  C_14
REMARK    7  A    between atoms: C_17  and  C_18
REMARK    8  A    between atoms: C_20  and  C_22
REMARK    9  A    between atoms: C_27  and  N_28
REMARK                            x       y       z     vdW  Elec       q    Type
REMARK                         _______ _______ _______ _____ _____    ______ ____
ROOT
ATOM      1  C   UNL     1      -2.953  11.613  18.325  0.00  0.00    +0.000 C 
ATOM      2  C   UNL     1      -2.700  10.290  17.595  0.00  0.00    +0.000 C 
ATOM      3  C   UNL     1      -1.219  10.025  17.393  0.00  0.00    +0.000 C 
ATOM      4  C   UNL     1      -0.438  10.007  18.726  0.00  0.00    +0.000 C 
ATOM      5  C   UNL     1       1.053  10.115  18.377  0.00  0.00    +0.000 C 
ATOM      6  N   UNL     1      -0.886  11.053  19.672  0.00  0.00    +0.000 N 
ATOM      7  C   UNL     1      -0.521  10.952  21.036  0.00  0.00    +0.000 C 
ATOM      8  O   UNL     1       0.151  10.020  21.473  0.00  0.00    +0.000 OA
ATOM      9  C   UNL     1      -1.722  12.120  19.111  0.00  0.00    +0.000 C 
ENDROOT
BRANCH   7  10
ATOM     10  C   UNL     1      -0.838  12.072  21.982  0.00  0.00    +0.000 A 
ATOM     11  C   UNL     1      -1.984  11.908  22.791  0.00  0.00    +0.000 A 
ATOM     12  C   UNL     1      -2.413  12.906  23.671  0.00  0.00    +0.000 A 
ATOM     13  C   UNL     1      -1.742  14.117  23.732  0.00  0.00    +0.000 A 
ATOM     14  C   UNL     1      -0.665  14.339  22.879  0.00  0.00    +0.000 A 
ATOM     15  C   UNL     1      -0.207  13.329  21.989  0.00  0.00    +0.000 A 
BRANCH  15  16
ATOM     16  N   UNL     1       0.885  13.694  21.155  0.00  0.00    +0.000 N 
ATOM     17  N   UNL     1       2.171  13.334  21.382  0.00  0.00    +0.000 NA
ATOM     18  C   UNL     1       2.826  13.975  20.410  0.00  0.00    +0.000 A 
ATOM     19  C   UNL     1       1.938  14.735  19.649  0.00  0.00    +0.000 A 
ATOM     20  N   UNL     1       0.706  14.601  20.137  0.00  0.00    +0.000 NA
ENDBRANCH  15  16
ENDBRANCH   7  10
BRANCH   1  21
ATOM     21  O   UNL     1      -4.092  11.415  19.184  0.00  0.00    +0.000 OA
BRANCH  21  27
ATOM     22  C   UNL     1      -5.685  13.128  19.661  0.00  0.00    +0.000 A 
ATOM     23  C   UNL     1      -6.783  13.876  19.226  0.00  0.00    +0.000 A 
ATOM     24  C   UNL     1      -7.359  13.609  17.980  0.00  0.00    +0.000 A 
ATOM     25  C   UNL     1      -6.829  12.588  17.219  0.00  0.00    +0.000 A 
ATOM     26  N   UNL     1      -5.779  11.847  17.618  0.00  0.00    +0.000 NA
ATOM     27  C   UNL     1      -5.218  12.124  18.825  0.00  0.00    +0.000 A 
BRANCH  22  28
ATOM     28  C   UNL     1      -5.065  13.341  20.978  0.00  0.00    +0.000 C 
ATOM     29  O   UNL     1      -4.207  14.176  21.204  0.00  0.00    +0.000 OA
BRANCH  28  31
ATOM     30  C   UNL     1      -6.077  13.027  23.063  0.00  0.00    +0.000 C 
ATOM     31  O   UNL     1      -5.586  12.447  21.851  0.00  0.00    +0.000 OA
ENDBRANCH  28  31
ENDBRANCH  22  28
BRANCH  23  32
ATOM     32  C   UNL     1      -7.375  14.899  20.033  0.00  0.00    +0.000 C 
ATOM     33  N   UNL     1      -7.824  15.727  20.713  0.00  0.00    +0.000 NA
ENDBRANCH  23  32
ENDBRANCH  21  27
ENDBRANCH   1  21
TORSDOF 7
ENDMDL
MODEL 2
REMARK VINA RESULT:      -5.9      0.708      1.216
REMARK  Name = 
REMARK  9 active torsions:
REMARK  status: ('A' for Active; 'I' for Inactive)
REMARK    1  A    between atoms: C_1  and  O_2
REMARK    2  A    between atoms: O_2  and  C_3
REMARK    3  A    between atoms: C_3  and  C_5
REMARK    4  A    between atoms: C_6  and  C_7
REMARK    5  A    between atoms: C_12  and  O_13
REMARK    6  A    between atoms: O_13  and  C_14
REMARK    7  A    between atoms: C_17  and  C_18
REMARK    8  A    between atoms: C_20  and  C_22
REMARK    9  A    between atoms: C_27  and  N_28
REMARK                            x       y       z     vdW  Elec       q    Type
REMARK                         _______ _______ _______ _____ _____    ______ ____
ROOT
ATOM      1  C   UNL     1      -2.700  11.766  18.579  0.00  0.00    +0.000 C 
ATOM      2  C   UNL     1      -2.431  10.381  17.983  0.00  0.00    +0.000 C 
ATOM      3  C   UNL     1      -0.949  10.122  17.789  0.00  0.00    +0.000 C 
ATOM      4  C   UNL     1      -0.153  10.251  19.106  0.00  0.00    +0.000 C 
ATOM      5  C   UNL     1       1.333  10.349  18.728  0.00  0.00    +0.000 C 
ATOM      6  N   UNL     1      -0.608  11.381  19.948  0.00  0.00    +0.000 N 
ATOM      7  C   UNL     1      -0.225  11.424  21.310  0.00  0.00    +0.000 C 
ATOM      8  O   UNL     1       0.468  10.552  21.830  0.00  0.00    +0.000 OA
ATOM      9  C   UNL     1      -1.470  12.371  19.293  0.00  0.00    +0.000 C 
ENDROOT
BRANCH   7  10
ATOM     10  C   UNL     1      -0.551  12.628  22.143  0.00  0.00    +0.000 A 
ATOM     11  C   UNL     1      -1.706  12.541  22.952  0.00  0.00    +0.000 A 
ATOM     12  C   UNL     1      -2.143  13.618  23.729  0.00  0.00    +0.000 A 
ATOM     13  C   UNL     1      -1.473  14.829  23.682  0.00  0.00    +0.000 A 
ATOM     14  C   UNL     1      -0.387  14.970  22.822  0.00  0.00    +0.000 A 
ATOM     15  C   UNL     1       0.080  13.880  22.037  0.00  0.00    +0.000 A 
BRANCH  15  16
ATOM     16  N   UNL     1       1.180  14.166  21.183  0.00  0.00    +0.000 N 
ATOM     17  N   UNL     1       1.078  14.820  20.001  0.00  0.00    +0.000 NA
ATOM     18  C   UNL     1       2.328  14.767  19.534  0.00  0.00    +0.000 A 
ATOM     19  C   UNL     1       3.143  14.053  20.413  0.00  0.00    +0.000 A 
ATOM     20  N   UNL     1       2.418  13.628  21.446  0.00  0.00    +0.000 NA
ENDBRANCH  15  16
ENDBRANCH   7  10
BRANCH   1  21
ATOM     21  O   UNL     1      -3.826  11.638  19.468  0.00  0.00    +0.000 OA
BRANCH  21  27
ATOM     22  C   UNL     1      -5.486  13.331  19.741  0.00  0.00    +0.000 A 
ATOM     23  C   UNL     1      -6.616  13.972  19.224  0.00  0.00    +0.000 A 
ATOM     24  C   UNL     1      -7.185  13.527  18.026  0.00  0.00    +0.000 A 
ATOM     25  C   UNL     1      -6.615  12.441  17.395  0.00  0.00    +0.000 A 
ATOM     26  N   UNL     1      -5.534  11.800  17.875  0.00  0.00    +0.000 NA
ATOM     27  C   UNL     1      -4.981  12.249  19.033  0.00  0.00    +0.000 A 
BRANCH  22  28
ATOM     28  C   UNL     1      -4.872  13.733  21.015  0.00  0.00    +0.000 C 
ATOM     29  O   UNL     1      -5.259  13.363  22.108  0.00  0.00    +0.000 OA
BRANCH  28  31
ATOM     30  C   UNL     1      -4.026  15.894  21.304  0.00  0.00    +0.000 C 
ATOM     31  O   UNL     1      -3.853  14.586  20.753  0.00  0.00    +0.000 OA
ENDBRANCH  28  31
ENDBRANCH  22  28
BRANCH  23  32
ATOM     32  C   UNL     1      -7.247  15.064  19.902  0.00  0.00    +0.000 C 
ATOM     33  N   UNL     1      -7.775  15.961  20.417  0.00  0.00    +0.000 NA
ENDBRANCH  23  32
ENDBRANCH  21  27
ENDBRANCH   1  21
TORSDOF 7
ENDMDL
MODEL 3
REMARK VINA RESULT:      -5.8      1.898      7.189
REMARK  Name = 
REMARK  9 active torsions:
REMARK  status: ('A' for Active; 'I' for Inactive)
REMARK    1  A    between atoms: C_1  and  O_2
REMARK    2  A    between atoms: O_2  and  C_3
REMARK    3  A    between atoms: C_3  and  C_5
REMARK    4  A    between atoms: C_6  and  C_7
REMARK    5  A    between atoms: C_12  and  O_13
REMARK    6  A    between atoms: O_13  and  C_14
REMARK    7  A    between atoms: C_17  and  C_18
REMARK    8  A    between atoms: C_20  and  C_22
REMARK    9  A    between atoms: C_27  and  N_28
REMARK                            x       y       z     vdW  Elec       q    Type
REMARK                         _______ _______ _______ _____ _____    ______ ____
ROOT
ATOM      1  C   UNL     1      -1.516  13.544  21.442  0.00  0.00    +0.000 C 
ATOM      2  C   UNL     1      -1.196  12.312  22.294  0.00  0.00    +0.000 C 
ATOM      3  C   UNL     1      -1.969  12.305  23.600  0.00  0.00    +0.000 C 
ATOM      4  C   UNL     1      -3.497  12.365  23.378  0.00  0.00    +0.000 C 
ATOM      5  C   UNL     1      -4.135  12.734  24.725  0.00  0.00    +0.000 C 
ATOM      6  N   UNL     1      -3.887  13.285  22.286  0.00  0.00    +0.000 N 
ATOM      7  C   UNL     1      -5.188  13.193  21.738  0.00  0.00    +0.000 C 
ATOM      8  O   UNL     1      -6.014  12.369  22.128  0.00  0.00    +0.000 OA
ATOM      9  C   UNL     1      -2.853  14.219  21.824  0.00  0.00    +0.000 C 
ENDROOT
BRANCH   7  10
ATOM     10  C   UNL     1      -5.654  14.206  20.734  0.00  0.00    +0.000 A 
ATOM     11  C   UNL     1      -5.798  15.532  21.198  0.00  0.00    +0.000 A 
ATOM     12  C   UNL     1      -6.278  16.553  20.372  0.00  0.00    +0.000 A 
ATOM     13  C   UNL     1      -6.678  16.271  19.076  0.00  0.00    +0.000 A 
ATOM     14  C   UNL     1      -6.633  14.955  18.624  0.00  0.00    +0.000 A 
ATOM     15  C   UNL     1      -6.133  13.908  19.446  0.00  0.00    +0.000 A 
BRANCH  15  16
ATOM     16  N   UNL     1      -6.167  12.607  18.872  0.00  0.00    +0.000 N 
ATOM     17  N   UNL     1      -7.221  11.761  18.963  0.00  0.00    +0.000 NA
ATOM     18  C   UNL     1      -6.758  10.660  18.366  0.00  0.00    +0.000 A 
ATOM     19  C   UNL     1      -5.433  10.845  17.970  0.00  0.00    +0.000 A 
ATOM     20  N   UNL     1      -5.030  12.064  18.323  0.00  0.00    +0.000 NA
ENDBRANCH  15  16
ENDBRANCH   7  10
BRANCH   1  21
ATOM     21  O   UNL     1      -1.502  13.126  20.064  0.00  0.00    +0.000 OA
BRANCH  21  27
ATOM     22  C   UNL     1       0.086  11.653  19.060  0.00  0.00    +0.000 A 
ATOM     23  C   UNL     1       1.341  11.498  18.462  0.00  0.00    +0.000 A 
ATOM     24  C   UNL     1       2.201  12.595  18.349  0.00  0.00    +0.000 A 
ATOM     25  C   UNL     1       1.785  13.808  18.855  0.00  0.00    +0.000 A 
ATOM     26  N   UNL     1       0.587  13.983  19.443  0.00  0.00    +0.000 NA
ATOM     27  C   UNL     1      -0.247  12.914  19.536  0.00  0.00    +0.000 A 
BRANCH  22  28
ATOM     28  C   UNL     1      -0.840  10.526  19.240  0.00  0.00    +0.000 C 
ATOM     29  O   UNL     1      -0.662   9.612  20.025  0.00  0.00    +0.000 OA
BRANCH  28  31
ATOM     30  C   UNL     1      -1.763   9.892  17.187  0.00  0.00    +0.000 C 
ATOM     31  O   UNL     1      -1.875  10.674  18.379  0.00  0.00    +0.000 OA
ENDBRANCH  28  31
ENDBRANCH  22  28
BRANCH  23  32
ATOM     32  C   UNL     1       1.804  10.230  17.986  0.00  0.00    +0.000 C 
ATOM     33  N   UNL     1       2.167   9.211  17.563  0.00  0.00    +0.000 NA
ENDBRANCH  23  32
ENDBRANCH  21  27
ENDBRANCH   1  21
TORSDOF 7
ENDMDL
MODEL 4
REMARK VINA RESULT:      -5.8      2.309      4.209
REMARK  Name = 
REMARK  9 active torsions:
REMARK  status: ('A' for Active; 'I' for Inactive)
REMARK    1  A    between atoms: C_1  and  O_2
REMARK    2  A    between atoms: O_2  and  C_3
REMARK    3  A    between atoms: C_3  and  C_5
REMARK    4  A    between atoms: C_6  and  C_7
REMARK    5  A    between atoms: C_12  and  O_13
REMARK    6  A    between atoms: O_13  and  C_14
REMARK    7  A    between atoms: C_17  and  C_18
REMARK    8  A    between atoms: C_20  and  C_22
REMARK    9  A    between atoms: C_27  and  N_28
REMARK                            x       y       z     vdW  Elec       q    Type
REMARK                         _______ _______ _______ _____ _____    ______ ____
ROOT
ATOM      1  C   UNL     1      -5.070  12.467  20.073  0.00  0.00    +0.000 C 
ATOM      2  C   UNL     1      -5.801  11.196  19.629  0.00  0.00    +0.000 C 
ATOM      3  C   UNL     1      -5.506  10.845  18.182  0.00  0.00    +0.000 C 
ATOM      4  C   UNL     1      -3.995  10.658  17.920  0.00  0.00    +0.000 C 
ATOM      5  C   UNL     1      -3.794  10.689  16.398  0.00  0.00    +0.000 C 
ATOM      6  N   UNL     1      -3.158  11.649  18.632  0.00  0.00    +0.000 N 
ATOM      7  C   UNL     1      -1.771  11.407  18.773  0.00  0.00    +0.000 C 
ATOM      8  O   UNL     1      -1.228  10.396  18.332  0.00  0.00    +0.000 OA
ATOM      9  C   UNL     1      -3.859  12.817  19.179  0.00  0.00    +0.000 C 
ENDROOT
BRANCH   7  10
ATOM     10  C   UNL     1      -0.880  12.461  19.361  0.00  0.00    +0.000 A 
ATOM     11  C   UNL     1      -0.514  13.525  18.506  0.00  0.00    +0.000 A 
ATOM     12  C   UNL     1       0.356  14.537  18.922  0.00  0.00    +0.000 A 
ATOM     13  C   UNL     1       0.928  14.490  20.183  0.00  0.00    +0.000 A 
ATOM     14  C   UNL     1       0.656  13.404  21.010  0.00  0.00    +0.000 A 
ATOM     15  C   UNL     1      -0.238  12.374  20.609  0.00  0.00    +0.000 A 
BRANCH  15  16
ATOM     16  N   UNL     1      -0.407  11.311  21.537  0.00  0.00    +0.000 N 
ATOM     17  N   UNL     1      -1.186  11.382  22.644  0.00  0.00    +0.000 NA
ATOM     18  C   UNL     1      -0.957  10.206  23.233  0.00  0.00    +0.000 A 
ATOM     19  C   UNL     1      -0.023   9.472  22.502  0.00  0.00    +0.000 A 
ATOM     20  N   UNL     1       0.369  10.180  21.444  0.00  0.00    +0.000 NA
ENDBRANCH  15  16
ENDBRANCH   7  10
BRANCH   1  21
ATOM     21  O   UNL     1      -4.684  12.278  21.448  0.00  0.00    +0.000 OA
BRANCH  21  27
ATOM     22  C   UNL     1      -5.040  14.179  22.847  0.00  0.00    +0.000 A 
ATOM     23  C   UNL     1      -5.895  14.863  23.717  0.00  0.00    +0.000 A 
ATOM     24  C   UNL     1      -7.133  14.307  24.060  0.00  0.00    +0.000 A 
ATOM     25  C   UNL     1      -7.465  13.077  23.534  0.00  0.00    +0.000 A 
ATOM     26  N   UNL     1      -6.658  12.394  22.702  0.00  0.00    +0.000 NA
ATOM     27  C   UNL     1      -5.463  12.948  22.366  0.00  0.00    +0.000 A 
BRANCH  22  28
ATOM     28  C   UNL     1      -3.713  14.699  22.486  0.00  0.00    +0.000 C 
ATOM     29  O   UNL     1      -2.689  14.443  23.093  0.00  0.00    +0.000 OA
BRANCH  28  31
ATOM     30  C   UNL     1      -2.605  15.892  20.807  0.00  0.00    +0.000 C 
ATOM     31  O   UNL     1      -3.844  15.510  21.409  0.00  0.00    +0.000 OA
ENDBRANCH  28  31
ENDBRANCH  22  28
BRANCH  23  32
ATOM     32  C   UNL     1      -5.533  16.113  24.312  0.00  0.00    +0.000 C 
ATOM     33  N   UNL     1      -5.239  17.110  24.830  0.00  0.00    +0.000 NA
ENDBRANCH  23  32
ENDBRANCH  21  27
ENDBRANCH   1  21
TORSDOF 7
ENDMDL
MODEL 5
REMARK VINA RESULT:      -5.6      2.369      7.118
REMARK  Name = 
REMARK  9 active torsions:
REMARK  status: ('A' for Active; 'I' for Inactive)
REMARK    1  A    between atoms: C_1  and  O_2
REMARK    2  A    between atoms: O_2  and  C_3
REMARK    3  A    between atoms: C_3  and  C_5
REMARK    4  A    between atoms: C_6  and  C_7
REMARK    5  A    between atoms: C_12  and  O_13
REMARK    6  A    between atoms: O_13  and  C_14
REMARK    7  A    between atoms: C_17  and  C_18
REMARK    8  A    between atoms: C_20  and  C_22
REMARK    9  A    between atoms: C_27  and  N_28
REMARK                            x       y       z     vdW  Elec       q    Type
REMARK                         _______ _______ _______ _____ _____    ______ ____
ROOT
ATOM      1  C   UNL     1      -2.150  13.616  21.737  0.00  0.00    +0.000 C 
ATOM      2  C   UNL     1      -1.564  13.801  23.140  0.00  0.00    +0.000 C 
ATOM      3  C   UNL     1      -2.135  15.020  23.840  0.00  0.00    +0.000 C 
ATOM      4  C   UNL     1      -3.674  14.964  23.956  0.00  0.00    +0.000 C 
ATOM      5  C   UNL     1      -4.151  16.378  24.318  0.00  0.00    +0.000 C 
ATOM      6  N   UNL     1      -4.326  14.430  22.739  0.00  0.00    +0.000 N 
ATOM      7  C   UNL     1      -5.672  13.998  22.810  0.00  0.00    +0.000 C 
ATOM      8  O   UNL     1      -6.325  14.040  23.851  0.00  0.00    +0.000 OA
ATOM      9  C   UNL     1      -3.491  14.358  21.534  0.00  0.00    +0.000 C 
ENDROOT
BRANCH   7  10
ATOM     10  C   UNL     1      -6.396  13.591  21.562  0.00  0.00    +0.000 A 
ATOM     11  C   UNL     1      -6.351  12.220  21.226  0.00  0.00    +0.000 A 
ATOM     12  C   UNL     1      -6.941  11.729  20.056  0.00  0.00    +0.000 A 
ATOM     13  C   UNL     1      -7.546  12.597  19.163  0.00  0.00    +0.000 A 
ATOM     14  C   UNL     1      -7.523  13.964  19.426  0.00  0.00    +0.000 A 
ATOM     15  C   UNL     1      -6.942  14.478  20.617  0.00  0.00    +0.000 A 
BRANCH  15  16
ATOM     16  N   UNL     1      -6.963  15.894  20.749  0.00  0.00    +0.000 N 
ATOM     17  N   UNL     1      -5.995  16.718  20.280  0.00  0.00    +0.000 NA
ATOM     18  C   UNL     1      -6.399  17.914  20.714  0.00  0.00    +0.000 A 
ATOM     19  C   UNL     1      -7.568  17.786  21.464  0.00  0.00    +0.000 A 
ATOM     20  N   UNL     1      -7.915  16.502  21.531  0.00  0.00    +0.000 NA
ENDBRANCH  15  16
ENDBRANCH   7  10
BRANCH   1  21
ATOM     21  O   UNL     1      -2.283  12.199  21.513  0.00  0.00    +0.000 OA
BRANCH  21  27
ATOM     22  C   UNL     1      -0.810  11.073  20.010  0.00  0.00    +0.000 A 
ATOM     23  C   UNL     1      -0.576  10.603  18.714  0.00  0.00    +0.000 A 
ATOM     24  C   UNL     1      -1.514  10.843  17.704  0.00  0.00    +0.000 A 
ATOM     25  C   UNL     1      -2.646  11.564  18.022  0.00  0.00    +0.000 A 
ATOM     26  N   UNL     1      -2.892  12.035  19.258  0.00  0.00    +0.000 NA
ATOM     27  C   UNL     1      -1.980  11.784  20.234  0.00  0.00    +0.000 A 
BRANCH  22  28
ATOM     28  C   UNL     1       0.160  10.882  21.099  0.00  0.00    +0.000 C 
ATOM     29  O   UNL     1       1.063  11.658  21.356  0.00  0.00    +0.000 OA
BRANCH  28  31
ATOM     30  C   UNL     1      -0.445   9.838  23.102  0.00  0.00    +0.000 C 
ATOM     31  O   UNL     1      -0.110   9.708  21.718  0.00  0.00    +0.000 OA
ENDBRANCH  28  31
ENDBRANCH  22  28
BRANCH  23  32
ATOM     32  C   UNL     1       0.623   9.904  18.364  0.00  0.00    +0.000 C 
ATOM     33  N   UNL     1       1.607   9.338  18.118  0.00  0.00    +0.000 NA
ENDBRANCH  23  32
ENDBRANCH  21  27
ENDBRANCH   1  21
TORSDOF 7
ENDMDL
MODEL 6
REMARK VINA RESULT:      -5.5      2.050      7.263
REMARK  Name = 
REMARK  9 active torsions:
REMARK  status: ('A' for Active; 'I' for Inactive)
REMARK    1  A    between atoms: C_1  and  O_2
REMARK    2  A    between atoms: O_2  and  C_3
REMARK    3  A    between atoms: C_3  and  C_5
REMARK    4  A    between atoms: C_6  and  C_7
REMARK    5  A    between atoms: C_12  and  O_13
REMARK    6  A    between atoms: O_13  and  C_14
REMARK    7  A    between atoms: C_17  and  C_18
REMARK    8  A    between atoms: C_20  and  C_22
REMARK    9  A    between atoms: C_27  and  N_28
REMARK                            x       y       z     vdW  Elec       q    Type
REMARK                         _______ _______ _______ _____ _____    ______ ____
ROOT
ATOM      1  C   UNL     1      -1.321  13.868  20.756  0.00  0.00    +0.000 C 
ATOM      2  C   UNL     1      -0.669  13.173  21.955  0.00  0.00    +0.000 C 
ATOM      3  C   UNL     1      -1.359  13.522  23.261  0.00  0.00    +0.000 C 
ATOM      4  C   UNL     1      -2.862  13.166  23.245  0.00  0.00    +0.000 C 
ATOM      5  C   UNL     1      -3.512  13.896  24.430  0.00  0.00    +0.000 C 
ATOM      6  N   UNL     1      -3.515  13.472  21.952  0.00  0.00    +0.000 N 
ATOM      7  C   UNL     1      -4.776  12.898  21.663  0.00  0.00    +0.000 C 
ATOM      8  O   UNL     1      -5.353  12.143  22.443  0.00  0.00    +0.000 OA
ATOM      9  C   UNL     1      -2.766  14.341  21.037  0.00  0.00    +0.000 C 
ENDROOT
BRANCH   7  10
ATOM     10  C   UNL     1      -5.521  13.306  20.427  0.00  0.00    +0.000 A 
ATOM     11  C   UNL     1      -5.351  12.486  19.290  0.00  0.00    +0.000 A 
ATOM     12  C   UNL     1      -5.950  12.796  18.064  0.00  0.00    +0.000 A 
ATOM     13  C   UNL     1      -6.689  13.958  17.923  0.00  0.00    +0.000 A 
ATOM     14  C   UNL     1      -6.794  14.830  19.003  0.00  0.00    +0.000 A 
ATOM     15  C   UNL     1      -6.205  14.523  20.261  0.00  0.00    +0.000 A 
BRANCH  15  16
ATOM     16  N   UNL     1      -6.366  15.510  21.271  0.00  0.00    +0.000 N 
ATOM     17  N   UNL     1      -7.382  15.526  22.167  0.00  0.00    +0.000 NA
ATOM     18  C   UNL     1      -7.163  16.663  22.831  0.00  0.00    +0.000 A 
ATOM     19  C   UNL     1      -6.056  17.327  22.303  0.00  0.00    +0.000 A 
ATOM     20  N   UNL     1      -5.564  16.627  21.282  0.00  0.00    +0.000 NA
ENDBRANCH  15  16
ENDBRANCH   7  10
BRANCH   1  21
ATOM     21  O   UNL     1      -1.264  12.951  19.648  0.00  0.00    +0.000 OA
BRANCH  21  27
ATOM     22  C   UNL     1       0.323  11.379  18.804  0.00  0.00    +0.000 A 
ATOM     23  C   UNL     1       1.597  11.156  18.272  0.00  0.00    +0.000 A 
ATOM     24  C   UNL     1       2.492  12.221  18.133  0.00  0.00    +0.000 A 
ATOM     25  C   UNL     1       2.089  13.473  18.548  0.00  0.00    +0.000 A 
ATOM     26  N   UNL     1       0.873  13.714  19.071  0.00  0.00    +0.000 NA
ATOM     27  C   UNL     1       0.006  12.674  19.190  0.00  0.00    +0.000 A 
BRANCH  22  28
ATOM     28  C   UNL     1      -0.643  10.289  19.008  0.00  0.00    +0.000 C 
ATOM     29  O   UNL     1      -0.798   9.701  20.063  0.00  0.00    +0.000 OA
BRANCH  28  31
ATOM     30  C   UNL     1      -2.707  10.068  17.931  0.00  0.00    +0.000 C 
ATOM     31  O   UNL     1      -1.280  10.051  17.837  0.00  0.00    +0.000 OA
ENDBRANCH  28  31
ENDBRANCH  22  28
BRANCH  23  32
ATOM     32  C   UNL     1       2.043   9.849  17.892  0.00  0.00    +0.000 C 
ATOM     33  N   UNL     1       2.440   8.806  17.573  0.00  0.00    +0.000 NA
ENDBRANCH  23  32
ENDBRANCH  21  27
ENDBRANCH   1  21
TORSDOF 7
ENDMDL
MODEL 7
REMARK VINA RESULT:      -5.5      2.712      7.708
REMARK  Name = 
REMARK  9 active torsions:
REMARK  status: ('A' for Active; 'I' for Inactive)
REMARK    1  A    between atoms: C_1  and  O_2
REMARK    2  A    between atoms: O_2  and  C_3
REMARK    3  A    between atoms: C_3  and  C_5
REMARK    4  A    between atoms: C_6  and  C_7
REMARK    5  A    between atoms: C_12  and  O_13
REMARK    6  A    between atoms: O_13  and  C_14
REMARK    7  A    between atoms: C_17  and  C_18
REMARK    8  A    between atoms: C_20  and  C_22
REMARK    9  A    between atoms: C_27  and  N_28
REMARK                            x       y       z     vdW  Elec       q    Type
REMARK                         _______ _______ _______ _____ _____    ______ ____
ROOT
ATOM      1  C   UNL     1      -0.784  15.732  21.367  0.00  0.00    +0.000 C 
ATOM      2  C   UNL     1       0.153  15.786  22.578  0.00  0.00    +0.000 C 
ATOM      3  C   UNL     1      -0.611  15.834  23.889  0.00  0.00    +0.000 C 
ATOM      4  C   UNL     1      -1.561  14.628  24.058  0.00  0.00    +0.000 C 
ATOM      5  C   UNL     1      -2.531  14.974  25.197  0.00  0.00    +0.000 C 
ATOM      6  N   UNL     1      -2.255  14.258  22.804  0.00  0.00    +0.000 N 
ATOM      7  C   UNL     1      -2.878  12.991  22.708  0.00  0.00    +0.000 C 
ATOM      8  O   UNL     1      -2.862  12.175  23.627  0.00  0.00    +0.000 OA
ATOM      9  C   UNL     1      -2.209  15.247  21.721  0.00  0.00    +0.000 C 
ENDROOT
BRANCH   7  10
ATOM     10  C   UNL     1      -3.709  12.652  21.506  0.00  0.00    +0.000 A 
ATOM     11  C   UNL     1      -3.006  12.378  20.312  0.00  0.00    +0.000 A 
ATOM     12  C   UNL     1      -3.671  12.105  19.112  0.00  0.00    +0.000 A 
ATOM     13  C   UNL     1      -5.055  12.149  19.057  0.00  0.00    +0.000 A 
ATOM     14  C   UNL     1      -5.767  12.508  20.197  0.00  0.00    +0.000 A 
ATOM     15  C   UNL     1      -5.108  12.773  21.428  0.00  0.00    +0.000 A 
BRANCH  15  16
ATOM     16  N   UNL     1      -5.951  13.153  22.508  0.00  0.00    +0.000 N 
ATOM     17  N   UNL     1      -6.646  12.280  23.276  0.00  0.00    +0.000 NA
ATOM     18  C   UNL     1      -7.346  13.091  24.073  0.00  0.00    +0.000 A 
ATOM     19  C   UNL     1      -7.096  14.424  23.747  0.00  0.00    +0.000 A 
ATOM     20  N   UNL     1      -6.244  14.479  22.724  0.00  0.00    +0.000 NA
ENDBRANCH  15  16
ENDBRANCH   7  10
BRANCH   1  21
ATOM     21  O   UNL     1      -0.160  14.887  20.382  0.00  0.00    +0.000 OA
BRANCH  21  27
ATOM     22  C   UNL     1       1.988  14.879  19.341  0.00  0.00    +0.000 A 
ATOM     23  C   UNL     1       2.885  15.513  18.475  0.00  0.00    +0.000 A 
ATOM     24  C   UNL     1       2.542  16.735  17.888  0.00  0.00    +0.000 A 
ATOM     25  C   UNL     1       1.321  17.293  18.203  0.00  0.00    +0.000 A 
ATOM     26  N   UNL     1       0.444  16.709  19.040  0.00  0.00    +0.000 NA
ATOM     27  C   UNL     1       0.781  15.514  19.594  0.00  0.00    +0.000 A 
BRANCH  22  28
ATOM     28  C   UNL     1       2.314  13.613  20.015  0.00  0.00    +0.000 C 
ATOM     29  O   UNL     1       2.832  13.536  21.114  0.00  0.00    +0.000 OA
BRANCH  28  31
ATOM     30  C   UNL     1       1.088  11.633  19.795  0.00  0.00    +0.000 C 
ATOM     31  O   UNL     1       1.970  12.588  19.199  0.00  0.00    +0.000 OA
ENDBRANCH  28  31
ENDBRANCH  22  28
BRANCH  23  32
ATOM     32  C   UNL     1       4.177  14.969  18.188  0.00  0.00    +0.000 C 
ATOM     33  N   UNL     1       5.209  14.498  17.935  0.00  0.00    +0.000 NA
ENDBRANCH  23  32
ENDBRANCH  21  27
ENDBRANCH   1  21
TORSDOF 7
ENDMDL
MODEL 8
REMARK VINA RESULT:      -5.5      2.681      7.646
REMARK  Name = 
REMARK  9 active torsions:
REMARK  status: ('A' for Active; 'I' for Inactive)
REMARK    1  A    between atoms: C_1  and  O_2
REMARK    2  A    between atoms: O_2  and  C_3
REMARK    3  A    between atoms: C_3  and  C_5
REMARK    4  A    between atoms: C_6  and  C_7
REMARK    5  A    between atoms: C_12  and  O_13
REMARK    6  A    between atoms: O_13  and  C_14
REMARK    7  A    between atoms: C_17  and  C_18
REMARK    8  A    between atoms: C_20  and  C_22
REMARK    9  A    between atoms: C_27  and  N_28
REMARK                            x       y       z     vdW  Elec       q    Type
REMARK                         _______ _______ _______ _____ _____    ______ ____
ROOT
ATOM      1  C   UNL     1      -0.583  15.767  20.606  0.00  0.00    +0.000 C 
ATOM      2  C   UNL     1       0.458  15.853  21.726  0.00  0.00    +0.000 C 
ATOM      3  C   UNL     1      -0.180  15.803  23.103  0.00  0.00    +0.000 C 
ATOM      4  C   UNL     1      -1.022  14.526  23.313  0.00  0.00    +0.000 C 
ATOM      5  C   UNL     1      -1.901  14.764  24.549  0.00  0.00    +0.000 C 
ATOM      6  N   UNL     1      -1.803  14.144  22.115  0.00  0.00    +0.000 N 
ATOM      7  C   UNL     1      -2.342  12.839  22.030  0.00  0.00    +0.000 C 
ATOM      8  O   UNL     1      -2.181  11.998  22.912  0.00  0.00    +0.000 OA
ATOM      9  C   UNL     1      -1.930  15.167  21.071  0.00  0.00    +0.000 C 
ENDROOT
BRANCH   7  10
ATOM     10  C   UNL     1      -3.257  12.477  20.897  0.00  0.00    +0.000 A 
ATOM     11  C   UNL     1      -2.639  12.083  19.690  0.00  0.00    +0.000 A 
ATOM     12  C   UNL     1      -3.385  11.776  18.547  0.00  0.00    +0.000 A 
ATOM     13  C   UNL     1      -4.764  11.904  18.560  0.00  0.00    +0.000 A 
ATOM     14  C   UNL     1      -5.390  12.379  19.709  0.00  0.00    +0.000 A 
ATOM     15  C   UNL     1      -4.648  12.681  20.884  0.00  0.00    +0.000 A 
BRANCH  15  16
ATOM     16  N   UNL     1      -5.407  13.182  21.977  0.00  0.00    +0.000 N 
ATOM     17  N   UNL     1      -5.518  14.495  22.290  0.00  0.00    +0.000 NA
ATOM     18  C   UNL     1      -6.234  14.463  23.417  0.00  0.00    +0.000 A 
ATOM     19  C   UNL     1      -6.501  13.144  23.783  0.00  0.00    +0.000 A 
ATOM     20  N   UNL     1      -5.945  12.317  22.900  0.00  0.00    +0.000 NA
ENDBRANCH  15  16
ENDBRANCH   7  10
BRANCH   1  21
ATOM     21  O   UNL     1       0.003  15.002  19.536  0.00  0.00    +0.000 OA
BRANCH  21  27
ATOM     22  C   UNL     1       2.254  14.959  18.743  0.00  0.00    +0.000 A 
ATOM     23  C   UNL     1       3.260  15.592  18.006  0.00  0.00    +0.000 A 
ATOM     24  C   UNL     1       3.021  16.843  17.429  0.00  0.00    +0.000 A 
ATOM     25  C   UNL     1       1.788  17.428  17.625  0.00  0.00    +0.000 A 
ATOM     26  N   UNL     1       0.805  16.846  18.336  0.00  0.00    +0.000 NA
ATOM     27  C   UNL     1       1.044  15.624  18.882  0.00  0.00    +0.000 A 
BRANCH  22  28
ATOM     28  C   UNL     1       2.465  13.662  19.403  0.00  0.00    +0.000 C 
ATOM     29  O   UNL     1       2.865  13.532  20.546  0.00  0.00    +0.000 OA
BRANCH  28  31
ATOM     30  C   UNL     1       1.350  11.635  19.058  0.00  0.00    +0.000 C 
ATOM     31  O   UNL     1       2.173  12.675  18.523  0.00  0.00    +0.000 OA
ENDBRANCH  28  31
ENDBRANCH  22  28
BRANCH  23  32
ATOM     32  C   UNL     1       4.562  15.017  17.847  0.00  0.00    +0.000 C 
ATOM     33  N   UNL     1       5.600  14.518  17.701  0.00  0.00    +0.000 NA
ENDBRANCH  23  32
ENDBRANCH  21  27
ENDBRANCH   1  21
TORSDOF 7
ENDMDL
MODEL 9
REMARK VINA RESULT:      -5.5      2.088      3.451
REMARK  Name = 
REMARK  9 active torsions:
REMARK  status: ('A' for Active; 'I' for Inactive)
REMARK    1  A    between atoms: C_1  and  O_2
REMARK    2  A    between atoms: O_2  and  C_3
REMARK    3  A    between atoms: C_3  and  C_5
REMARK    4  A    between atoms: C_6  and  C_7
REMARK    5  A    between atoms: C_12  and  O_13
REMARK    6  A    between atoms: O_13  and  C_14
REMARK    7  A    between atoms: C_17  and  C_18
REMARK    8  A    between atoms: C_20  and  C_22
REMARK    9  A    between atoms: C_27  and  N_28
REMARK                            x       y       z     vdW  Elec       q    Type
REMARK                         _______ _______ _______ _____ _____    ______ ____
ROOT
ATOM      1  C   UNL     1      -4.978  12.055  18.869  0.00  0.00    +0.000 C 
ATOM      2  C   UNL     1      -5.477  10.680  18.413  0.00  0.00    +0.000 C 
ATOM      3  C   UNL     1      -4.683  10.148  17.234  0.00  0.00    +0.000 C 
ATOM      4  C   UNL     1      -3.173  10.045  17.542  0.00  0.00    +0.000 C 
ATOM      5  C   UNL     1      -2.449   9.872  16.198  0.00  0.00    +0.000 C 
ATOM      6  N   UNL     1      -2.663  11.191  18.327  0.00  0.00    +0.000 N 
ATOM      7  C   UNL     1      -1.409  11.080  18.974  0.00  0.00    +0.000 C 
ATOM      8  O   UNL     1      -0.723  10.062  18.917  0.00  0.00    +0.000 OA
ATOM      9  C   UNL     1      -3.538  12.366  18.402  0.00  0.00    +0.000 C 
ENDROOT
BRANCH   7  10
ATOM     10  C   UNL     1      -0.807  12.275  19.653  0.00  0.00    +0.000 A 
ATOM     11  C   UNL     1      -0.637  13.431  18.859  0.00  0.00    +0.000 A 
ATOM     12  C   UNL     1      -0.036  14.588  19.364  0.00  0.00    +0.000 A 
ATOM     13  C   UNL     1       0.462  14.609  20.657  0.00  0.00    +0.000 A 
ATOM     14  C   UNL     1       0.390  13.452  21.428  0.00  0.00    +0.000 A 
ATOM     15  C   UNL     1      -0.232  12.272  20.936  0.00  0.00    +0.000 A 
BRANCH  15  16
ATOM     16  N   UNL     1      -0.214  11.156  21.816  0.00  0.00    +0.000 N 
ATOM     17  N   UNL     1      -1.179  10.889  22.729  0.00  0.00    +0.000 NA
ATOM     18  C   UNL     1      -0.688   9.822  23.364  0.00  0.00    +0.000 A 
ATOM     19  C   UNL     1       0.569   9.493  22.857  0.00  0.00    +0.000 A 
ATOM     20  N   UNL     1       0.903  10.359  21.901  0.00  0.00    +0.000 NA
ENDBRANCH  15  16
ENDBRANCH   7  10
BRANCH   1  21
ATOM     21  O   UNL     1      -5.097  12.097  20.304  0.00  0.00    +0.000 OA
BRANCH  21  27
ATOM     22  C   UNL     1      -5.322  13.848  21.911  0.00  0.00    +0.000 A 
ATOM     23  C   UNL     1      -6.023  14.983  22.332  0.00  0.00    +0.000 A 
ATOM     24  C   UNL     1      -7.153  15.408  21.626  0.00  0.00    +0.000 A 
ATOM     25  C   UNL     1      -7.555  14.671  20.532  0.00  0.00    +0.000 A 
ATOM     26  N   UNL     1      -6.905  13.571  20.110  0.00  0.00    +0.000 NA
ATOM     27  C   UNL     1      -5.801  13.175  20.796  0.00  0.00    +0.000 A 
BRANCH  22  28
ATOM     28  C   UNL     1      -4.151  13.336  22.639  0.00  0.00    +0.000 C 
ATOM     29  O   UNL     1      -3.017  13.754  22.491  0.00  0.00    +0.000 OA
BRANCH  28  31
ATOM     30  C   UNL     1      -4.186  12.496  24.821  0.00  0.00    +0.000 C 
ATOM     31  O   UNL     1      -4.553  12.328  23.449  0.00  0.00    +0.000 OA
ENDBRANCH  28  31
ENDBRANCH  22  28
BRANCH  23  32
ATOM     32  C   UNL     1      -5.645  15.720  23.500  0.00  0.00    +0.000 C 
ATOM     33  N   UNL     1      -5.376  16.326  24.454  0.00  0.00    +0.000 NA
ENDBRANCH  23  32
ENDBRANCH  21  27
ENDBRANCH   1  21
TORSDOF 7
ENDMDL
