MODEL 1
REMARK VINA RESULT:      -7.6      0.000      0.000
REMARK  Name = 
REMARK  4 active torsions:
REMARK  status: ('A' for Active; 'I' for Inactive)
REMARK    1  A    between atoms: C_1  and  C_2
REMARK    2  A    between atoms: C_5  and  C_6
REMARK    3  A    between atoms: N_8  and  C_9
REMARK    4  A    between atoms: N_8  and  C_14
REMARK                            x       y       z     vdW  Elec       q    Type
REMARK                         _______ _______ _______ _____ _____    ______ ____
ROOT
ATOM      1  C   UNL     1       3.620   6.739  17.928  0.00  0.00    +0.000 C 
ATOM      2  O   UNL     1       4.558   7.291  17.348  0.00  0.00    +0.000 OA
ATOM      3  N   UNL     1       3.570   5.335  18.127  0.00  0.00    +0.000 N 
ENDROOT
BRANCH   1   8
ATOM      4  C   UNL     1      -0.260  10.264  20.327  0.00  0.00    +0.000 C 
ATOM      5  C   UNL     1       0.703   9.346  19.639  0.00  0.00    +0.000 A 
ATOM      6  C   UNL     1       1.008   9.518  18.296  0.00  0.00    +0.000 A 
ATOM      7  C   UNL     1       1.984   8.710  17.710  0.00  0.00    +0.000 A 
ATOM      8  C   UNL     1       2.571   7.676  18.436  0.00  0.00    +0.000 A 
ATOM      9  C   UNL     1       2.239   7.610  19.786  0.00  0.00    +0.000 A 
ATOM     10  N   UNL     1       1.325   8.412  20.398  0.00  0.00    +0.000 NA
ENDBRANCH   1   8
BRANCH   3  11
ATOM     11  C   UNL     1       2.504   4.677  18.887  0.00  0.00    +0.000 C 
ATOM     12  C   UNL     1       1.605   3.632  18.231  0.00  0.00    +0.000 C 
ATOM     13  C   UNL     1       0.719   3.224  19.407  0.00  0.00    +0.000 C 
ATOM     14  C   UNL     1       1.630   3.316  20.644  0.00  0.00    +0.000 C 
ATOM     15  C   UNL     1       2.937   3.967  20.165  0.00  0.00    +0.000 C 
ENDBRANCH   3  11
BRANCH   3  16
ATOM     16  C   UNL     1       4.689   4.514  17.603  0.00  0.00    +0.000 C 
ATOM     17  C   UNL     1       4.824   4.554  16.084  0.00  0.00    +0.000 C 
ATOM     18  C   UNL     1       6.213   3.991  15.821  0.00  0.00    +0.000 C 
ATOM     19  C   UNL     1       7.063   4.415  17.014  0.00  0.00    +0.000 C 
ATOM     20  C   UNL     1       6.099   4.860  18.118  0.00  0.00    +0.000 C 
ENDBRANCH   3  16
TORSDOF 3
ENDMDL
MODEL 2
REMARK VINA RESULT:      -7.5      0.693      1.109
REMARK  Name = 
REMARK  4 active torsions:
REMARK  status: ('A' for Active; 'I' for Inactive)
REMARK    1  A    between atoms: C_1  and  C_2
REMARK    2  A    between atoms: C_5  and  C_6
REMARK    3  A    between atoms: N_8  and  C_9
REMARK    4  A    between atoms: N_8  and  C_14
REMARK                            x       y       z     vdW  Elec       q    Type
REMARK                         _______ _______ _______ _____ _____    ______ ____
ROOT
ATOM      1  C   UNL     1       3.738   6.630  17.978  0.00  0.00    +0.000 C 
ATOM      2  O   UNL     1       4.600   7.203  17.307  0.00  0.00    +0.000 OA
ATOM      3  N   UNL     1       3.737   5.225  18.174  0.00  0.00    +0.000 N 
ENDROOT
BRANCH   1   8
ATOM      4  C   UNL     1      -0.305  10.252  19.919  0.00  0.00    +0.000 C 
ATOM      5  C   UNL     1       0.782   9.318  19.484  0.00  0.00    +0.000 A 
ATOM      6  C   UNL     1       1.288   8.366  20.358  0.00  0.00    +0.000 A 
ATOM      7  C   UNL     1       2.228   7.445  19.893  0.00  0.00    +0.000 A 
ATOM      8  C   UNL     1       2.729   7.544  18.596  0.00  0.00    +0.000 A 
ATOM      9  C   UNL     1       2.129   8.499  17.779  0.00  0.00    +0.000 A 
ATOM     10  N   UNL     1       1.178   9.382  18.190  0.00  0.00    +0.000 NA
ENDBRANCH   1   8
BRANCH   3  11
ATOM     11  C   UNL     1       2.769   4.543  19.036  0.00  0.00    +0.000 C 
ATOM     12  C   UNL     1       1.515   3.899  18.451  0.00  0.00    +0.000 C 
ATOM     13  C   UNL     1       0.878   3.298  19.703  0.00  0.00    +0.000 C 
ATOM     14  C   UNL     1       2.062   2.869  20.587  0.00  0.00    +0.000 C 
ATOM     15  C   UNL     1       3.325   3.421  19.907  0.00  0.00    +0.000 C 
ENDBRANCH   3  11
BRANCH   3  16
ATOM     16  C   UNL     1       4.812   4.428  17.534  0.00  0.00    +0.000 C 
ATOM     17  C   UNL     1       4.805   4.495  16.010  0.00  0.00    +0.000 C 
ATOM     18  C   UNL     1       6.170   3.957  15.608  0.00  0.00    +0.000 C 
ATOM     19  C   UNL     1       7.122   4.372  16.725  0.00  0.00    +0.000 C 
ATOM     20  C   UNL     1       6.260   4.786  17.922  0.00  0.00    +0.000 C 
ENDBRANCH   3  16
TORSDOF 3
ENDMDL
MODEL 3
REMARK VINA RESULT:      -7.1      0.984      1.057
REMARK  Name = 
REMARK  4 active torsions:
REMARK  status: ('A' for Active; 'I' for Inactive)
REMARK    1  A    between atoms: C_1  and  C_2
REMARK    2  A    between atoms: C_5  and  C_6
REMARK    3  A    between atoms: N_8  and  C_9
REMARK    4  A    between atoms: N_8  and  C_14
REMARK                            x       y       z     vdW  Elec       q    Type
REMARK                         _______ _______ _______ _____ _____    ______ ____
ROOT
ATOM      1  C   UNL     1       3.971   6.481  17.337  0.00  0.00    +0.000 C 
ATOM      2  O   UNL     1       4.853   7.126  16.765  0.00  0.00    +0.000 OA
ATOM      3  N   UNL     1       3.920   5.064  17.298  0.00  0.00    +0.000 N 
ENDROOT
BRANCH   1   8
ATOM      4  C   UNL     1       0.397   9.517  20.689  0.00  0.00    +0.000 C 
ATOM      5  C   UNL     1       1.276   8.740  19.758  0.00  0.00    +0.000 A 
ATOM      6  C   UNL     1       1.493   9.179  18.459  0.00  0.00    +0.000 A 
ATOM      7  C   UNL     1       2.396   8.488  17.649  0.00  0.00    +0.000 A 
ATOM      8  C   UNL     1       2.995   7.315  18.103  0.00  0.00    +0.000 A 
ATOM      9  C   UNL     1       2.755   6.979  19.432  0.00  0.00    +0.000 A 
ATOM     10  N   UNL     1       1.915   7.657  20.262  0.00  0.00    +0.000 NA
ENDBRANCH   1   8
BRANCH   3  11
ATOM     11  C   UNL     1       2.928   4.282  18.041  0.00  0.00    +0.000 C 
ATOM     12  C   UNL     1       1.784   3.577  17.317  0.00  0.00    +0.000 C 
ATOM     13  C   UNL     1       1.078   2.885  18.482  0.00  0.00    +0.000 C 
ATOM     14  C   UNL     1       2.203   2.504  19.461  0.00  0.00    +0.000 C 
ATOM     15  C   UNL     1       3.480   3.168  18.923  0.00  0.00    +0.000 C 
ENDBRANCH   3  11
BRANCH   3  16
ATOM     16  C   UNL     1       4.966   4.346  16.528  0.00  0.00    +0.000 C 
ATOM     17  C   UNL     1       4.857   4.532  15.018  0.00  0.00    +0.000 C 
ATOM     18  C   UNL     1       6.203   4.061  14.489  0.00  0.00    +0.000 C 
ATOM     19  C   UNL     1       7.219   4.411  15.571  0.00  0.00    +0.000 C 
ATOM     20  C   UNL     1       6.429   4.708  16.850  0.00  0.00    +0.000 C 
ENDBRANCH   3  16
TORSDOF 3
ENDMDL
MODEL 4
REMARK VINA RESULT:      -7.1      2.290      5.100
REMARK  Name = 
REMARK  4 active torsions:
REMARK  status: ('A' for Active; 'I' for Inactive)
REMARK    1  A    between atoms: C_1  and  C_2
REMARK    2  A    between atoms: C_5  and  C_6
REMARK    3  A    between atoms: N_8  and  C_9
REMARK    4  A    between atoms: N_8  and  C_14
REMARK                            x       y       z     vdW  Elec       q    Type
REMARK                         _______ _______ _______ _____ _____    ______ ____
ROOT
ATOM      1  C   UNL     1       5.153   4.687  17.826  0.00  0.00    +0.000 C 
ATOM      2  O   UNL     1       5.608   3.633  17.375  0.00  0.00    +0.000 OA
ATOM      3  N   UNL     1       3.818   4.801  18.292  0.00  0.00    +0.000 N 
ENDROOT
BRANCH   1   8
ATOM      4  C   UNL     1       8.613   9.298  17.819  0.00  0.00    +0.000 C 
ATOM      5  C   UNL     1       7.778   8.055  17.830  0.00  0.00    +0.000 A 
ATOM      6  C   UNL     1       8.057   7.023  18.715  0.00  0.00    +0.000 A 
ATOM      7  C   UNL     1       7.200   5.922  18.770  0.00  0.00    +0.000 A 
ATOM      8  C   UNL     1       6.137   5.812  17.877  0.00  0.00    +0.000 A 
ATOM      9  C   UNL     1       5.907   6.915  17.059  0.00  0.00    +0.000 A 
ATOM     10  N   UNL     1       6.697   8.023  17.014  0.00  0.00    +0.000 NA
ENDBRANCH   1   8
BRANCH   3  11
ATOM     11  C   UNL     1       3.291   6.022  18.907  0.00  0.00    +0.000 C 
ATOM     12  C   UNL     1       2.484   7.026  18.088  0.00  0.00    +0.000 C 
ATOM     13  C   UNL     1       2.134   8.064  19.154  0.00  0.00    +0.000 C 
ATOM     14  C   UNL     1       1.952   7.257  20.451  0.00  0.00    +0.000 C 
ATOM     15  C   UNL     1       2.402   5.823  20.130  0.00  0.00    +0.000 C 
ENDBRANCH   3  11
BRANCH   3  16
ATOM     16  C   UNL     1       2.946   3.602  18.218  0.00  0.00    +0.000 C 
ATOM     17  C   UNL     1       2.995   2.727  19.466  0.00  0.00    +0.000 C 
ATOM     18  C   UNL     1       1.779   1.822  19.332  0.00  0.00    +0.000 C 
ATOM     19  C   UNL     1       0.724   2.653  18.609  0.00  0.00    +0.000 C 
ATOM     20  C   UNL     1       1.444   3.856  17.991  0.00  0.00    +0.000 C 
ENDBRANCH   3  16
TORSDOF 3
ENDMDL
MODEL 5
REMARK VINA RESULT:      -7.0      2.741      5.025
REMARK  Name = 
REMARK  4 active torsions:
REMARK  status: ('A' for Active; 'I' for Inactive)
REMARK    1  A    between atoms: C_1  and  C_2
REMARK    2  A    between atoms: C_5  and  C_6
REMARK    3  A    between atoms: N_8  and  C_9
REMARK    4  A    between atoms: N_8  and  C_14
REMARK                            x       y       z     vdW  Elec       q    Type
REMARK                         _______ _______ _______ _____ _____    ______ ____
ROOT
ATOM      1  C   UNL     1       6.208   4.964  17.642  0.00  0.00    +0.000 C 
ATOM      2  O   UNL     1       6.889   4.028  17.213  0.00  0.00    +0.000 OA
ATOM      3  N   UNL     1       4.832   4.823  17.952  0.00  0.00    +0.000 N 
ENDROOT
BRANCH   1   8
ATOM      4  C   UNL     1       8.780  10.093  18.194  0.00  0.00    +0.000 C 
ATOM      5  C   UNL     1       8.181   8.727  18.065  0.00  0.00    +0.000 A 
ATOM      6  C   UNL     1       8.549   7.709  18.934  0.00  0.00    +0.000 A 
ATOM      7  C   UNL     1       7.900   6.475  18.852  0.00  0.00    +0.000 A 
ATOM      8  C   UNL     1       6.968   6.237  17.844  0.00  0.00    +0.000 A 
ATOM      9  C   UNL     1       6.629   7.329  17.051  0.00  0.00    +0.000 A 
ATOM     10  N   UNL     1       7.211   8.557  17.135  0.00  0.00    +0.000 NA
ENDBRANCH   1   8
BRANCH   3  11
ATOM     11  C   UNL     1       4.034   5.901  18.540  0.00  0.00    +0.000 C 
ATOM     12  C   UNL     1       3.101   6.747  17.676  0.00  0.00    +0.000 C 
ATOM     13  C   UNL     1       2.482   7.670  18.725  0.00  0.00    +0.000 C 
ATOM     14  C   UNL     1       2.376   6.813  19.998  0.00  0.00    +0.000 C 
ATOM     15  C   UNL     1       3.122   5.503  19.695  0.00  0.00    +0.000 C 
ENDBRANCH   3  11
BRANCH   3  16
ATOM     16  C   UNL     1       4.198   3.498  17.738  0.00  0.00    +0.000 C 
ATOM     17  C   UNL     1       4.188   2.612  18.979  0.00  0.00    +0.000 C 
ATOM     18  C   UNL     1       3.180   1.521  18.647  0.00  0.00    +0.000 C 
ATOM     19  C   UNL     1       2.133   2.183  17.757  0.00  0.00    +0.000 C 
ATOM     20  C   UNL     1       2.732   3.504  17.263  0.00  0.00    +0.000 C 
ENDBRANCH   3  16
TORSDOF 3
ENDMDL
MODEL 6
REMARK VINA RESULT:      -6.9      2.844      4.941
REMARK  Name = 
REMARK  4 active torsions:
REMARK  status: ('A' for Active; 'I' for Inactive)
REMARK    1  A    between atoms: C_1  and  C_2
REMARK    2  A    between atoms: C_5  and  C_6
REMARK    3  A    between atoms: N_8  and  C_9
REMARK    4  A    between atoms: N_8  and  C_14
REMARK                            x       y       z     vdW  Elec       q    Type
REMARK                         _______ _______ _______ _____ _____    ______ ____
ROOT
ATOM      1  C   UNL     1       6.177   5.092  17.648  0.00  0.00    +0.000 C 
ATOM      2  O   UNL     1       6.894   4.201  17.186  0.00  0.00    +0.000 OA
ATOM      3  N   UNL     1       4.818   4.875  17.989  0.00  0.00    +0.000 N 
ENDROOT
BRANCH   1   8
ATOM      4  C   UNL     1       9.217   9.883  18.667  0.00  0.00    +0.000 C 
ATOM      5  C   UNL     1       8.364   8.684  18.392  0.00  0.00    +0.000 A 
ATOM      6  C   UNL     1       7.410   8.711  17.384  0.00  0.00    +0.000 A 
ATOM      7  C   UNL     1       6.702   7.546  17.085  0.00  0.00    +0.000 A 
ATOM      8  C   UNL     1       6.876   6.399  17.857  0.00  0.00    +0.000 A 
ATOM      9  C   UNL     1       7.885   6.451  18.814  0.00  0.00    +0.000 A 
ATOM     10  N   UNL     1       8.625   7.558  19.098  0.00  0.00    +0.000 NA
ENDBRANCH   1   8
BRANCH   3  11
ATOM     11  C   UNL     1       3.980   5.901  18.616  0.00  0.00    +0.000 C 
ATOM     12  C   UNL     1       3.045   6.769  17.778  0.00  0.00    +0.000 C 
ATOM     13  C   UNL     1       2.381   7.619  18.861  0.00  0.00    +0.000 C 
ATOM     14  C   UNL     1       2.270   6.691  20.083  0.00  0.00    +0.000 C 
ATOM     15  C   UNL     1       3.055   5.419  19.728  0.00  0.00    +0.000 C 
ENDBRANCH   3  11
BRANCH   3  16
ATOM     16  C   UNL     1       4.247   3.524  17.764  0.00  0.00    +0.000 C 
ATOM     17  C   UNL     1       4.234   2.646  19.011  0.00  0.00    +0.000 C 
ATOM     18  C   UNL     1       3.284   1.511  18.655  0.00  0.00    +0.000 C 
ATOM     19  C   UNL     1       2.240   2.123  17.727  0.00  0.00    +0.000 C 
ATOM     20  C   UNL     1       2.799   3.465  17.243  0.00  0.00    +0.000 C 
ENDBRANCH   3  16
TORSDOF 3
ENDMDL
MODEL 7
REMARK VINA RESULT:      -6.7      3.173      5.168
REMARK  Name = 
REMARK  4 active torsions:
REMARK  status: ('A' for Active; 'I' for Inactive)
REMARK    1  A    between atoms: C_1  and  C_2
REMARK    2  A    between atoms: C_5  and  C_6
REMARK    3  A    between atoms: N_8  and  C_9
REMARK    4  A    between atoms: N_8  and  C_14
REMARK                            x       y       z     vdW  Elec       q    Type
REMARK                         _______ _______ _______ _____ _____    ______ ____
ROOT
ATOM      1  C   UNL     1       5.134   5.363  18.512  0.00  0.00    +0.000 C 
ATOM      2  O   UNL     1       5.367   5.891  19.603  0.00  0.00    +0.000 OA
ATOM      3  N   UNL     1       5.997   5.512  17.397  0.00  0.00    +0.000 N 
ENDROOT
BRANCH   1   8
ATOM      4  C   UNL     1       0.538   1.895  18.779  0.00  0.00    +0.000 C 
ATOM      5  C   UNL     1       1.711   2.814  18.636  0.00  0.00    +0.000 A 
ATOM      6  C   UNL     1       1.580   4.033  17.986  0.00  0.00    +0.000 A 
ATOM      7  C   UNL     1       2.665   4.911  17.958  0.00  0.00    +0.000 A 
ATOM      8  C   UNL     1       3.896   4.525  18.485  0.00  0.00    +0.000 A 
ATOM      9  C   UNL     1       3.920   3.307  19.157  0.00  0.00    +0.000 A 
ATOM     10  N   UNL     1       2.867   2.448  19.242  0.00  0.00    +0.000 NA
ENDBRANCH   1   8
BRANCH   3  11
ATOM     11  C   UNL     1       5.776   4.824  16.122  0.00  0.00    +0.000 C 
ATOM     12  C   UNL     1       5.071   5.525  14.964  0.00  0.00    +0.000 C 
ATOM     13  C   UNL     1       5.127   4.444  13.885  0.00  0.00    +0.000 C 
ATOM     14  C   UNL     1       6.460   3.713  14.122  0.00  0.00    +0.000 C 
ATOM     15  C   UNL     1       7.020   4.261  15.443  0.00  0.00    +0.000 C 
ENDBRANCH   3  11
BRANCH   3  16
ATOM     16  C   UNL     1       7.214   6.345  17.559  0.00  0.00    +0.000 C 
ATOM     17  C   UNL     1       6.981   7.832  17.311  0.00  0.00    +0.000 C 
ATOM     18  C   UNL     1       8.213   8.504  17.900  0.00  0.00    +0.000 C 
ATOM     19  C   UNL     1       8.630   7.636  19.083  0.00  0.00    +0.000 C 
ATOM     20  C   UNL     1       7.906   6.294  18.934  0.00  0.00    +0.000 C 
ENDBRANCH   3  16
TORSDOF 3
ENDMDL
MODEL 8
REMARK VINA RESULT:      -6.7      1.318      1.997
REMARK  Name = 
REMARK  4 active torsions:
REMARK  status: ('A' for Active; 'I' for Inactive)
REMARK    1  A    between atoms: C_1  and  C_2
REMARK    2  A    between atoms: C_5  and  C_6
REMARK    3  A    between atoms: N_8  and  C_9
REMARK    4  A    between atoms: N_8  and  C_14
REMARK                            x       y       z     vdW  Elec       q    Type
REMARK                         _______ _______ _______ _____ _____    ______ ____
ROOT
ATOM      1  C   UNL     1       2.577   7.551  18.602  0.00  0.00    +0.000 C 
ATOM      2  O   UNL     1       3.130   8.285  17.779  0.00  0.00    +0.000 OA
ATOM      3  N   UNL     1       2.736   6.142  18.592  0.00  0.00    +0.000 N 
ENDROOT
BRANCH   1   8
ATOM      4  C   UNL     1      -0.771  10.564  22.200  0.00  0.00    +0.000 C 
ATOM      5  C   UNL     1       0.148   9.768  21.325  0.00  0.00    +0.000 A 
ATOM      6  C   UNL     1       0.747   8.609  21.798  0.00  0.00    +0.000 A 
ATOM      7  C   UNL     1       1.517   7.836  20.927  0.00  0.00    +0.000 A 
ATOM      8  C   UNL     1       1.767   8.277  19.629  0.00  0.00    +0.000 A 
ATOM      9  C   UNL     1       1.088   9.424  19.230  0.00  0.00    +0.000 A 
ATOM     10  N   UNL     1       0.294  10.175  20.041  0.00  0.00    +0.000 NA
ENDBRANCH   1   8
BRANCH   3  11
ATOM     11  C   UNL     1       2.153   5.267  19.612  0.00  0.00    +0.000 C 
ATOM     12  C   UNL     1       1.228   4.117  19.224  0.00  0.00    +0.000 C 
ATOM     13  C   UNL     1       0.934   3.499  20.590  0.00  0.00    +0.000 C 
ATOM     14  C   UNL     1       2.230   3.684  21.399  0.00  0.00    +0.000 C 
ATOM     15  C   UNL     1       3.143   4.578  20.545  0.00  0.00    +0.000 C 
ENDBRANCH   3  11
BRANCH   3  16
ATOM     16  C   UNL     1       3.593   5.542  17.539  0.00  0.00    +0.000 C 
ATOM     17  C   UNL     1       5.086   5.618  17.841  0.00  0.00    +0.000 C 
ATOM     18  C   UNL     1       5.712   4.632  16.867  0.00  0.00    +0.000 C 
ATOM     19  C   UNL     1       4.681   3.524  16.681  0.00  0.00    +0.000 C 
ATOM     20  C   UNL     1       3.347   4.056  17.214  0.00  0.00    +0.000 C 
ENDBRANCH   3  16
TORSDOF 3
ENDMDL
MODEL 9
REMARK VINA RESULT:      -6.6      2.382      5.006
REMARK  Name = 
REMARK  4 active torsions:
REMARK  status: ('A' for Active; 'I' for Inactive)
REMARK    1  A    between atoms: C_1  and  C_2
REMARK    2  A    between atoms: C_5  and  C_6
REMARK    3  A    between atoms: N_8  and  C_9
REMARK    4  A    between atoms: N_8  and  C_14
REMARK                            x       y       z     vdW  Elec       q    Type
REMARK                         _______ _______ _______ _____ _____    ______ ____
ROOT
ATOM      1  C   UNL     1       5.095   4.802  17.857  0.00  0.00    +0.000 C 
ATOM      2  O   UNL     1       5.592   3.786  17.365  0.00  0.00    +0.000 OA
ATOM      3  N   UNL     1       3.777   4.826  18.379  0.00  0.00    +0.000 N 
ENDROOT
BRANCH   1   8
ATOM      4  C   UNL     1       8.962   9.065  18.176  0.00  0.00    +0.000 C 
ATOM      5  C   UNL     1       7.901   8.012  18.088  0.00  0.00    +0.000 A 
ATOM      6  C   UNL     1       6.835   8.154  17.211  0.00  0.00    +0.000 A 
ATOM      7  C   UNL     1       5.917   7.110  17.078  0.00  0.00    +0.000 A 
ATOM      8  C   UNL     1       6.012   5.983  17.892  0.00  0.00    +0.000 A 
ATOM      9  C   UNL     1       7.138   5.908  18.707  0.00  0.00    +0.000 A 
ATOM     10  N   UNL     1       8.075   6.889  18.825  0.00  0.00    +0.000 NA
ENDBRANCH   1   8
BRANCH   3  11
ATOM     11  C   UNL     1       3.204   6.001  19.041  0.00  0.00    +0.000 C 
ATOM     12  C   UNL     1       2.431   7.050  18.246  0.00  0.00    +0.000 C 
ATOM     13  C   UNL     1       2.013   8.014  19.356  0.00  0.00    +0.000 C 
ATOM     14  C   UNL     1       1.771   7.124  20.588  0.00  0.00    +0.000 C 
ATOM     15  C   UNL     1       2.255   5.717  20.200  0.00  0.00    +0.000 C 
ENDBRANCH   3  11
BRANCH   3  16
ATOM     16  C   UNL     1       2.975   3.579  18.315  0.00  0.00    +0.000 C 
ATOM     17  C   UNL     1       3.036   2.741  19.588  0.00  0.00    +0.000 C 
ATOM     18  C   UNL     1       1.876   1.765  19.445  0.00  0.00    +0.000 C 
ATOM     19  C   UNL     1       0.798   2.517  18.670  0.00  0.00    +0.000 C 
ATOM     20  C   UNL     1       1.468   3.741  18.039  0.00  0.00    +0.000 C 
ENDBRANCH   3  16
TORSDOF 3
ENDMDL
