MODEL 1
REMARK VINA RESULT:      -7.1      0.000      0.000
REMARK  Name = 
REMARK  5 active torsions:
REMARK  status: ('A' for Active; 'I' for Inactive)
REMARK    1  A    between atoms: C_2  and  C_3
REMARK    2  A    between atoms: C_2  and  C_4
REMARK    3  A    between atoms: C_7  and  C_8
REMARK    4  A    between atoms: C_11  and  C_12
REMARK    5  A    between atoms: C_11  and  O_13
REMARK                            x       y       z     vdW  Elec       q    Type
REMARK                         _______ _______ _______ _____ _____    ______ ____
ROOT
ATOM      1  C   UNL     1       5.205   4.521  15.161  0.00  0.00    +0.000 C 
ATOM      2  C   UNL     1       4.960   5.995  15.607  0.00  0.00    +0.000 C 
ATOM      3  C   UNL     1       5.583   6.291  16.983  0.00  0.00    +0.000 C 
ATOM      4  C   UNL     1       4.917   5.425  18.089  0.00  0.00    +0.000 C 
ATOM      5  C   UNL     1       5.885   5.206  19.270  0.00  0.00    +0.000 C 
ATOM      6  C   UNL     1       3.690   6.164  18.603  0.00  0.00    +0.000 C 
ATOM      7  C   UNL     1       2.457   5.631  18.627  0.00  0.00    +0.000 C 
ATOM      8  C   UNL     1       2.147   4.215  18.223  0.00  0.00    +0.000 C 
ATOM      9  C   UNL     1       1.408   3.515  19.363  0.00  0.00    +0.000 C 
ATOM     10  C   UNL     1       3.355   3.470  17.690  0.00  0.00    +0.000 C 
ATOM     11  C   UNL     1       4.555   4.060  17.500  0.00  0.00    +0.000 C 
ATOM     12  C   UNL     1       5.479   3.595  16.389  0.00  0.00    +0.000 C 
ENDROOT
BRANCH   1  14
ATOM     13  C   UNL     1       7.429   5.021  14.103  0.00  0.00    +0.000 C 
ATOM     14  C   UNL     1       6.233   4.399  14.037  0.00  0.00    +0.000 C 
ATOM     15  C   UNL     1       5.914   3.528  12.854  0.00  0.00    +0.000 C 
ENDBRANCH   1  14
BRANCH   8  16
ATOM     16  O   UNL     1       1.223   4.314  17.132  0.00  0.00    +0.000 OA
ATOM     17  H   UNL     1       1.728   4.472  16.318  0.00  0.00    +0.000 HD
ENDBRANCH   8  16
TORSDOF 2
ENDMDL
MODEL 2
REMARK VINA RESULT:      -7.0      2.361      3.210
REMARK  Name = 
REMARK  5 active torsions:
REMARK  status: ('A' for Active; 'I' for Inactive)
REMARK    1  A    between atoms: C_2  and  C_3
REMARK    2  A    between atoms: C_2  and  C_4
REMARK    3  A    between atoms: C_7  and  C_8
REMARK    4  A    between atoms: C_11  and  C_12
REMARK    5  A    between atoms: C_11  and  O_13
REMARK                            x       y       z     vdW  Elec       q    Type
REMARK                         _______ _______ _______ _____ _____    ______ ____
ROOT
ATOM      1  C   UNL     1       5.779   5.458  18.126  0.00  0.00    +0.000 C 
ATOM      2  C   UNL     1       4.777   6.094  17.115  0.00  0.00    +0.000 C 
ATOM      3  C   UNL     1       3.666   6.886  17.828  0.00  0.00    +0.000 C 
ATOM      4  C   UNL     1       2.797   5.946  18.711  0.00  0.00    +0.000 C 
ATOM      5  C   UNL     1       2.154   6.729  19.874  0.00  0.00    +0.000 C 
ATOM      6  C   UNL     1       1.686   5.368  17.847  0.00  0.00    +0.000 C 
ATOM      7  C   UNL     1       1.462   4.051  17.708  0.00  0.00    +0.000 C 
ATOM      8  C   UNL     1       2.228   2.986  18.446  0.00  0.00    +0.000 C 
ATOM      9  C   UNL     1       1.247   2.080  19.188  0.00  0.00    +0.000 C 
ATOM     10  C   UNL     1       3.352   3.544  19.297  0.00  0.00    +0.000 C 
ATOM     11  C   UNL     1       3.691   4.852  19.298  0.00  0.00    +0.000 C 
ATOM     12  C   UNL     1       5.128   5.279  19.534  0.00  0.00    +0.000 C 
ENDROOT
BRANCH   1  14
ATOM     13  C   UNL     1       7.444   7.127  17.255  0.00  0.00    +0.000 C 
ATOM     14  C   UNL     1       7.138   6.158  18.143  0.00  0.00    +0.000 C 
ATOM     15  C   UNL     1       8.134   5.782  19.204  0.00  0.00    +0.000 C 
ENDBRANCH   1  14
BRANCH   8  16
ATOM     16  O   UNL     1       2.850   2.182  17.437  0.00  0.00    +0.000 OA
ATOM     17  H   UNL     1       2.224   2.077  16.702  0.00  0.00    +0.000 HD
ENDBRANCH   8  16
TORSDOF 2
ENDMDL
MODEL 3
REMARK VINA RESULT:      -6.9      2.513      3.909
REMARK  Name = 
REMARK  5 active torsions:
REMARK  status: ('A' for Active; 'I' for Inactive)
REMARK    1  A    between atoms: C_2  and  C_3
REMARK    2  A    between atoms: C_2  and  C_4
REMARK    3  A    between atoms: C_7  and  C_8
REMARK    4  A    between atoms: C_11  and  C_12
REMARK    5  A    between atoms: C_11  and  O_13
REMARK                            x       y       z     vdW  Elec       q    Type
REMARK                         _______ _______ _______ _____ _____    ______ ____
ROOT
ATOM      1  C   UNL     1       5.397   5.149  18.681  0.00  0.00    +0.000 C 
ATOM      2  C   UNL     1       5.158   3.902  17.776  0.00  0.00    +0.000 C 
ATOM      3  C   UNL     1       3.807   3.973  17.043  0.00  0.00    +0.000 C 
ATOM      4  C   UNL     1       2.627   3.963  18.055  0.00  0.00    +0.000 C 
ATOM      5  C   UNL     1       1.388   4.660  17.457  0.00  0.00    +0.000 C 
ATOM      6  C   UNL     1       2.267   2.516  18.356  0.00  0.00    +0.000 C 
ATOM      7  C   UNL     1       2.226   2.003  19.597  0.00  0.00    +0.000 C 
ATOM      8  C   UNL     1       2.455   2.810  20.847  0.00  0.00    +0.000 C 
ATOM      9  C   UNL     1       1.266   2.629  21.790  0.00  0.00    +0.000 C 
ATOM     10  C   UNL     1       2.834   4.250  20.564  0.00  0.00    +0.000 C 
ATOM     11  C   UNL     1       3.049   4.720  19.316  0.00  0.00    +0.000 C 
ATOM     12  C   UNL     1       4.049   5.835  19.069  0.00  0.00    +0.000 C 
ENDROOT
BRANCH   1  14
ATOM     13  C   UNL     1       6.187   6.907  17.068  0.00  0.00    +0.000 C 
ATOM     14  C   UNL     1       6.451   6.103  18.119  0.00  0.00    +0.000 C 
ATOM     15  C   UNL     1       7.797   6.170  18.785  0.00  0.00    +0.000 C 
ENDBRANCH   1  14
BRANCH   8  16
ATOM     16  O   UNL     1       3.588   2.216  21.493  0.00  0.00    +0.000 OA
ATOM     17  H   UNL     1       3.433   2.228  22.451  0.00  0.00    +0.000 HD
ENDBRANCH   8  16
TORSDOF 2
ENDMDL
MODEL 4
REMARK VINA RESULT:      -6.8      1.845      5.158
REMARK  Name = 
REMARK  5 active torsions:
REMARK  status: ('A' for Active; 'I' for Inactive)
REMARK    1  A    between atoms: C_2  and  C_3
REMARK    2  A    between atoms: C_2  and  C_4
REMARK    3  A    between atoms: C_7  and  C_8
REMARK    4  A    between atoms: C_11  and  C_12
REMARK    5  A    between atoms: C_11  and  O_13
REMARK                            x       y       z     vdW  Elec       q    Type
REMARK                         _______ _______ _______ _____ _____    ______ ____
ROOT
ATOM      1  C   UNL     1       3.662   5.781  18.422  0.00  0.00    +0.000 C 
ATOM      2  C   UNL     1       4.735   4.859  19.076  0.00  0.00    +0.000 C 
ATOM      3  C   UNL     1       6.086   5.578  19.244  0.00  0.00    +0.000 C 
ATOM      4  C   UNL     1       6.683   5.964  17.862  0.00  0.00    +0.000 C 
ATOM      5  C   UNL     1       7.620   7.182  17.991  0.00  0.00    +0.000 C 
ATOM      6  C   UNL     1       7.494   4.786  17.345  0.00  0.00    +0.000 C 
ATOM      7  C   UNL     1       7.289   4.210  16.148  0.00  0.00    +0.000 C 
ATOM      8  C   UNL     1       6.286   4.704  15.139  0.00  0.00    +0.000 C 
ATOM      9  C   UNL     1       6.990   4.948  13.805  0.00  0.00    +0.000 C 
ATOM     10  C   UNL     1       5.456   5.866  15.647  0.00  0.00    +0.000 C 
ATOM     11  C   UNL     1       5.539   6.330  16.913  0.00  0.00    +0.000 C 
ATOM     12  C   UNL     1       4.326   6.930  17.600  0.00  0.00    +0.000 C 
ENDROOT
BRANCH   1  14
ATOM     13  C   UNL     1       2.204   7.539  19.471  0.00  0.00    +0.000 C 
ATOM     14  C   UNL     1       2.592   6.248  19.408  0.00  0.00    +0.000 C 
ATOM     15  C   UNL     1       1.931   5.230  20.295  0.00  0.00    +0.000 C 
ENDBRANCH   1  14
BRANCH   8  16
ATOM     16  O   UNL     1       5.375   3.619  14.932  0.00  0.00    +0.000 OA
ATOM     17  H   UNL     1       4.492   3.903  15.219  0.00  0.00    +0.000 HD
ENDBRANCH   8  16
TORSDOF 2
ENDMDL
MODEL 5
REMARK VINA RESULT:      -6.7      1.981      3.002
REMARK  Name = 
REMARK  5 active torsions:
REMARK  status: ('A' for Active; 'I' for Inactive)
REMARK    1  A    between atoms: C_2  and  C_3
REMARK    2  A    between atoms: C_2  and  C_4
REMARK    3  A    between atoms: C_7  and  C_8
REMARK    4  A    between atoms: C_11  and  C_12
REMARK    5  A    between atoms: C_11  and  O_13
REMARK                            x       y       z     vdW  Elec       q    Type
REMARK                         _______ _______ _______ _____ _____    ______ ____
ROOT
ATOM      1  C   UNL     1       5.706   4.590  17.931  0.00  0.00    +0.000 C 
ATOM      2  C   UNL     1       4.623   4.924  16.859  0.00  0.00    +0.000 C 
ATOM      3  C   UNL     1       3.679   6.047  17.325  0.00  0.00    +0.000 C 
ATOM      4  C   UNL     1       2.874   5.607  18.580  0.00  0.00    +0.000 C 
ATOM      5  C   UNL     1       2.453   6.832  19.417  0.00  0.00    +0.000 C 
ATOM      6  C   UNL     1       1.617   4.888  18.114  0.00  0.00    +0.000 C 
ATOM      7  C   UNL     1       1.282   3.647  18.508  0.00  0.00    +0.000 C 
ATOM      8  C   UNL     1       2.063   2.846  19.515  0.00  0.00    +0.000 C 
ATOM      9  C   UNL     1       1.129   2.398  20.638  0.00  0.00    +0.000 C 
ATOM     10  C   UNL     1       3.330   3.541  19.974  0.00  0.00    +0.000 C 
ATOM     11  C   UNL     1       3.758   4.708  19.446  0.00  0.00    +0.000 C 
ATOM     12  C   UNL     1       5.241   5.020  19.358  0.00  0.00    +0.000 C 
ENDROOT
BRANCH   1  14
ATOM     13  C   UNL     1       7.653   4.778  16.352  0.00  0.00    +0.000 C 
ATOM     14  C   UNL     1       7.100   5.083  17.546  0.00  0.00    +0.000 C 
ATOM     15  C   UNL     1       7.850   5.962  18.508  0.00  0.00    +0.000 C 
ENDBRANCH   1  14
BRANCH   8  16
ATOM     16  O   UNL     1       2.482   1.660  18.828  0.00  0.00    +0.000 OA
ATOM     17  H   UNL     1       3.445   1.700  18.711  0.00  0.00    +0.000 HD
ENDBRANCH   8  16
TORSDOF 2
ENDMDL
MODEL 6
REMARK VINA RESULT:      -6.7      1.870      5.103
REMARK  Name = 
REMARK  5 active torsions:
REMARK  status: ('A' for Active; 'I' for Inactive)
REMARK    1  A    between atoms: C_2  and  C_3
REMARK    2  A    between atoms: C_2  and  C_4
REMARK    3  A    between atoms: C_7  and  C_8
REMARK    4  A    between atoms: C_11  and  C_12
REMARK    5  A    between atoms: C_11  and  O_13
REMARK                            x       y       z     vdW  Elec       q    Type
REMARK                         _______ _______ _______ _____ _____    ______ ____
ROOT
ATOM      1  C   UNL     1       3.085   3.274  18.635  0.00  0.00    +0.000 C 
ATOM      2  C   UNL     1       4.243   3.867  19.495  0.00  0.00    +0.000 C 
ATOM      3  C   UNL     1       4.309   5.401  19.392  0.00  0.00    +0.000 C 
ATOM      4  C   UNL     1       4.628   5.844  17.936  0.00  0.00    +0.000 C 
ATOM      5  C   UNL     1       4.079   7.259  17.663  0.00  0.00    +0.000 C 
ATOM      6  C   UNL     1       6.139   5.873  17.764  0.00  0.00    +0.000 C 
ATOM      7  C   UNL     1       6.791   5.199  16.802  0.00  0.00    +0.000 C 
ATOM      8  C   UNL     1       6.106   4.395  15.729  0.00  0.00    +0.000 C 
ATOM      9  C   UNL     1       6.585   4.870  14.358  0.00  0.00    +0.000 C 
ATOM     10  C   UNL     1       4.600   4.340  15.897  0.00  0.00    +0.000 C 
ATOM     11  C   UNL     1       3.962   4.869  16.964  0.00  0.00    +0.000 C 
ATOM     12  C   UNL     1       2.678   4.248  17.484  0.00  0.00    +0.000 C 
ENDROOT
BRANCH   1  14
ATOM     13  C   UNL     1       0.807   2.247  18.905  0.00  0.00    +0.000 C 
ATOM     14  C   UNL     1       1.915   2.766  19.476  0.00  0.00    +0.000 C 
ATOM     15  C   UNL     1       2.026   2.810  20.974  0.00  0.00    +0.000 C 
ENDBRANCH   1  14
BRANCH   8  16
ATOM     16  O   UNL     1       6.577   3.052  15.888  0.00  0.00    +0.000 OA
ATOM     17  H   UNL     1       7.493   3.009  15.568  0.00  0.00    +0.000 HD
ENDBRANCH   8  16
TORSDOF 2
ENDMDL
MODEL 7
REMARK VINA RESULT:      -6.6      3.512      5.399
REMARK  Name = 
REMARK  5 active torsions:
REMARK  status: ('A' for Active; 'I' for Inactive)
REMARK    1  A    between atoms: C_2  and  C_3
REMARK    2  A    between atoms: C_2  and  C_4
REMARK    3  A    between atoms: C_7  and  C_8
REMARK    4  A    between atoms: C_11  and  C_12
REMARK    5  A    between atoms: C_11  and  O_13
REMARK                            x       y       z     vdW  Elec       q    Type
REMARK                         _______ _______ _______ _____ _____    ______ ____
ROOT
ATOM      1  C   UNL     1       2.486   6.400  19.389  0.00  0.00    +0.000 C 
ATOM      2  C   UNL     1       2.407   5.887  17.918  0.00  0.00    +0.000 C 
ATOM      3  C   UNL     1       1.339   4.791  17.747  0.00  0.00    +0.000 C 
ATOM      4  C   UNL     1       1.698   3.534  18.588  0.00  0.00    +0.000 C 
ATOM      5  C   UNL     1       0.428   2.741  18.956  0.00  0.00    +0.000 C 
ATOM      6  C   UNL     1       2.600   2.639  17.752  0.00  0.00    +0.000 C 
ATOM      7  C   UNL     1       3.808   2.213  18.158  0.00  0.00    +0.000 C 
ATOM      8  C   UNL     1       4.388   2.503  19.516  0.00  0.00    +0.000 C 
ATOM      9  C   UNL     1       4.785   1.188  20.187  0.00  0.00    +0.000 C 
ATOM     10  C   UNL     1       3.510   3.410  20.356  0.00  0.00    +0.000 C 
ATOM     11  C   UNL     1       2.381   3.981  19.883  0.00  0.00    +0.000 C 
ATOM     12  C   UNL     1       1.929   5.339  20.390  0.00  0.00    +0.000 C 
ENDROOT
BRANCH   1  14
ATOM     13  C   UNL     1       1.426   8.223  20.756  0.00  0.00    +0.000 C 
ATOM     14  C   UNL     1       1.903   7.801  19.565  0.00  0.00    +0.000 C 
ATOM     15  C   UNL     1       1.904   8.740  18.391  0.00  0.00    +0.000 C 
ENDBRANCH   1  14
BRANCH   8  16
ATOM     16  O   UNL     1       5.600   3.226  19.276  0.00  0.00    +0.000 OA
ATOM     17  H   UNL     1       5.786   3.777  20.054  0.00  0.00    +0.000 HD
ENDBRANCH   8  16
TORSDOF 2
ENDMDL
MODEL 8
REMARK VINA RESULT:      -6.5      1.828      5.049
REMARK  Name = 
REMARK  5 active torsions:
REMARK  status: ('A' for Active; 'I' for Inactive)
REMARK    1  A    between atoms: C_2  and  C_3
REMARK    2  A    between atoms: C_2  and  C_4
REMARK    3  A    between atoms: C_7  and  C_8
REMARK    4  A    between atoms: C_11  and  C_12
REMARK    5  A    between atoms: C_11  and  O_13
REMARK                            x       y       z     vdW  Elec       q    Type
REMARK                         _______ _______ _______ _____ _____    ______ ____
ROOT
ATOM      1  C   UNL     1       3.401   4.439  18.550  0.00  0.00    +0.000 C 
ATOM      2  C   UNL     1       4.767   4.176  19.256  0.00  0.00    +0.000 C 
ATOM      3  C   UNL     1       5.659   5.430  19.268  0.00  0.00    +0.000 C 
ATOM      4  C   UNL     1       6.035   5.855  17.821  0.00  0.00    +0.000 C 
ATOM      5  C   UNL     1       6.336   7.367  17.756  0.00  0.00    +0.000 C 
ATOM      6  C   UNL     1       7.288   5.097  17.409  0.00  0.00    +0.000 C 
ATOM      7  C   UNL     1       7.368   4.340  16.302  0.00  0.00    +0.000 C 
ATOM      8  C   UNL     1       6.258   4.207  15.293  0.00  0.00    +0.000 C 
ATOM      9  C   UNL     1       6.792   4.560  13.906  0.00  0.00    +0.000 C 
ATOM     10  C   UNL     1       4.995   4.941  15.699  0.00  0.00    +0.000 C 
ATOM     11  C   UNL     1       4.855   5.555  16.894  0.00  0.00    +0.000 C 
ATOM     12  C   UNL     1       3.496   5.645  17.564  0.00  0.00    +0.000 C 
ENDROOT
BRANCH   1  14
ATOM     13  C   UNL     1       2.067   5.561  20.360  0.00  0.00    +0.000 C 
ATOM     14  C   UNL     1       2.228   4.512  19.526  0.00  0.00    +0.000 C 
ATOM     15  C   UNL     1       1.211   3.405  19.521  0.00  0.00    +0.000 C 
ENDBRANCH   1  14
BRANCH   8  16
ATOM     16  O   UNL     1       5.922   2.815  15.264  0.00  0.00    +0.000 OA
ATOM     17  H   UNL     1       6.620   2.342  14.783  0.00  0.00    +0.000 HD
ENDBRANCH   8  16
TORSDOF 2
ENDMDL
MODEL 9
REMARK VINA RESULT:      -6.5      2.296      3.514
REMARK  Name = 
REMARK  5 active torsions:
REMARK  status: ('A' for Active; 'I' for Inactive)
REMARK    1  A    between atoms: C_2  and  C_3
REMARK    2  A    between atoms: C_2  and  C_4
REMARK    3  A    between atoms: C_7  and  C_8
REMARK    4  A    between atoms: C_11  and  C_12
REMARK    5  A    between atoms: C_11  and  O_13
REMARK                            x       y       z     vdW  Elec       q    Type
REMARK                         _______ _______ _______ _____ _____    ______ ____
ROOT
ATOM      1  C   UNL     1       6.242   5.059  18.487  0.00  0.00    +0.000 C 
ATOM      2  C   UNL     1       5.708   4.894  17.031  0.00  0.00    +0.000 C 
ATOM      3  C   UNL     1       4.376   5.638  16.819  0.00  0.00    +0.000 C 
ATOM      4  C   UNL     1       3.261   5.041  17.722  0.00  0.00    +0.000 C 
ATOM      5  C   UNL     1       2.177   6.097  18.023  0.00  0.00    +0.000 C 
ATOM      6  C   UNL     1       2.611   3.884  16.979  0.00  0.00    +0.000 C 
ATOM      7  C   UNL     1       2.508   2.642  17.482  0.00  0.00    +0.000 C 
ATOM      8  C   UNL     1       2.951   2.258  18.868  0.00  0.00    +0.000 C 
ATOM      9  C   UNL     1       1.787   1.597  19.605  0.00  0.00    +0.000 C 
ATOM     10  C   UNL     1       3.618   3.395  19.615  0.00  0.00    +0.000 C 
ATOM     11  C   UNL     1       3.881   4.592  19.047  0.00  0.00    +0.000 C 
ATOM     12  C   UNL     1       5.087   5.406  19.479  0.00  0.00    +0.000 C 
ENDROOT
BRANCH   1  14
ATOM     13  C   UNL     1       8.388   5.833  19.540  0.00  0.00    +0.000 C 
ATOM     14  C   UNL     1       7.453   5.985  18.578  0.00  0.00    +0.000 C 
ATOM     15  C   UNL     1       7.623   7.062  17.543  0.00  0.00    +0.000 C 
ENDBRANCH   1  14
BRANCH   8  16
ATOM     16  O   UNL     1       3.953   1.250  18.692  0.00  0.00    +0.000 OA
ATOM     17  H   UNL     1       3.906   0.929  17.777  0.00  0.00    +0.000 HD
ENDBRANCH   8  16
TORSDOF 2
ENDMDL
