MODEL 1
REMARK VINA RESULT:      -7.6      0.000      0.000
REMARK  Name = 
REMARK  6 active torsions:
REMARK  status: ('A' for Active; 'I' for Inactive)
REMARK    1  A    between atoms: C_1  and  C_2
REMARK    2  A    between atoms: C_2  and  N_3
REMARK    3  A    between atoms: C_5  and  C_6
REMARK    4  A    between atoms: C_6  and  O_7
REMARK    5  A    between atoms: O_7  and  C_8
REMARK    6  A    between atoms: N_11  and  C_12
REMARK                            x       y       z     vdW  Elec       q    Type
REMARK                         _______ _______ _______ _____ _____    ______ ____
ROOT
ATOM      1  N   UNL     1       6.823   4.984  14.522  0.00  0.00    +0.000 N 
ATOM      2  N   UNL     1       7.487   5.815  15.442  0.00  0.00    +0.000 NA
ATOM      3  C   UNL     1       7.038   5.948  16.660  0.00  0.00    +0.000 A 
ATOM      4  C   UNL     1       5.851   5.240  17.043  0.00  0.00    +0.000 A 
ATOM      5  C   UNL     1       5.134   5.193  18.211  0.00  0.00    +0.000 A 
ATOM      6  N   UNL     1       4.084   4.327  17.992  0.00  0.00    +0.000 N 
ATOM      7  N   UNL     1       4.169   3.747  16.760  0.00  0.00    +0.000 NA
ATOM      8  C   UNL     1       5.203   4.367  16.170  0.00  0.00    +0.000 A 
ATOM      9  C   UNL     1       5.686   4.187  14.805  0.00  0.00    +0.000 A 
ATOM     10  O   UNL     1       5.159   3.436  13.987  0.00  0.00    +0.000 OA
ENDROOT
BRANCH   6  11
ATOM     11  C   UNL     1       3.054   3.962  18.896  0.00  0.00    +0.000 A 
ATOM     12  C   UNL     1       2.366   5.000  19.555  0.00  0.00    +0.000 A 
ATOM     13  C   UNL     1       1.297   4.712  20.407  0.00  0.00    +0.000 A 
ATOM     14  C   UNL     1       0.923   3.392  20.637  0.00  0.00    +0.000 A 
ATOM     15  C   UNL     1       1.625   2.357  20.020  0.00  0.00    +0.000 A 
ATOM     16  C   UNL     1       2.688   2.630  19.149  0.00  0.00    +0.000 A 
ATOM     17 CL   UNL     1       3.563   1.248  18.581  0.00  0.00    +0.000 Cl
ENDBRANCH   6  11
BRANCH   1  19
ATOM     18  C   UNL     1       8.530   5.929  13.024  0.00  0.00    +0.000 C 
ATOM     19  C   UNL     1       7.458   4.868  13.215  0.00  0.00    +0.000 C 
ENDBRANCH   1  19
BRANCH   3  20
ATOM     20  C   UNL     1       7.762   6.849  17.647  0.00  0.00    +0.000 C 
BRANCH  20  21
ATOM     21  O   UNL     1       7.795   8.186  17.157  0.00  0.00    +0.000 OA
ATOM     22  C   UNL     1       8.292   9.092  18.131  0.00  0.00    +0.000 C 
ENDBRANCH  20  21
ENDBRANCH   3  20
TORSDOF 4
ENDMDL
MODEL 2
REMARK VINA RESULT:      -7.5      1.219      1.594
REMARK  Name = 
REMARK  6 active torsions:
REMARK  status: ('A' for Active; 'I' for Inactive)
REMARK    1  A    between atoms: C_1  and  C_2
REMARK    2  A    between atoms: C_2  and  N_3
REMARK    3  A    between atoms: C_5  and  C_6
REMARK    4  A    between atoms: C_6  and  O_7
REMARK    5  A    between atoms: O_7  and  C_8
REMARK    6  A    between atoms: N_11  and  C_12
REMARK                            x       y       z     vdW  Elec       q    Type
REMARK                         _______ _______ _______ _____ _____    ______ ____
ROOT
ATOM      1  N   UNL     1       6.798   4.955  14.517  0.00  0.00    +0.000 N 
ATOM      2  N   UNL     1       7.460   5.796  15.429  0.00  0.00    +0.000 NA
ATOM      3  C   UNL     1       6.996   5.962  16.637  0.00  0.00    +0.000 A 
ATOM      4  C   UNL     1       5.792   5.280  17.017  0.00  0.00    +0.000 A 
ATOM      5  C   UNL     1       5.058   5.268  18.175  0.00  0.00    +0.000 A 
ATOM      6  N   UNL     1       3.998   4.413  17.959  0.00  0.00    +0.000 N 
ATOM      7  N   UNL     1       4.093   3.804  16.741  0.00  0.00    +0.000 NA
ATOM      8  C   UNL     1       5.144   4.396  16.153  0.00  0.00    +0.000 A 
ATOM      9  C   UNL     1       5.646   4.180  14.800  0.00  0.00    +0.000 A 
ATOM     10  O   UNL     1       5.119   3.419  13.990  0.00  0.00    +0.000 OA
ENDROOT
BRANCH   6  11
ATOM     11  C   UNL     1       2.950   4.082  18.854  0.00  0.00    +0.000 A 
ATOM     12  C   UNL     1       2.567   2.730  18.941  0.00  0.00    +0.000 A 
ATOM     13  C   UNL     1       1.587   2.326  19.851  0.00  0.00    +0.000 A 
ATOM     14  C   UNL     1       0.956   3.266  20.660  0.00  0.00    +0.000 A 
ATOM     15  C   UNL     1       1.301   4.614  20.552  0.00  0.00    +0.000 A 
ATOM     16  C   UNL     1       2.295   5.031  19.655  0.00  0.00    +0.000 A 
ATOM     17 CL   UNL     1       2.505   6.744  19.519  0.00  0.00    +0.000 Cl
ENDBRANCH   6  11
BRANCH   1  19
ATOM     18  C   UNL     1       8.482   5.893  12.990  0.00  0.00    +0.000 C 
ATOM     19  C   UNL     1       7.451   4.801  13.223  0.00  0.00    +0.000 C 
ENDBRANCH   1  19
BRANCH   3  20
ATOM     20  C   UNL     1       7.717   6.874  17.615  0.00  0.00    +0.000 C 
BRANCH  20  21
ATOM     21  O   UNL     1       7.377   8.234  17.360  0.00  0.00    +0.000 OA
ATOM     22  C   UNL     1       8.267   9.130  18.008  0.00  0.00    +0.000 C 
ENDBRANCH  20  21
ENDBRANCH   3  20
TORSDOF 4
ENDMDL
MODEL 3
REMARK VINA RESULT:      -7.3      3.363      5.020
REMARK  Name = 
REMARK  6 active torsions:
REMARK  status: ('A' for Active; 'I' for Inactive)
REMARK    1  A    between atoms: C_1  and  C_2
REMARK    2  A    between atoms: C_2  and  N_3
REMARK    3  A    between atoms: C_5  and  C_6
REMARK    4  A    between atoms: C_6  and  O_7
REMARK    5  A    between atoms: O_7  and  C_8
REMARK    6  A    between atoms: N_11  and  C_12
REMARK                            x       y       z     vdW  Elec       q    Type
REMARK                         _______ _______ _______ _____ _____    ______ ____
ROOT
ATOM      1  N   UNL     1       5.511   4.716  16.226  0.00  0.00    +0.000 N 
ATOM      2  N   UNL     1       4.717   3.617  16.600  0.00  0.00    +0.000 NA
ATOM      3  C   UNL     1       3.692   3.778  17.391  0.00  0.00    +0.000 A 
ATOM      4  C   UNL     1       3.395   5.093  17.883  0.00  0.00    +0.000 A 
ATOM      5  C   UNL     1       2.427   5.571  18.729  0.00  0.00    +0.000 A 
ATOM      6  N   UNL     1       2.630   6.931  18.828  0.00  0.00    +0.000 N 
ATOM      7  N   UNL     1       3.629   7.345  17.996  0.00  0.00    +0.000 NA
ATOM      8  C   UNL     1       4.132   6.209  17.487  0.00  0.00    +0.000 A 
ATOM      9  C   UNL     1       5.276   6.064  16.593  0.00  0.00    +0.000 A 
ATOM     10  O   UNL     1       5.967   7.006  16.210  0.00  0.00    +0.000 OA
ENDROOT
BRANCH   6  11
ATOM     11  C   UNL     1       1.896   7.866  19.600  0.00  0.00    +0.000 A 
ATOM     12  C   UNL     1       1.554   7.500  20.917  0.00  0.00    +0.000 A 
ATOM     13  C   UNL     1       0.889   8.401  21.753  0.00  0.00    +0.000 A 
ATOM     14  C   UNL     1       0.530   9.659  21.280  0.00  0.00    +0.000 A 
ATOM     15  C   UNL     1       0.829  10.014  19.965  0.00  0.00    +0.000 A 
ATOM     16  C   UNL     1       1.511   9.128  19.119  0.00  0.00    +0.000 A 
ATOM     17 CL   UNL     1       1.674   9.642  17.474  0.00  0.00    +0.000 Cl
ENDBRANCH   6  11
BRANCH   1  19
ATOM     18  C   UNL     1       6.038   4.055  13.917  0.00  0.00    +0.000 C 
ATOM     19  C   UNL     1       6.586   4.418  15.287  0.00  0.00    +0.000 C 
ENDBRANCH   1  19
BRANCH   3  20
ATOM     20  C   UNL     1       2.839   2.585  17.790  0.00  0.00    +0.000 C 
BRANCH  20  21
ATOM     21  O   UNL     1       3.637   1.615  18.462  0.00  0.00    +0.000 OA
ATOM     22  C   UNL     1       4.087   2.084  19.724  0.00  0.00    +0.000 C 
ENDBRANCH  20  21
ENDBRANCH   3  20
TORSDOF 4
ENDMDL
MODEL 4
REMARK VINA RESULT:      -7.1      3.554      5.246
REMARK  Name = 
REMARK  6 active torsions:
REMARK  status: ('A' for Active; 'I' for Inactive)
REMARK    1  A    between atoms: C_1  and  C_2
REMARK    2  A    between atoms: C_2  and  N_3
REMARK    3  A    between atoms: C_5  and  C_6
REMARK    4  A    between atoms: C_6  and  O_7
REMARK    5  A    between atoms: O_7  and  C_8
REMARK    6  A    between atoms: N_11  and  C_12
REMARK                            x       y       z     vdW  Elec       q    Type
REMARK                         _______ _______ _______ _____ _____    ______ ____
ROOT
ATOM      1  N   UNL     1       5.532   4.683  16.408  0.00  0.00    +0.000 N 
ATOM      2  N   UNL     1       4.568   3.719  16.752  0.00  0.00    +0.000 NA
ATOM      3  C   UNL     1       3.463   4.069  17.352  0.00  0.00    +0.000 A 
ATOM      4  C   UNL     1       3.252   5.454  17.664  0.00  0.00    +0.000 A 
ATOM      5  C   UNL     1       2.233   6.118  18.296  0.00  0.00    +0.000 A 
ATOM      6  N   UNL     1       2.577   7.453  18.298  0.00  0.00    +0.000 N 
ATOM      7  N   UNL     1       3.729   7.669  17.600  0.00  0.00    +0.000 NA
ATOM      8  C   UNL     1       4.165   6.439  17.287  0.00  0.00    +0.000 A 
ATOM      9  C   UNL     1       5.404   6.081  16.604  0.00  0.00    +0.000 A 
ATOM     10  O   UNL     1       6.249   6.900  16.249  0.00  0.00    +0.000 OA
ENDROOT
BRANCH   6  11
ATOM     11  C   UNL     1       1.851   8.538  18.852  0.00  0.00    +0.000 A 
ATOM     12  C   UNL     1       1.725   9.704  18.073  0.00  0.00    +0.000 A 
ATOM     13  C   UNL     1       0.967  10.785  18.532  0.00  0.00    +0.000 A 
ATOM     14  C   UNL     1       0.355  10.729  19.780  0.00  0.00    +0.000 A 
ATOM     15  C   UNL     1       0.508   9.593  20.575  0.00  0.00    +0.000 A 
ATOM     16  C   UNL     1       1.251   8.494  20.121  0.00  0.00    +0.000 A 
ATOM     17 CL   UNL     1       1.485   7.224  21.274  0.00  0.00    +0.000 Cl
ENDBRANCH   6  11
BRANCH   1  19
ATOM     18  C   UNL     1       6.373   3.957  14.214  0.00  0.00    +0.000 C 
ATOM     19  C   UNL     1       6.691   4.176  15.684  0.00  0.00    +0.000 C 
ENDBRANCH   1  19
BRANCH   3  20
ATOM     20  C   UNL     1       2.427   3.020  17.721  0.00  0.00    +0.000 C 
BRANCH  20  21
ATOM     21  O   UNL     1       2.831   2.325  18.896  0.00  0.00    +0.000 OA
ATOM     22  C   UNL     1       1.876   2.453  19.939  0.00  0.00    +0.000 C 
ENDBRANCH  20  21
ENDBRANCH   3  20
TORSDOF 4
ENDMDL
MODEL 5
REMARK VINA RESULT:      -7.0      3.481      7.124
REMARK  Name = 
REMARK  6 active torsions:
REMARK  status: ('A' for Active; 'I' for Inactive)
REMARK    1  A    between atoms: C_1  and  C_2
REMARK    2  A    between atoms: C_2  and  N_3
REMARK    3  A    between atoms: C_5  and  C_6
REMARK    4  A    between atoms: C_6  and  O_7
REMARK    5  A    between atoms: O_7  and  C_8
REMARK    6  A    between atoms: N_11  and  C_12
REMARK                            x       y       z     vdW  Elec       q    Type
REMARK                         _______ _______ _______ _____ _____    ______ ____
ROOT
ATOM      1  N   UNL     1       1.439   7.989  19.997  0.00  0.00    +0.000 N 
ATOM      2  N   UNL     1       1.474   6.798  20.743  0.00  0.00    +0.000 NA
ATOM      3  C   UNL     1       2.228   5.801  20.367  0.00  0.00    +0.000 A 
ATOM      4  C   UNL     1       3.013   5.937  19.173  0.00  0.00    +0.000 A 
ATOM      5  C   UNL     1       3.863   5.084  18.519  0.00  0.00    +0.000 A 
ATOM      6  N   UNL     1       4.342   5.770  17.424  0.00  0.00    +0.000 N 
ATOM      7  N   UNL     1       3.903   7.062  17.418  0.00  0.00    +0.000 NA
ATOM      8  C   UNL     1       3.040   7.126  18.443  0.00  0.00    +0.000 A 
ATOM      9  C   UNL     1       2.217   8.262  18.844  0.00  0.00    +0.000 A 
ATOM     10  O   UNL     1       2.193   9.334  18.243  0.00  0.00    +0.000 OA
ENDROOT
BRANCH   6  11
ATOM     11  C   UNL     1       5.240   5.305  16.430  0.00  0.00    +0.000 A 
ATOM     12  C   UNL     1       4.714   4.505  15.397  0.00  0.00    +0.000 A 
ATOM     13  C   UNL     1       5.530   4.069  14.350  0.00  0.00    +0.000 A 
ATOM     14  C   UNL     1       6.883   4.396  14.338  0.00  0.00    +0.000 A 
ATOM     15  C   UNL     1       7.420   5.154  15.378  0.00  0.00    +0.000 A 
ATOM     16  C   UNL     1       6.610   5.613  16.426  0.00  0.00    +0.000 A 
ATOM     17 CL   UNL     1       7.442   6.405  17.721  0.00  0.00    +0.000 Cl
ENDBRANCH   6  11
BRANCH   1  19
ATOM     18  C   UNL     1       0.765   9.139  22.064  0.00  0.00    +0.000 C 
ATOM     19  C   UNL     1       0.610   9.051  20.555  0.00  0.00    +0.000 C 
ENDBRANCH   1  19
BRANCH   3  20
ATOM     20  C   UNL     1       2.260   4.518  21.179  0.00  0.00    +0.000 C 
BRANCH  20  21
ATOM     21  O   UNL     1       1.141   3.701  20.849  0.00  0.00    +0.000 OA
ATOM     22  C   UNL     1       1.531   2.529  20.151  0.00  0.00    +0.000 C 
ENDBRANCH  20  21
ENDBRANCH   3  20
TORSDOF 4
ENDMDL
MODEL 6
REMARK VINA RESULT:      -7.0      3.812      5.474
REMARK  Name = 
REMARK  6 active torsions:
REMARK  status: ('A' for Active; 'I' for Inactive)
REMARK    1  A    between atoms: C_1  and  C_2
REMARK    2  A    between atoms: C_2  and  N_3
REMARK    3  A    between atoms: C_5  and  C_6
REMARK    4  A    between atoms: C_6  and  O_7
REMARK    5  A    between atoms: O_7  and  C_8
REMARK    6  A    between atoms: N_11  and  C_12
REMARK                            x       y       z     vdW  Elec       q    Type
REMARK                         _______ _______ _______ _____ _____    ______ ____
ROOT
ATOM      1  N   UNL     1       5.572   5.000  17.204  0.00  0.00    +0.000 N 
ATOM      2  N   UNL     1       5.028   4.109  18.146  0.00  0.00    +0.000 NA
ATOM      3  C   UNL     1       4.005   4.458  18.877  0.00  0.00    +0.000 A 
ATOM      4  C   UNL     1       3.451   5.772  18.712  0.00  0.00    +0.000 A 
ATOM      5  C   UNL     1       2.420   6.429  19.332  0.00  0.00    +0.000 A 
ATOM      6  N   UNL     1       2.339   7.674  18.745  0.00  0.00    +0.000 N 
ATOM      7  N   UNL     1       3.217   7.790  17.708  0.00  0.00    +0.000 NA
ATOM      8  C   UNL     1       3.935   6.657  17.748  0.00  0.00    +0.000 A 
ATOM      9  C   UNL     1       5.069   6.291  16.907  0.00  0.00    +0.000 A 
ATOM     10  O   UNL     1       5.544   7.026  16.044  0.00  0.00    +0.000 OA
ENDROOT
BRANCH   6  11
ATOM     11  C   UNL     1       1.440   8.726  19.056  0.00  0.00    +0.000 A 
ATOM     12  C   UNL     1       0.941   9.494  17.987  0.00  0.00    +0.000 A 
ATOM     13  C   UNL     1       0.001  10.503  18.217  0.00  0.00    +0.000 A 
ATOM     14  C   UNL     1      -0.426  10.777  19.512  0.00  0.00    +0.000 A 
ATOM     15  C   UNL     1       0.094  10.047  20.581  0.00  0.00    +0.000 A 
ATOM     16  C   UNL     1       1.025   9.021  20.364  0.00  0.00    +0.000 A 
ATOM     17 CL   UNL     1       1.698   8.310  21.793  0.00  0.00    +0.000 Cl
ENDBRANCH   6  11
BRANCH   1  19
ATOM     18  C   UNL     1       6.160   3.824  15.125  0.00  0.00    +0.000 C 
ATOM     19  C   UNL     1       6.669   4.469  16.404  0.00  0.00    +0.000 C 
ENDBRANCH   1  19
BRANCH   3  20
ATOM     20  C   UNL     1       3.424   3.489  19.893  0.00  0.00    +0.000 C 
BRANCH  20  21
ATOM     21  O   UNL     1       2.890   2.346  19.230  0.00  0.00    +0.000 OA
ATOM     22  C   UNL     1       1.539   2.545  18.842  0.00  0.00    +0.000 C 
ENDBRANCH  20  21
ENDBRANCH   3  20
TORSDOF 4
ENDMDL
MODEL 7
REMARK VINA RESULT:      -6.9      1.146      1.427
REMARK  Name = 
REMARK  6 active torsions:
REMARK  status: ('A' for Active; 'I' for Inactive)
REMARK    1  A    between atoms: C_1  and  C_2
REMARK    2  A    between atoms: C_2  and  N_3
REMARK    3  A    between atoms: C_5  and  C_6
REMARK    4  A    between atoms: C_6  and  O_7
REMARK    5  A    between atoms: O_7  and  C_8
REMARK    6  A    between atoms: N_11  and  C_12
REMARK                            x       y       z     vdW  Elec       q    Type
REMARK                         _______ _______ _______ _____ _____    ______ ____
ROOT
ATOM      1  N   UNL     1       6.861   5.087  14.745  0.00  0.00    +0.000 N 
ATOM      2  N   UNL     1       7.473   5.945  15.676  0.00  0.00    +0.000 NA
ATOM      3  C   UNL     1       7.031   6.018  16.902  0.00  0.00    +0.000 A 
ATOM      4  C   UNL     1       5.903   5.217  17.281  0.00  0.00    +0.000 A 
ATOM      5  C   UNL     1       5.205   5.092  18.455  0.00  0.00    +0.000 A 
ATOM      6  N   UNL     1       4.219   4.156  18.228  0.00  0.00    +0.000 N 
ATOM      7  N   UNL     1       4.332   3.610  16.983  0.00  0.00    +0.000 NA
ATOM      8  C   UNL     1       5.310   4.317  16.395  0.00  0.00    +0.000 A 
ATOM      9  C   UNL     1       5.789   4.202  15.022  0.00  0.00    +0.000 A 
ATOM     10  O   UNL     1       5.308   3.432  14.193  0.00  0.00    +0.000 OA
ENDROOT
BRANCH   6  11
ATOM     11  C   UNL     1       3.229   3.697  19.134  0.00  0.00    +0.000 A 
ATOM     12  C   UNL     1       3.664   2.989  20.271  0.00  0.00    +0.000 A 
ATOM     13  C   UNL     1       2.746   2.567  21.237  0.00  0.00    +0.000 A 
ATOM     14  C   UNL     1       1.388   2.816  21.066  0.00  0.00    +0.000 A 
ATOM     15  C   UNL     1       0.946   3.481  19.922  0.00  0.00    +0.000 A 
ATOM     16  C   UNL     1       1.856   3.925  18.953  0.00  0.00    +0.000 A 
ATOM     17 CL   UNL     1       1.152   4.593  17.519  0.00  0.00    +0.000 Cl
ENDBRANCH   6  11
BRANCH   1  19
ATOM     18  C   UNL     1       6.937   3.903  12.591  0.00  0.00    +0.000 C 
ATOM     19  C   UNL     1       7.487   5.045  13.430  0.00  0.00    +0.000 C 
ENDBRANCH   1  19
BRANCH   3  20
ATOM     20  C   UNL     1       7.698   6.948  17.901  0.00  0.00    +0.000 C 
BRANCH  20  21
ATOM     21  O   UNL     1       7.454   8.306  17.546  0.00  0.00    +0.000 OA
ATOM     22  C   UNL     1       8.402   9.183  18.134  0.00  0.00    +0.000 C 
ENDBRANCH  20  21
ENDBRANCH   3  20
TORSDOF 4
ENDMDL
MODEL 8
REMARK VINA RESULT:      -6.9      2.888      6.568
REMARK  Name = 
REMARK  6 active torsions:
REMARK  status: ('A' for Active; 'I' for Inactive)
REMARK    1  A    between atoms: C_1  and  C_2
REMARK    2  A    between atoms: C_2  and  N_3
REMARK    3  A    between atoms: C_5  and  C_6
REMARK    4  A    between atoms: C_6  and  O_7
REMARK    5  A    between atoms: O_7  and  C_8
REMARK    6  A    between atoms: N_11  and  C_12
REMARK                            x       y       z     vdW  Elec       q    Type
REMARK                         _______ _______ _______ _____ _____    ______ ____
ROOT
ATOM      1  N   UNL     1       1.924   3.635  19.734  0.00  0.00    +0.000 N 
ATOM      2  N   UNL     1       1.865   5.036  19.828  0.00  0.00    +0.000 NA
ATOM      3  C   UNL     1       2.545   5.786  19.004  0.00  0.00    +0.000 A 
ATOM      4  C   UNL     1       3.362   5.157  18.007  0.00  0.00    +0.000 A 
ATOM      5  C   UNL     1       4.193   5.656  17.037  0.00  0.00    +0.000 A 
ATOM      6  N   UNL     1       4.709   4.569  16.365  0.00  0.00    +0.000 N 
ATOM      7  N   UNL     1       4.157   3.403  16.810  0.00  0.00    +0.000 NA
ATOM      8  C   UNL     1       3.399   3.770  17.855  0.00  0.00    +0.000 A 
ATOM      9  C   UNL     1       2.641   2.905  18.752  0.00  0.00    +0.000 A 
ATOM     10  O   UNL     1       2.633   1.678  18.674  0.00  0.00    +0.000 OA
ENDROOT
BRANCH   6  11
ATOM     11  C   UNL     1       5.631   4.569  15.288  0.00  0.00    +0.000 A 
ATOM     12  C   UNL     1       5.314   3.792  14.157  0.00  0.00    +0.000 A 
ATOM     13  C   UNL     1       6.146   3.799  13.034  0.00  0.00    +0.000 A 
ATOM     14  C   UNL     1       7.316   4.553  13.038  0.00  0.00    +0.000 A 
ATOM     15  C   UNL     1       7.657   5.294  14.169  0.00  0.00    +0.000 A 
ATOM     16  C   UNL     1       6.824   5.309  15.296  0.00  0.00    +0.000 A 
ATOM     17 CL   UNL     1       7.452   6.144  16.677  0.00  0.00    +0.000 Cl
ENDBRANCH   6  11
BRANCH   1  19
ATOM     18  C   UNL     1       1.802   2.607  21.965  0.00  0.00    +0.000 C 
ATOM     19  C   UNL     1       1.071   2.910  20.667  0.00  0.00    +0.000 C 
ENDBRANCH   1  19
BRANCH   3  20
ATOM     20  C   UNL     1       2.474   7.300  19.113  0.00  0.00    +0.000 C 
BRANCH  20  21
ATOM     21  O   UNL     1       1.807   7.843  17.977  0.00  0.00    +0.000 OA
ATOM     22  C   UNL     1       2.046   9.236  17.841  0.00  0.00    +0.000 C 
ENDBRANCH  20  21
ENDBRANCH   3  20
TORSDOF 4
ENDMDL
MODEL 9
REMARK VINA RESULT:      -6.8      4.256      6.043
REMARK  Name = 
REMARK  6 active torsions:
REMARK  status: ('A' for Active; 'I' for Inactive)
REMARK    1  A    between atoms: C_1  and  C_2
REMARK    2  A    between atoms: C_2  and  N_3
REMARK    3  A    between atoms: C_5  and  C_6
REMARK    4  A    between atoms: C_6  and  O_7
REMARK    5  A    between atoms: O_7  and  C_8
REMARK    6  A    between atoms: N_11  and  C_12
REMARK                            x       y       z     vdW  Elec       q    Type
REMARK                         _______ _______ _______ _____ _____    ______ ____
ROOT
ATOM      1  N   UNL     1       3.531   3.688  19.413  0.00  0.00    +0.000 N 
ATOM      2  N   UNL     1       4.140   4.371  18.345  0.00  0.00    +0.000 NA
ATOM      3  C   UNL     1       3.898   5.637  18.142  0.00  0.00    +0.000 A 
ATOM      4  C   UNL     1       2.993   6.320  19.021  0.00  0.00    +0.000 A 
ATOM      5  C   UNL     1       2.528   7.609  19.055  0.00  0.00    +0.000 A 
ATOM      6  N   UNL     1       1.682   7.692  20.142  0.00  0.00    +0.000 N 
ATOM      7  N   UNL     1       1.677   6.529  20.855  0.00  0.00    +0.000 NA
ATOM      8  C   UNL     1       2.417   5.684  20.121  0.00  0.00    +0.000 A 
ATOM      9  C   UNL     1       2.677   4.272  20.382  0.00  0.00    +0.000 A 
ATOM     10  O   UNL     1       2.198   3.653  21.331  0.00  0.00    +0.000 OA
ENDROOT
BRANCH   6  11
ATOM     11  C   UNL     1       0.943   8.818  20.585  0.00  0.00    +0.000 A 
ATOM     12  C   UNL     1       0.697   8.935  21.966  0.00  0.00    +0.000 A 
ATOM     13  C   UNL     1       0.032  10.053  22.477  0.00  0.00    +0.000 A 
ATOM     14  C   UNL     1      -0.422  11.048  21.616  0.00  0.00    +0.000 A 
ATOM     15  C   UNL     1      -0.218  10.920  20.243  0.00  0.00    +0.000 A 
ATOM     16  C   UNL     1       0.462   9.813  19.718  0.00  0.00    +0.000 A 
ATOM     17 CL   UNL     1       0.503   9.712  17.990  0.00  0.00    +0.000 Cl
ENDBRANCH   6  11
BRANCH   1  19
ATOM     18  C   UNL     1       3.582   1.475  18.343  0.00  0.00    +0.000 C 
ATOM     19  C   UNL     1       3.931   2.296  19.574  0.00  0.00    +0.000 C 
ENDBRANCH   1  19
BRANCH   3  20
ATOM     20  C   UNL     1       4.560   6.366  16.985  0.00  0.00    +0.000 C 
BRANCH  20  21
ATOM     21  O   UNL     1       5.791   6.945  17.409  0.00  0.00    +0.000 OA
ATOM     22  C   UNL     1       6.910   6.257  16.870  0.00  0.00    +0.000 C 
ENDBRANCH  20  21
ENDBRANCH   3  20
TORSDOF 4
ENDMDL
