MODEL 1
REMARK VINA RESULT:      -7.2      0.000      0.000
REMARK  Name = 
REMARK  5 active torsions:
REMARK  status: ('A' for Active; 'I' for Inactive)
REMARK    1  A    between atoms: C_2  and  O_3
REMARK    2  A    between atoms: C_2  and  C_4
REMARK    3  A    between atoms: C_4  and  C_5
REMARK    4  A    between atoms: C_5  and  C_6
REMARK    5  A    between atoms: C_8  and  C_9
REMARK                            x       y       z     vdW  Elec       q    Type
REMARK                         _______ _______ _______ _____ _____    ______ ____
ROOT
ATOM      1  C   UNL     1       6.518   4.490  16.123  0.00  0.00    +0.000 A 
ATOM      2  N   UNL     1       5.317   4.309  16.617  0.00  0.00    +0.000 NA
ATOM      3  C   UNL     1       5.547   4.264  17.971  0.00  0.00    +0.000 A 
ATOM      4  N   UNL     1       6.832   4.469  18.307  0.00  0.00    +0.000 NA
ATOM      5  O   UNL     1       7.482   4.601  17.078  0.00  0.00    +0.000 OA
ENDROOT
BRANCH   3   6
ATOM      6  C   UNL     1       4.477   4.073  18.943  0.00  0.00    +0.000 A 
ATOM      7  C   UNL     1       4.391   2.842  19.624  0.00  0.00    +0.000 A 
ATOM      8  C   UNL     1       3.391   2.614  20.571  0.00  0.00    +0.000 A 
ATOM      9  C   UNL     1       2.469   3.614  20.845  0.00  0.00    +0.000 A 
ATOM     10  F   UNL     1       1.506   3.396  21.749  0.00  0.00    +0.000 F 
ATOM     11  C   UNL     1       2.527   4.837  20.190  0.00  0.00    +0.000 A 
ATOM     12  C   UNL     1       3.526   5.070  19.239  0.00  0.00    +0.000 A 
ATOM     13 CL   UNL     1       3.476   6.610  18.447  0.00  0.00    +0.000 Cl
ENDBRANCH   3   6
BRANCH   1  14
ATOM     14  C   UNL     1       6.938   4.603  14.708  0.00  0.00    +0.000 C 
BRANCH  14  15
ATOM     15  C   UNL     1       5.897   3.965  13.792  0.00  0.00    +0.000 C 
BRANCH  15  17
ATOM     16  O   UNL     1       7.272   4.250  11.823  0.00  0.00    +0.000 OA
ATOM     17  C   UNL     1       6.499   3.567  12.475  0.00  0.00    +0.000 C 
BRANCH  17  18
ATOM     18  O   UNL     1       6.087   2.346  12.066  0.00  0.00    +0.000 OA
ATOM     19  H   UNL     1       5.136   2.298  11.851  0.00  0.00    +0.000 HD
ENDBRANCH  17  18
ENDBRANCH  15  17
ENDBRANCH  14  15
ENDBRANCH   1  14
TORSDOF 5
ENDMDL
MODEL 2
REMARK VINA RESULT:      -7.1      4.416      6.010
REMARK  Name = 
REMARK  5 active torsions:
REMARK  status: ('A' for Active; 'I' for Inactive)
REMARK    1  A    between atoms: C_2  and  O_3
REMARK    2  A    between atoms: C_2  and  C_4
REMARK    3  A    between atoms: C_4  and  C_5
REMARK    4  A    between atoms: C_5  and  C_6
REMARK    5  A    between atoms: C_8  and  C_9
REMARK                            x       y       z     vdW  Elec       q    Type
REMARK                         _______ _______ _______ _____ _____    ______ ____
ROOT
ATOM      1  C   UNL     1       3.129   3.547  20.340  0.00  0.00    +0.000 A 
ATOM      2  N   UNL     1       3.578   4.704  19.917  0.00  0.00    +0.000 NA
ATOM      3  C   UNL     1       4.811   4.384  19.402  0.00  0.00    +0.000 A 
ATOM      4  N   UNL     1       5.091   3.070  19.450  0.00  0.00    +0.000 NA
ATOM      5  O   UNL     1       3.981   2.515  20.090  0.00  0.00    +0.000 OA
ENDROOT
BRANCH   3   6
ATOM      6  C   UNL     1       5.696   5.379  18.807  0.00  0.00    +0.000 A 
ATOM      7  C   UNL     1       7.016   5.489  19.291  0.00  0.00    +0.000 A 
ATOM      8  C   UNL     1       7.904   6.418  18.747  0.00  0.00    +0.000 A 
ATOM      9  C   UNL     1       7.481   7.245  17.717  0.00  0.00    +0.000 A 
ATOM     10  F   UNL     1       8.330   8.141  17.197  0.00  0.00    +0.000 F 
ATOM     11  C   UNL     1       6.188   7.162  17.220  0.00  0.00    +0.000 A 
ATOM     12  C   UNL     1       5.293   6.233  17.762  0.00  0.00    +0.000 A 
ATOM     13 CL   UNL     1       3.692   6.247  17.102  0.00  0.00    +0.000 Cl
ENDBRANCH   3   6
BRANCH   1  14
ATOM     14  C   UNL     1       1.849   3.233  21.014  0.00  0.00    +0.000 C 
BRANCH  14  15
ATOM     15  C   UNL     1       0.688   3.345  20.030  0.00  0.00    +0.000 C 
BRANCH  15  17
ATOM     16  O   UNL     1       1.130   3.499  17.657  0.00  0.00    +0.000 OA
ATOM     17  C   UNL     1       1.069   2.826  18.673  0.00  0.00    +0.000 C 
BRANCH  17  18
ATOM     18  O   UNL     1       1.340   1.501  18.684  0.00  0.00    +0.000 OA
ATOM     19  H   UNL     1       1.935   1.210  17.968  0.00  0.00    +0.000 HD
ENDBRANCH  17  18
ENDBRANCH  15  17
ENDBRANCH  14  15
ENDBRANCH   1  14
TORSDOF 5
ENDMDL
MODEL 3
REMARK VINA RESULT:      -6.9      3.232      4.620
REMARK  Name = 
REMARK  5 active torsions:
REMARK  status: ('A' for Active; 'I' for Inactive)
REMARK    1  A    between atoms: C_2  and  O_3
REMARK    2  A    between atoms: C_2  and  C_4
REMARK    3  A    between atoms: C_4  and  C_5
REMARK    4  A    between atoms: C_5  and  C_6
REMARK    5  A    between atoms: C_8  and  C_9
REMARK                            x       y       z     vdW  Elec       q    Type
REMARK                         _______ _______ _______ _____ _____    ______ ____
ROOT
ATOM      1  C   UNL     1       6.997   6.176  17.871  0.00  0.00    +0.000 A 
ATOM      2  N   UNL     1       5.866   5.840  18.442  0.00  0.00    +0.000 NA
ATOM      3  C   UNL     1       5.341   4.922  17.564  0.00  0.00    +0.000 A 
ATOM      4  N   UNL     1       6.143   4.656  16.518  0.00  0.00    +0.000 NA
ATOM      5  O   UNL     1       7.236   5.503  16.711  0.00  0.00    +0.000 OA
ENDROOT
BRANCH   3   6
ATOM      6  C   UNL     1       4.060   4.262  17.790  0.00  0.00    +0.000 A 
ATOM      7  C   UNL     1       4.010   2.854  17.768  0.00  0.00    +0.000 A 
ATOM      8  C   UNL     1       2.810   2.175  17.989  0.00  0.00    +0.000 A 
ATOM      9  C   UNL     1       1.652   2.899  18.232  0.00  0.00    +0.000 A 
ATOM     10  F   UNL     1       0.499   2.250  18.439  0.00  0.00    +0.000 F 
ATOM     11  C   UNL     1       1.669   4.287  18.258  0.00  0.00    +0.000 A 
ATOM     12  C   UNL     1       2.868   4.971  18.036  0.00  0.00    +0.000 A 
ATOM     13 CL   UNL     1       2.767   6.701  18.042  0.00  0.00    +0.000 Cl
ENDBRANCH   3   6
BRANCH   1  14
ATOM     14  C   UNL     1       8.018   7.148  18.323  0.00  0.00    +0.000 C 
BRANCH  14  15
ATOM     15  C   UNL     1       7.837   8.482  17.603  0.00  0.00    +0.000 C 
BRANCH  15  17
ATOM     16  O   UNL     1       8.641  10.740  17.918  0.00  0.00    +0.000 OA
ATOM     17  C   UNL     1       8.565   9.588  18.311  0.00  0.00    +0.000 C 
BRANCH  17  18
ATOM     18  O   UNL     1       9.151   9.172  19.457  0.00  0.00    +0.000 OA
ATOM     19  H   UNL     1       8.727   9.512  20.268  0.00  0.00    +0.000 HD
ENDBRANCH  17  18
ENDBRANCH  15  17
ENDBRANCH  14  15
ENDBRANCH   1  14
TORSDOF 5
ENDMDL
MODEL 4
REMARK VINA RESULT:      -6.9      4.009      6.454
REMARK  Name = 
REMARK  5 active torsions:
REMARK  status: ('A' for Active; 'I' for Inactive)
REMARK    1  A    between atoms: C_2  and  O_3
REMARK    2  A    between atoms: C_2  and  C_4
REMARK    3  A    between atoms: C_4  and  C_5
REMARK    4  A    between atoms: C_5  and  C_6
REMARK    5  A    between atoms: C_8  and  C_9
REMARK                            x       y       z     vdW  Elec       q    Type
REMARK                         _______ _______ _______ _____ _____    ______ ____
ROOT
ATOM      1  C   UNL     1       3.281   2.906  18.498  0.00  0.00    +0.000 A 
ATOM      2  N   UNL     1       4.060   3.810  19.041  0.00  0.00    +0.000 NA
ATOM      3  C   UNL     1       4.851   4.205  17.989  0.00  0.00    +0.000 A 
ATOM      4  N   UNL     1       4.536   3.611  16.824  0.00  0.00    +0.000 NA
ATOM      5  O   UNL     1       3.504   2.734  17.165  0.00  0.00    +0.000 OA
ENDROOT
BRANCH   3   6
ATOM      6  C   UNL     1       5.891   5.218  18.124  0.00  0.00    +0.000 A 
ATOM      7  C   UNL     1       6.822   5.098  19.175  0.00  0.00    +0.000 A 
ATOM      8  C   UNL     1       7.842   6.037  19.341  0.00  0.00    +0.000 A 
ATOM      9  C   UNL     1       7.938   7.103  18.458  0.00  0.00    +0.000 A 
ATOM     10  F   UNL     1       8.912   8.007  18.618  0.00  0.00    +0.000 F 
ATOM     11  C   UNL     1       7.035   7.249  17.414  0.00  0.00    +0.000 A 
ATOM     12  C   UNL     1       6.010   6.312  17.245  0.00  0.00    +0.000 A 
ATOM     13 CL   UNL     1       4.911   6.617  15.941  0.00  0.00    +0.000 Cl
ENDBRANCH   3   6
BRANCH   1  14
ATOM     14  C   UNL     1       2.216   2.093  19.126  0.00  0.00    +0.000 C 
BRANCH  14  15
ATOM     15  C   UNL     1       1.225   2.990  19.862  0.00  0.00    +0.000 C 
BRANCH  15  17
ATOM     16  O   UNL     1       1.560   2.452  22.195  0.00  0.00    +0.000 OA
ATOM     17  C   UNL     1       1.664   3.246  21.274  0.00  0.00    +0.000 C 
BRANCH  17  18
ATOM     18  O   UNL     1       2.196   4.479  21.436  0.00  0.00    +0.000 OA
ATOM     19  H   UNL     1       2.041   5.082  20.684  0.00  0.00    +0.000 HD
ENDBRANCH  17  18
ENDBRANCH  15  17
ENDBRANCH  14  15
ENDBRANCH   1  14
TORSDOF 5
ENDMDL
MODEL 5
REMARK VINA RESULT:      -6.9      4.238      6.426
REMARK  Name = 
REMARK  5 active torsions:
REMARK  status: ('A' for Active; 'I' for Inactive)
REMARK    1  A    between atoms: C_2  and  O_3
REMARK    2  A    between atoms: C_2  and  C_4
REMARK    3  A    between atoms: C_4  and  C_5
REMARK    4  A    between atoms: C_5  and  C_6
REMARK    5  A    between atoms: C_8  and  C_9
REMARK                            x       y       z     vdW  Elec       q    Type
REMARK                         _______ _______ _______ _____ _____    ______ ____
ROOT
ATOM      1  C   UNL     1       3.117   4.315  19.313  0.00  0.00    +0.000 A 
ATOM      2  N   UNL     1       3.448   4.721  18.111  0.00  0.00    +0.000 NA
ATOM      3  C   UNL     1       4.740   4.271  17.981  0.00  0.00    +0.000 A 
ATOM      4  N   UNL     1       5.174   3.563  19.038  0.00  0.00    +0.000 NA
ATOM      5  O   UNL     1       4.102   3.607  19.933  0.00  0.00    +0.000 OA
ENDROOT
BRANCH   3   6
ATOM      6  C   UNL     1       5.533   4.496  16.778  0.00  0.00    +0.000 A 
ATOM      7  C   UNL     1       5.017   4.073  15.536  0.00  0.00    +0.000 A 
ATOM      8  C   UNL     1       5.733   4.275  14.355  0.00  0.00    +0.000 A 
ATOM      9  C   UNL     1       6.971   4.900  14.406  0.00  0.00    +0.000 A 
ATOM     10  F   UNL     1       7.662   5.090  13.275  0.00  0.00    +0.000 F 
ATOM     11  C   UNL     1       7.506   5.326  15.614  0.00  0.00    +0.000 A 
ATOM     12  C   UNL     1       6.793   5.125  16.800  0.00  0.00    +0.000 A 
ATOM     13 CL   UNL     1       7.574   5.651  18.254  0.00  0.00    +0.000 Cl
ENDBRANCH   3   6
BRANCH   1  14
ATOM     14  C   UNL     1       1.846   4.509  20.046  0.00  0.00    +0.000 C 
BRANCH  14  15
ATOM     15  C   UNL     1       1.239   3.161  20.423  0.00  0.00    +0.000 C 
BRANCH  15  17
ATOM     16  O   UNL     1       0.112   2.387  18.429  0.00  0.00    +0.000 OA
ATOM     17  C   UNL     1       1.041   2.293  19.214  0.00  0.00    +0.000 C 
BRANCH  17  18
ATOM     18  O   UNL     1       2.016   1.366  19.077  0.00  0.00    +0.000 OA
ATOM     19  H   UNL     1       2.759   1.473  19.702  0.00  0.00    +0.000 HD
ENDBRANCH  17  18
ENDBRANCH  15  17
ENDBRANCH  14  15
ENDBRANCH   1  14
TORSDOF 5
ENDMDL
MODEL 6
REMARK VINA RESULT:      -6.9      2.584      3.813
REMARK  Name = 
REMARK  5 active torsions:
REMARK  status: ('A' for Active; 'I' for Inactive)
REMARK    1  A    between atoms: C_2  and  O_3
REMARK    2  A    between atoms: C_2  and  C_4
REMARK    3  A    between atoms: C_4  and  C_5
REMARK    4  A    between atoms: C_5  and  C_6
REMARK    5  A    between atoms: C_8  and  C_9
REMARK                            x       y       z     vdW  Elec       q    Type
REMARK                         _______ _______ _______ _____ _____    ______ ____
ROOT
ATOM      1  C   UNL     1       5.997   4.972  17.291  0.00  0.00    +0.000 A 
ATOM      2  N   UNL     1       5.321   4.959  18.413  0.00  0.00    +0.000 NA
ATOM      3  C   UNL     1       4.396   3.964  18.203  0.00  0.00    +0.000 A 
ATOM      4  N   UNL     1       4.532   3.344  17.017  0.00  0.00    +0.000 NA
ATOM      5  O   UNL     1       5.584   4.025  16.402  0.00  0.00    +0.000 OA
ENDROOT
BRANCH   3   6
ATOM      6  C   UNL     1       3.406   3.586  19.204  0.00  0.00    +0.000 A 
ATOM      7  C   UNL     1       3.833   2.887  20.351  0.00  0.00    +0.000 A 
ATOM      8  C   UNL     1       2.925   2.513  21.343  0.00  0.00    +0.000 A 
ATOM      9  C   UNL     1       1.583   2.833  21.196  0.00  0.00    +0.000 A 
ATOM     10  F   UNL     1       0.709   2.470  22.143  0.00  0.00    +0.000 F 
ATOM     11  C   UNL     1       1.131   3.520  20.077  0.00  0.00    +0.000 A 
ATOM     12  C   UNL     1       2.037   3.896  19.080  0.00  0.00    +0.000 A 
ATOM     13 CL   UNL     1       1.360   4.704  17.706  0.00  0.00    +0.000 Cl
ENDBRANCH   3   6
BRANCH   1  14
ATOM     14  C   UNL     1       7.124   5.843  16.890  0.00  0.00    +0.000 C 
BRANCH  14  15
ATOM     15  C   UNL     1       6.842   7.291  17.283  0.00  0.00    +0.000 C 
BRANCH  15  17
ATOM     16  O   UNL     1       8.401   8.992  18.005  0.00  0.00    +0.000 OA
ATOM     17  C   UNL     1       7.958   7.860  18.110  0.00  0.00    +0.000 C 
BRANCH  17  18
ATOM     18  O   UNL     1       8.444   6.971  19.006  0.00  0.00    +0.000 OA
ATOM     19  H   UNL     1       9.414   7.002  19.112  0.00  0.00    +0.000 HD
ENDBRANCH  17  18
ENDBRANCH  15  17
ENDBRANCH  14  15
ENDBRANCH   1  14
TORSDOF 5
ENDMDL
MODEL 7
REMARK VINA RESULT:      -6.9      2.144      2.812
REMARK  Name = 
REMARK  5 active torsions:
REMARK  status: ('A' for Active; 'I' for Inactive)
REMARK    1  A    between atoms: C_2  and  O_3
REMARK    2  A    between atoms: C_2  and  C_4
REMARK    3  A    between atoms: C_4  and  C_5
REMARK    4  A    between atoms: C_5  and  C_6
REMARK    5  A    between atoms: C_8  and  C_9
REMARK                            x       y       z     vdW  Elec       q    Type
REMARK                         _______ _______ _______ _____ _____    ______ ____
ROOT
ATOM      1  C   UNL     1       6.712   4.405  13.662  0.00  0.00    +0.000 A 
ATOM      2  N   UNL     1       5.795   4.119  14.554  0.00  0.00    +0.000 NA
ATOM      3  C   UNL     1       6.200   4.839  15.651  0.00  0.00    +0.000 A 
ATOM      4  N   UNL     1       7.294   5.589  15.431  0.00  0.00    +0.000 NA
ATOM      5  O   UNL     1       7.647   5.286  14.114  0.00  0.00    +0.000 OA
ENDROOT
BRANCH   3   6
ATOM      6  C   UNL     1       5.467   4.829  16.913  0.00  0.00    +0.000 A 
ATOM      7  C   UNL     1       4.139   4.357  16.921  0.00  0.00    +0.000 A 
ATOM      8  C   UNL     1       3.400   4.318  18.105  0.00  0.00    +0.000 A 
ATOM      9  C   UNL     1       3.981   4.751  19.288  0.00  0.00    +0.000 A 
ATOM     10  F   UNL     1       3.272   4.719  20.423  0.00  0.00    +0.000 F 
ATOM     11  C   UNL     1       5.286   5.223  19.311  0.00  0.00    +0.000 A 
ATOM     12  C   UNL     1       6.031   5.265  18.127  0.00  0.00    +0.000 A 
ATOM     13 CL   UNL     1       7.631   5.917  18.260  0.00  0.00    +0.000 Cl
ENDBRANCH   3   6
BRANCH   1  14
ATOM     14  C   UNL     1       6.844   3.919  12.270  0.00  0.00    +0.000 C 
BRANCH  14  15
ATOM     15  C   UNL     1       5.763   2.887  11.963  0.00  0.00    +0.000 C 
BRANCH  15  17
ATOM     16  O   UNL     1       5.735   0.603  11.169  0.00  0.00    +0.000 OA
ATOM     17  C   UNL     1       6.353   1.632  11.387  0.00  0.00    +0.000 C 
BRANCH  17  18
ATOM     18  O   UNL     1       7.675   1.753  11.130  0.00  0.00    +0.000 OA
ATOM     19  H   UNL     1       7.883   1.982  10.204  0.00  0.00    +0.000 HD
ENDBRANCH  17  18
ENDBRANCH  15  17
ENDBRANCH  14  15
ENDBRANCH   1  14
TORSDOF 5
ENDMDL
MODEL 8
REMARK VINA RESULT:      -6.8      1.663      2.073
REMARK  Name = 
REMARK  5 active torsions:
REMARK  status: ('A' for Active; 'I' for Inactive)
REMARK    1  A    between atoms: C_2  and  O_3
REMARK    2  A    between atoms: C_2  and  C_4
REMARK    3  A    between atoms: C_4  and  C_5
REMARK    4  A    between atoms: C_5  and  C_6
REMARK    5  A    between atoms: C_8  and  C_9
REMARK                            x       y       z     vdW  Elec       q    Type
REMARK                         _______ _______ _______ _____ _____    ______ ____
ROOT
ATOM      1  C   UNL     1       6.068   4.143  15.463  0.00  0.00    +0.000 A 
ATOM      2  N   UNL     1       4.834   4.155  15.905  0.00  0.00    +0.000 NA
ATOM      3  C   UNL     1       4.996   4.322  17.260  0.00  0.00    +0.000 A 
ATOM      4  N   UNL     1       6.278   4.468  17.636  0.00  0.00    +0.000 NA
ATOM      5  O   UNL     1       6.994   4.331  16.444  0.00  0.00    +0.000 OA
ENDROOT
BRANCH   3   6
ATOM      6  C   UNL     1       3.869   4.394  18.183  0.00  0.00    +0.000 A 
ATOM      7  C   UNL     1       3.493   5.652  18.697  0.00  0.00    +0.000 A 
ATOM      8  C   UNL     1       2.415   5.774  19.576  0.00  0.00    +0.000 A 
ATOM      9  C   UNL     1       1.706   4.641  19.948  0.00  0.00    +0.000 A 
ATOM     10  F   UNL     1       0.676   4.755  20.795  0.00  0.00    +0.000 F 
ATOM     11  C   UNL     1       2.054   3.388  19.461  0.00  0.00    +0.000 A 
ATOM     12  C   UNL     1       3.134   3.260  18.581  0.00  0.00    +0.000 A 
ATOM     13 CL   UNL     1       3.512   1.648  18.073  0.00  0.00    +0.000 Cl
ENDBRANCH   3   6
BRANCH   1  14
ATOM     14  C   UNL     1       6.561   3.976  14.077  0.00  0.00    +0.000 C 
BRANCH  14  15
ATOM     15  C   UNL     1       5.400   4.040  13.089  0.00  0.00    +0.000 C 
BRANCH  15  17
ATOM     16  O   UNL     1       4.628   2.600  11.306  0.00  0.00    +0.000 OA
ATOM     17  C   UNL     1       5.537   2.997  12.017  0.00  0.00    +0.000 C 
BRANCH  17  18
ATOM     18  O   UNL     1       6.798   2.521  11.916  0.00  0.00    +0.000 OA
ATOM     19  H   UNL     1       7.329   2.623  12.728  0.00  0.00    +0.000 HD
ENDBRANCH  17  18
ENDBRANCH  15  17
ENDBRANCH  14  15
ENDBRANCH   1  14
TORSDOF 5
ENDMDL
MODEL 9
REMARK VINA RESULT:      -6.8      4.301      6.725
REMARK  Name = 
REMARK  5 active torsions:
REMARK  status: ('A' for Active; 'I' for Inactive)
REMARK    1  A    between atoms: C_2  and  O_3
REMARK    2  A    between atoms: C_2  and  C_4
REMARK    3  A    between atoms: C_4  and  C_5
REMARK    4  A    between atoms: C_5  and  C_6
REMARK    5  A    between atoms: C_8  and  C_9
REMARK                            x       y       z     vdW  Elec       q    Type
REMARK                         _______ _______ _______ _____ _____    ______ ____
ROOT
ATOM      1  C   UNL     1       3.351   4.716  19.754  0.00  0.00    +0.000 A 
ATOM      2  N   UNL     1       3.659   5.142  18.553  0.00  0.00    +0.000 NA
ATOM      3  C   UNL     1       4.805   4.441  18.264  0.00  0.00    +0.000 A 
ATOM      4  N   UNL     1       5.162   3.571  19.225  0.00  0.00    +0.000 NA
ATOM      5  O   UNL     1       4.207   3.766  20.225  0.00  0.00    +0.000 OA
ENDROOT
BRANCH   3   6
ATOM      6  C   UNL     1       5.522   4.593  17.003  0.00  0.00    +0.000 A 
ATOM      7  C   UNL     1       4.920   4.121  15.819  0.00  0.00    +0.000 A 
ATOM      8  C   UNL     1       5.562   4.253  14.587  0.00  0.00    +0.000 A 
ATOM      9  C   UNL     1       6.810   4.855  14.528  0.00  0.00    +0.000 A 
ATOM     10  F   UNL     1       7.430   4.978  13.347  0.00  0.00    +0.000 F 
ATOM     11  C   UNL     1       7.430   5.328  15.676  0.00  0.00    +0.000 A 
ATOM     12  C   UNL     1       6.791   5.198  16.915  0.00  0.00    +0.000 A 
ATOM     13 CL   UNL     1       7.673   5.777  18.288  0.00  0.00    +0.000 Cl
ENDBRANCH   3   6
BRANCH   1  14
ATOM     14  C   UNL     1       2.221   5.113  20.623  0.00  0.00    +0.000 C 
BRANCH  14  15
ATOM     15  C   UNL     1       1.009   4.225  20.357  0.00  0.00    +0.000 C 
BRANCH  15  17
ATOM     16  O   UNL     1       1.410   1.893  19.862  0.00  0.00    +0.000 OA
ATOM     17  C   UNL     1       1.300   2.789  20.683  0.00  0.00    +0.000 C 
BRANCH  17  18
ATOM     18  O   UNL     1       1.428   2.575  22.012  0.00  0.00    +0.000 OA
ATOM     19  H   UNL     1       2.141   1.952  22.250  0.00  0.00    +0.000 HD
ENDBRANCH  17  18
ENDBRANCH  15  17
ENDBRANCH  14  15
ENDBRANCH   1  14
TORSDOF 5
ENDMDL
