MODEL 1
REMARK VINA RESULT:      -7.5      0.000      0.000
REMARK  Name = 
REMARK  3 active torsions:
REMARK  status: ('A' for Active; 'I' for Inactive)
REMARK    1  A    between atoms: C_2  and  C_4
REMARK    2  A    between atoms: C_9  and  C_10
REMARK    3  A    between atoms: C_10  and  C_11
REMARK                            x       y       z     vdW  Elec       q    Type
REMARK                         _______ _______ _______ _____ _____    ______ ____
ROOT
ATOM      1  C   UNL     1       5.693   4.884  18.049  0.00  0.00    +0.000 A 
ATOM      2  C   UNL     1       4.954   5.105  19.226  0.00  0.00    +0.000 A 
ATOM      3  C   UNL     1       3.629   4.688  19.276  0.00  0.00    +0.000 A 
ATOM      4  C   UNL     1       3.066   4.140  18.143  0.00  0.00    +0.000 A 
ATOM      5  N   UNL     1       3.710   3.954  16.997  0.00  0.00    +0.000 NA
ATOM      6  C   UNL     1       5.035   4.261  16.971  0.00  0.00    +0.000 A 
ATOM      7  C   UNL     1       1.702   3.577  18.380  0.00  0.00    +0.000 C 
ATOM      8  C   UNL     1       1.351   4.186  19.735  0.00  0.00    +0.000 C 
ATOM      9  C   UNL     1       2.674   4.618  20.420  0.00  0.00    +0.000 C 
ENDROOT
BRANCH   1  11
ATOM     10  N   UNL     1       7.552   6.302  17.173  0.00  0.00    +0.000 N 
ATOM     11  C   UNL     1       7.153   5.249  17.960  0.00  0.00    +0.000 C 
ATOM     12  O   UNL     1       8.039   4.638  18.557  0.00  0.00    +0.000 OA
ATOM     13  H   UNL     1       8.548   6.471  17.124  0.00  0.00    +0.000 HD
ATOM     14  H   UNL     1       6.952   6.840  16.563  0.00  0.00    +0.000 HD
ENDBRANCH   1  11
BRANCH   6  15
ATOM     15  C   UNL     1       5.705   3.626  15.772  0.00  0.00    +0.000 C 
BRANCH  15  16
ATOM     16  C   UNL     1       5.496   4.516  14.524  0.00  0.00    +0.000 C 
ATOM     17  C   UNL     1       5.208   3.712  13.254  0.00  0.00    +0.000 C 
ATOM     18  C   UNL     1       6.360   3.516  12.272  0.00  0.00    +0.000 C 
ATOM     19  C   UNL     1       7.425   4.595  12.304  0.00  0.00    +0.000 C 
ATOM     20  C   UNL     1       7.700   5.103  13.703  0.00  0.00    +0.000 C 
ATOM     21  O   UNL     1       6.493   5.524  14.319  0.00  0.00    +0.000 OA
ENDBRANCH  15  16
ENDBRANCH   6  15
TORSDOF 3
ENDMDL
MODEL 2
REMARK VINA RESULT:      -7.3      1.822      5.744
REMARK  Name = 
REMARK  3 active torsions:
REMARK  status: ('A' for Active; 'I' for Inactive)
REMARK    1  A    between atoms: C_2  and  C_4
REMARK    2  A    between atoms: C_9  and  C_10
REMARK    3  A    between atoms: C_10  and  C_11
REMARK                            x       y       z     vdW  Elec       q    Type
REMARK                         _______ _______ _______ _____ _____    ______ ____
ROOT
ATOM      1  C   UNL     1       6.971   5.178  17.976  0.00  0.00    +0.000 A 
ATOM      2  C   UNL     1       7.573   5.229  16.705  0.00  0.00    +0.000 A 
ATOM      3  C   UNL     1       6.879   4.724  15.611  0.00  0.00    +0.000 A 
ATOM      4  C   UNL     1       5.657   4.125  15.825  0.00  0.00    +0.000 A 
ATOM      5  N   UNL     1       5.070   4.013  17.011  0.00  0.00    +0.000 NA
ATOM      6  C   UNL     1       5.692   4.596  18.070  0.00  0.00    +0.000 A 
ATOM      7  C   UNL     1       4.941   3.785  14.558  0.00  0.00    +0.000 C 
ATOM      8  C   UNL     1       6.060   3.924  13.529  0.00  0.00    +0.000 C 
ATOM      9  C   UNL     1       7.173   4.807  14.151  0.00  0.00    +0.000 C 
ENDROOT
BRANCH   1  11
ATOM     10  N   UNL     1       8.335   6.957  19.076  0.00  0.00    +0.000 N 
ATOM     11  C   UNL     1       7.644   5.774  19.186  0.00  0.00    +0.000 C 
ATOM     12  O   UNL     1       7.624   5.247  20.297  0.00  0.00    +0.000 OA
ATOM     13  H   UNL     1       8.798   7.283  19.914  0.00  0.00    +0.000 HD
ATOM     14  H   UNL     1       8.508   7.458  18.216  0.00  0.00    +0.000 HD
ENDBRANCH   1  11
BRANCH   6  15
ATOM     15  C   UNL     1       4.735   4.745  19.233  0.00  0.00    +0.000 C 
BRANCH  15  16
ATOM     16  C   UNL     1       3.451   3.925  18.962  0.00  0.00    +0.000 C 
ATOM     17  C   UNL     1       2.171   4.753  19.099  0.00  0.00    +0.000 C 
ATOM     18  C   UNL     1       1.368   4.595  20.387  0.00  0.00    +0.000 C 
ATOM     19  C   UNL     1       1.529   3.259  21.087  0.00  0.00    +0.000 C 
ATOM     20  C   UNL     1       2.941   2.721  21.003  0.00  0.00    +0.000 C 
ATOM     21  O   UNL     1       3.370   2.672  19.651  0.00  0.00    +0.000 OA
ENDBRANCH  15  16
ENDBRANCH   6  15
TORSDOF 3
ENDMDL
MODEL 3
REMARK VINA RESULT:      -7.1      2.717      6.021
REMARK  Name = 
REMARK  3 active torsions:
REMARK  status: ('A' for Active; 'I' for Inactive)
REMARK    1  A    between atoms: C_2  and  C_4
REMARK    2  A    between atoms: C_9  and  C_10
REMARK    3  A    between atoms: C_10  and  C_11
REMARK                            x       y       z     vdW  Elec       q    Type
REMARK                         _______ _______ _______ _____ _____    ______ ____
ROOT
ATOM      1  C   UNL     1       3.612   5.911  18.145  0.00  0.00    +0.000 A 
ATOM      2  C   UNL     1       4.854   6.393  17.690  0.00  0.00    +0.000 A 
ATOM      3  C   UNL     1       5.573   5.638  16.771  0.00  0.00    +0.000 A 
ATOM      4  C   UNL     1       5.076   4.409  16.394  0.00  0.00    +0.000 A 
ATOM      5  N   UNL     1       3.933   3.892  16.831  0.00  0.00    +0.000 NA
ATOM      6  C   UNL     1       3.172   4.668  17.648  0.00  0.00    +0.000 A 
ATOM      7  C   UNL     1       5.848   3.782  15.279  0.00  0.00    +0.000 C 
ATOM      8  C   UNL     1       7.115   4.632  15.268  0.00  0.00    +0.000 C 
ATOM      9  C   UNL     1       6.798   5.970  15.987  0.00  0.00    +0.000 C 
ENDROOT
BRANCH   1  11
ATOM     10  N   UNL     1       2.587   6.309  20.386  0.00  0.00    +0.000 N 
ATOM     11  C   UNL     1       2.755   6.718  19.085  0.00  0.00    +0.000 C 
ATOM     12  O   UNL     1       2.167   7.746  18.749  0.00  0.00    +0.000 OA
ATOM     13  H   UNL     1       1.968   6.871  20.956  0.00  0.00    +0.000 HD
ATOM     14  H   UNL     1       2.936   5.446  20.780  0.00  0.00    +0.000 HD
ENDBRANCH   1  11
BRANCH   6  15
ATOM     15  C   UNL     1       1.757   4.136  17.722  0.00  0.00    +0.000 C 
BRANCH  15  16
ATOM     16  C   UNL     1       1.738   2.814  18.526  0.00  0.00    +0.000 C 
ATOM     17  C   UNL     1       0.671   2.795  19.624  0.00  0.00    +0.000 C 
ATOM     18  C   UNL     1       1.133   3.047  21.056  0.00  0.00    +0.000 C 
ATOM     19  C   UNL     1       2.574   2.673  21.343  0.00  0.00    +0.000 C 
ATOM     20  C   UNL     1       3.499   2.975  20.184  0.00  0.00    +0.000 C 
ATOM     21  O   UNL     1       3.015   2.367  18.997  0.00  0.00    +0.000 OA
ENDBRANCH  15  16
ENDBRANCH   6  15
TORSDOF 3
ENDMDL
MODEL 4
REMARK VINA RESULT:      -7.1      1.746      5.660
REMARK  Name = 
REMARK  3 active torsions:
REMARK  status: ('A' for Active; 'I' for Inactive)
REMARK    1  A    between atoms: C_2  and  C_4
REMARK    2  A    between atoms: C_9  and  C_10
REMARK    3  A    between atoms: C_10  and  C_11
REMARK                            x       y       z     vdW  Elec       q    Type
REMARK                         _______ _______ _______ _____ _____    ______ ____
ROOT
ATOM      1  C   UNL     1       6.803   5.184  16.621  0.00  0.00    +0.000 A 
ATOM      2  C   UNL     1       7.559   5.193  15.434  0.00  0.00    +0.000 A 
ATOM      3  C   UNL     1       7.007   4.645  14.282  0.00  0.00    +0.000 A 
ATOM      4  C   UNL     1       5.768   4.046  14.363  0.00  0.00    +0.000 A 
ATOM      5  N   UNL     1       5.038   3.974  15.471  0.00  0.00    +0.000 NA
ATOM      6  C   UNL     1       5.523   4.599  16.577  0.00  0.00    +0.000 A 
ATOM      7  C   UNL     1       5.216   3.657  13.030  0.00  0.00    +0.000 C 
ATOM      8  C   UNL     1       6.454   3.765  12.144  0.00  0.00    +0.000 C 
ATOM      9  C   UNL     1       7.480   4.676  12.867  0.00  0.00    +0.000 C 
ENDROOT
BRANCH   1  11
ATOM     10  N   UNL     1       7.773   5.045  18.918  0.00  0.00    +0.000 N 
ATOM     11  C   UNL     1       7.320   5.827  17.883  0.00  0.00    +0.000 C 
ATOM     12  O   UNL     1       7.351   7.045  18.056  0.00  0.00    +0.000 OA
ATOM     13  H   UNL     1       8.068   5.534  19.752  0.00  0.00    +0.000 HD
ATOM     14  H   UNL     1       7.730   4.036  18.953  0.00  0.00    +0.000 HD
ENDBRANCH   1  11
BRANCH   6  15
ATOM     15  C   UNL     1       4.429   4.783  17.606  0.00  0.00    +0.000 C 
BRANCH  15  16
ATOM     16  C   UNL     1       3.381   3.655  17.463  0.00  0.00    +0.000 C 
ATOM     17  C   UNL     1       1.947   4.131  17.710  0.00  0.00    +0.000 C 
ATOM     18  C   UNL     1       1.328   3.816  19.069  0.00  0.00    +0.000 C 
ATOM     19  C   UNL     1       1.888   2.589  19.763  0.00  0.00    +0.000 C 
ATOM     20  C   UNL     1       3.378   2.428  19.553  0.00  0.00    +0.000 C 
ATOM     21  O   UNL     1       3.685   2.446  18.168  0.00  0.00    +0.000 OA
ENDBRANCH  15  16
ENDBRANCH   6  15
TORSDOF 3
ENDMDL
MODEL 5
REMARK VINA RESULT:      -7.0      1.251      1.277
REMARK  Name = 
REMARK  3 active torsions:
REMARK  status: ('A' for Active; 'I' for Inactive)
REMARK    1  A    between atoms: C_2  and  C_4
REMARK    2  A    between atoms: C_9  and  C_10
REMARK    3  A    between atoms: C_10  and  C_11
REMARK                            x       y       z     vdW  Elec       q    Type
REMARK                         _______ _______ _______ _____ _____    ______ ____
ROOT
ATOM      1  C   UNL     1       6.049   4.922  18.361  0.00  0.00    +0.000 A 
ATOM      2  C   UNL     1       5.153   4.639  19.409  0.00  0.00    +0.000 A 
ATOM      3  C   UNL     1       4.078   3.792  19.165  0.00  0.00    +0.000 A 
ATOM      4  C   UNL     1       3.890   3.317  17.885  0.00  0.00    +0.000 A 
ATOM      5  N   UNL     1       4.682   3.593  16.855  0.00  0.00    +0.000 NA
ATOM      6  C   UNL     1       5.793   4.335  17.107  0.00  0.00    +0.000 A 
ATOM      7  C   UNL     1       2.813   2.285  17.795  0.00  0.00    +0.000 C 
ATOM      8  C   UNL     1       2.111   2.458  19.139  0.00  0.00    +0.000 C 
ATOM      9  C   UNL     1       3.094   3.175  20.101  0.00  0.00    +0.000 C 
ENDROOT
BRANCH   1  11
ATOM     10  N   UNL     1       8.167   5.449  19.575  0.00  0.00    +0.000 N 
ATOM     11  C   UNL     1       7.271   5.775  18.585  0.00  0.00    +0.000 C 
ATOM     12  O   UNL     1       7.519   6.784  17.925  0.00  0.00    +0.000 OA
ATOM     13  H   UNL     1       8.944   6.084  19.701  0.00  0.00    +0.000 HD
ATOM     14  H   UNL     1       8.053   4.703  20.247  0.00  0.00    +0.000 HD
ENDBRANCH   1  11
BRANCH   6  15
ATOM     15  C   UNL     1       6.781   4.217  15.966  0.00  0.00    +0.000 C 
BRANCH  15  16
ATOM     16  C   UNL     1       6.206   4.901  14.704  0.00  0.00    +0.000 C 
ATOM     17  C   UNL     1       5.440   3.936  13.795  0.00  0.00    +0.000 C 
ATOM     18  C   UNL     1       6.159   3.426  12.549  0.00  0.00    +0.000 C 
ATOM     19  C   UNL     1       7.235   4.346  12.004  0.00  0.00    +0.000 C 
ATOM     20  C   UNL     1       8.014   5.046  13.096  0.00  0.00    +0.000 C 
ATOM     21  O   UNL     1       7.130   5.720  13.978  0.00  0.00    +0.000 OA
ENDBRANCH  15  16
ENDBRANCH   6  15
TORSDOF 3
ENDMDL
MODEL 6
REMARK VINA RESULT:      -7.0      1.636      5.682
REMARK  Name = 
REMARK  3 active torsions:
REMARK  status: ('A' for Active; 'I' for Inactive)
REMARK    1  A    between atoms: C_2  and  C_4
REMARK    2  A    between atoms: C_9  and  C_10
REMARK    3  A    between atoms: C_10  and  C_11
REMARK                            x       y       z     vdW  Elec       q    Type
REMARK                         _______ _______ _______ _____ _____    ______ ____
ROOT
ATOM      1  C   UNL     1       6.613   4.996  16.851  0.00  0.00    +0.000 A 
ATOM      2  C   UNL     1       7.460   5.096  15.731  0.00  0.00    +0.000 A 
ATOM      3  C   UNL     1       6.998   4.652  14.497  0.00  0.00    +0.000 A 
ATOM      4  C   UNL     1       5.755   4.062  14.431  0.00  0.00    +0.000 A 
ATOM      5  N   UNL     1       4.940   3.904  15.468  0.00  0.00    +0.000 NA
ATOM      6  C   UNL     1       5.338   4.429  16.657  0.00  0.00    +0.000 A 
ATOM      7  C   UNL     1       5.309   3.791  13.031  0.00  0.00    +0.000 C 
ATOM      8  C   UNL     1       6.613   3.960  12.256  0.00  0.00    +0.000 C 
ATOM      9  C   UNL     1       7.582   4.797  13.132  0.00  0.00    +0.000 C 
ENDROOT
BRANCH   1  11
ATOM     10  N   UNL     1       7.608   6.768  18.300  0.00  0.00    +0.000 N 
ATOM     11  C   UNL     1       7.030   5.525  18.198  0.00  0.00    +0.000 C 
ATOM     12  O   UNL     1       6.894   4.892  19.245  0.00  0.00    +0.000 OA
ATOM     13  H   UNL     1       7.903   7.050  19.226  0.00  0.00    +0.000 HD
ATOM     14  H   UNL     1       7.858   7.364  17.524  0.00  0.00    +0.000 HD
ENDBRANCH   1  11
BRANCH   6  15
ATOM     15  C   UNL     1       4.167   4.538  17.609  0.00  0.00    +0.000 C 
BRANCH  15  16
ATOM     16  C   UNL     1       3.800   3.135  18.149  0.00  0.00    +0.000 C 
ATOM     17  C   UNL     1       2.454   2.624  17.627  0.00  0.00    +0.000 C 
ATOM     18  C   UNL     1       1.256   2.721  18.566  0.00  0.00    +0.000 C 
ATOM     19  C   UNL     1       1.592   2.704  20.044  0.00  0.00    +0.000 C 
ATOM     20  C   UNL     1       2.867   3.455  20.363  0.00  0.00    +0.000 C 
ATOM     21  O   UNL     1       3.936   2.971  19.565  0.00  0.00    +0.000 OA
ENDBRANCH  15  16
ENDBRANCH   6  15
TORSDOF 3
ENDMDL
MODEL 7
REMARK VINA RESULT:      -6.8      3.079      5.638
REMARK  Name = 
REMARK  3 active torsions:
REMARK  status: ('A' for Active; 'I' for Inactive)
REMARK    1  A    between atoms: C_2  and  C_4
REMARK    2  A    between atoms: C_9  and  C_10
REMARK    3  A    between atoms: C_10  and  C_11
REMARK                            x       y       z     vdW  Elec       q    Type
REMARK                         _______ _______ _______ _____ _____    ______ ____
ROOT
ATOM      1  C   UNL     1       3.943   6.342  17.590  0.00  0.00    +0.000 A 
ATOM      2  C   UNL     1       3.328   7.560  17.244  0.00  0.00    +0.000 A 
ATOM      3  C   UNL     1       2.489   8.175  18.166  0.00  0.00    +0.000 A 
ATOM      4  C   UNL     1       2.232   7.531  19.357  0.00  0.00    +0.000 A 
ATOM      5  N   UNL     1       2.752   6.360  19.708  0.00  0.00    +0.000 NA
ATOM      6  C   UNL     1       3.655   5.802  18.859  0.00  0.00    +0.000 A 
ATOM      7  C   UNL     1       1.463   8.372  20.323  0.00  0.00    +0.000 C 
ATOM      8  C   UNL     1       0.961   9.495  19.420  0.00  0.00    +0.000 C 
ATOM      9  C   UNL     1       1.861   9.528  18.157  0.00  0.00    +0.000 C 
ENDROOT
BRANCH   1  11
ATOM     10  N   UNL     1       6.067   6.314  16.278  0.00  0.00    +0.000 N 
ATOM     11  C   UNL     1       4.917   5.665  16.661  0.00  0.00    +0.000 C 
ATOM     12  O   UNL     1       4.739   4.538  16.200  0.00  0.00    +0.000 OA
ATOM     13  H   UNL     1       6.660   5.823  15.622  0.00  0.00    +0.000 HD
ATOM     14  H   UNL     1       6.306   7.269  16.507  0.00  0.00    +0.000 HD
ENDBRANCH   1  11
BRANCH   6  15
ATOM     15  C   UNL     1       4.447   4.720  19.561  0.00  0.00    +0.000 C 
BRANCH  15  16
ATOM     16  C   UNL     1       3.722   3.362  19.412  0.00  0.00    +0.000 C 
ATOM     17  C   UNL     1       2.405   3.466  18.637  0.00  0.00    +0.000 C 
ATOM     18  C   UNL     1       1.113   3.471  19.448  0.00  0.00    +0.000 C 
ATOM     19  C   UNL     1       1.191   2.768  20.790  0.00  0.00    +0.000 C 
ATOM     20  C   UNL     1       2.521   2.975  21.482  0.00  0.00    +0.000 C 
ATOM     21  O   UNL     1       3.587   2.606  20.621  0.00  0.00    +0.000 OA
ENDBRANCH  15  16
ENDBRANCH   6  15
TORSDOF 3
ENDMDL
MODEL 8
REMARK VINA RESULT:      -6.7      1.613      1.931
REMARK  Name = 
REMARK  3 active torsions:
REMARK  status: ('A' for Active; 'I' for Inactive)
REMARK    1  A    between atoms: C_2  and  C_4
REMARK    2  A    between atoms: C_9  and  C_10
REMARK    3  A    between atoms: C_10  and  C_11
REMARK                            x       y       z     vdW  Elec       q    Type
REMARK                         _______ _______ _______ _____ _____    ______ ____
ROOT
ATOM      1  C   UNL     1       5.950   5.533  17.847  0.00  0.00    +0.000 A 
ATOM      2  C   UNL     1       5.624   4.801  19.004  0.00  0.00    +0.000 A 
ATOM      3  C   UNL     1       4.643   3.819  18.924  0.00  0.00    +0.000 A 
ATOM      4  C   UNL     1       3.975   3.649  17.730  0.00  0.00    +0.000 A 
ATOM      5  N   UNL     1       4.216   4.346  16.626  0.00  0.00    +0.000 NA
ATOM      6  C   UNL     1       5.244   5.235  16.665  0.00  0.00    +0.000 A 
ATOM      7  C   UNL     1       3.078   2.454  17.727  0.00  0.00    +0.000 C 
ATOM      8  C   UNL     1       3.005   2.121  19.214  0.00  0.00    +0.000 C 
ATOM      9  C   UNL     1       4.225   2.780  19.910  0.00  0.00    +0.000 C 
ENDROOT
BRANCH   1  11
ATOM     10  N   UNL     1       8.039   6.503  18.811  0.00  0.00    +0.000 N 
ATOM     11  C   UNL     1       7.053   6.559  17.855  0.00  0.00    +0.000 C 
ATOM     12  O   UNL     1       7.124   7.481  17.043  0.00  0.00    +0.000 OA
ATOM     13  H   UNL     1       8.728   7.243  18.788  0.00  0.00    +0.000 HD
ATOM     14  H   UNL     1       8.066   5.857  19.588  0.00  0.00    +0.000 HD
ENDBRANCH   1  11
BRANCH   6  15
ATOM     15  C   UNL     1       5.655   5.635  15.264  0.00  0.00    +0.000 C 
BRANCH  15  16
ATOM     16  C   UNL     1       6.745   4.668  14.744  0.00  0.00    +0.000 C 
ATOM     17  C   UNL     1       7.782   5.356  13.852  0.00  0.00    +0.000 C 
ATOM     18  C   UNL     1       7.642   5.173  12.344  0.00  0.00    +0.000 C 
ATOM     19  C   UNL     1       6.945   3.897  11.912  0.00  0.00    +0.000 C 
ATOM     20  C   UNL     1       5.805   3.513  12.830  0.00  0.00    +0.000 C 
ATOM     21  O   UNL     1       6.257   3.448  14.174  0.00  0.00    +0.000 OA
ENDBRANCH  15  16
ENDBRANCH   6  15
TORSDOF 3
ENDMDL
MODEL 9
REMARK VINA RESULT:      -6.6      2.187      3.944
REMARK  Name = 
REMARK  3 active torsions:
REMARK  status: ('A' for Active; 'I' for Inactive)
REMARK    1  A    between atoms: C_2  and  C_4
REMARK    2  A    between atoms: C_9  and  C_10
REMARK    3  A    between atoms: C_10  and  C_11
REMARK                            x       y       z     vdW  Elec       q    Type
REMARK                         _______ _______ _______ _____ _____    ______ ____
ROOT
ATOM      1  C   UNL     1       4.307   4.236  16.694  0.00  0.00    +0.000 A 
ATOM      2  C   UNL     1       3.322   3.319  17.106  0.00  0.00    +0.000 A 
ATOM      3  C   UNL     1       2.529   3.632  18.204  0.00  0.00    +0.000 A 
ATOM      4  C   UNL     1       2.787   4.797  18.894  0.00  0.00    +0.000 A 
ATOM      5  N   UNL     1       3.735   5.670  18.570  0.00  0.00    +0.000 NA
ATOM      6  C   UNL     1       4.446   5.424  17.437  0.00  0.00    +0.000 A 
ATOM      7  C   UNL     1       1.760   5.100  19.936  0.00  0.00    +0.000 C 
ATOM      8  C   UNL     1       1.030   3.765  20.043  0.00  0.00    +0.000 C 
ATOM      9  C   UNL     1       1.311   2.962  18.746  0.00  0.00    +0.000 C 
ENDROOT
BRANCH   1  11
ATOM     10  N   UNL     1       6.247   3.162  15.546  0.00  0.00    +0.000 N 
ATOM     11  C   UNL     1       5.148   3.984  15.469  0.00  0.00    +0.000 C 
ATOM     12  O   UNL     1       4.914   4.493  14.373  0.00  0.00    +0.000 OA
ATOM     13  H   UNL     1       6.793   3.066  14.700  0.00  0.00    +0.000 HD
ATOM     14  H   UNL     1       6.609   2.744  16.391  0.00  0.00    +0.000 HD
ENDBRANCH   1  11
BRANCH   6  15
ATOM     15  C   UNL     1       5.174   6.671  16.985  0.00  0.00    +0.000 C 
BRANCH  15  16
ATOM     16  C   UNL     1       6.696   6.398  16.934  0.00  0.00    +0.000 C 
ATOM     17  C   UNL     1       7.194   5.554  18.111  0.00  0.00    +0.000 C 
ATOM     18  C   UNL     1       7.896   6.286  19.251  0.00  0.00    +0.000 C 
ATOM     19  C   UNL     1       8.575   7.585  18.862  0.00  0.00    +0.000 C 
ATOM     20  C   UNL     1       7.794   8.366  17.828  0.00  0.00    +0.000 C 
ATOM     21  O   UNL     1       7.515   7.550  16.701  0.00  0.00    +0.000 OA
ENDBRANCH  15  16
ENDBRANCH   6  15
TORSDOF 3
ENDMDL
