MODEL 1
REMARK VINA RESULT:      -9.0      0.000      0.000
REMARK  Name = 
REMARK  6 active torsions:
REMARK  status: ('A' for Active; 'I' for Inactive)
REMARK    1  A    between atoms: C_1  and  C_2
REMARK    2  A    between atoms: C_7  and  C_8
REMARK    3  A    between atoms: C_12  and  N_13
REMARK    4  A    between atoms: N_13  and  S_14
REMARK    5  A    between atoms: S_14  and  C_17
REMARK    6  A    between atoms: N_25  and  C_26
REMARK                            x       y       z     vdW  Elec       q    Type
REMARK                         _______ _______ _______ _____ _____    ______ ____
ROOT
ATOM      1  C   UNL     1       1.007   9.356  19.108  0.00  0.00    +0.000 A 
ATOM      2  C   UNL     1       0.903   8.764  20.381  0.00  0.00    +0.000 A 
ATOM      3  C   UNL     1       1.651   7.635  20.713  0.00  0.00    +0.000 A 
ATOM      4  C   UNL     1       2.513   7.083  19.777  0.00  0.00    +0.000 A 
ATOM      5  C   UNL     1       2.637   7.660  18.516  0.00  0.00    +0.000 A 
ATOM      6  C   UNL     1       1.878   8.784  18.167  0.00  0.00    +0.000 A 
ENDROOT
BRANCH   1  13
ATOM      7  C   UNL     1      -5.074  11.884  16.998  0.00  0.00    +0.000 C 
ATOM      8  C   UNL     1      -3.843  11.203  17.527  0.00  0.00    +0.000 C 
ATOM      9  O   UNL     1      -3.864  10.011  17.804  0.00  0.00    +0.000 OA
ATOM     10  N   UNL     1      -2.782  12.066  17.651  0.00  0.00    +0.000 N 
ATOM     11  C   UNL     1      -1.551  11.662  18.085  0.00  0.00    +0.000 A 
ATOM     12  N   UNL     1      -1.069  10.458  18.272  0.00  0.00    +0.000 NA
ATOM     13  C   UNL     1       0.218  10.543  18.782  0.00  0.00    +0.000 A 
ATOM     14  C   UNL     1       0.678  11.837  18.965  0.00  0.00    +0.000 A 
ATOM     15  S   UNL     1      -0.500  12.963  18.433  0.00  0.00    +0.000 S 
ATOM     16  H   UNL     1      -2.906  13.059  17.508  0.00  0.00    +0.000 HD
ENDBRANCH   1  13
BRANCH   5  17
ATOM     17  N   UNL     1       3.515   7.029  17.606  0.00  0.00    +0.000 N 
ATOM     18  H   UNL     1       3.816   7.511  16.762  0.00  0.00    +0.000 HD
BRANCH  17  19
ATOM     19  S   UNL     1       4.417   5.700  18.060  0.00  0.00    +0.000 S 
ATOM     20  O   UNL     1       5.535   5.664  17.135  0.00  0.00    +0.000 OA
ATOM     21  O   UNL     1       4.642   5.735  19.489  0.00  0.00    +0.000 OA
BRANCH  19  22
ATOM     22  C   UNL     1       3.362   4.272  17.685  0.00  0.00    +0.000 A 
ATOM     23  C   UNL     1       3.982   3.251  16.946  0.00  0.00    +0.000 A 
ATOM     24  C   UNL     1       3.983   1.940  17.433  0.00  0.00    +0.000 A 
ATOM     25  C   UNL     1       3.511   1.653  18.726  0.00  0.00    +0.000 A 
ATOM     26  C   UNL     1       2.837   2.690  19.392  0.00  0.00    +0.000 A 
ATOM     27  C   UNL     1       2.465   3.838  18.682  0.00  0.00    +0.000 A 
ATOM     28  C   UNL     1       1.029   3.598  18.675  0.00  0.00    +0.000 A 
ATOM     29  C   UNL     1       0.729   2.822  19.786  0.00  0.00    +0.000 A 
ATOM     30  N   UNL     1       1.939   2.715  20.453  0.00  0.00    +0.000 N 
ATOM     31  C   UNL     1       2.147   3.551  21.648  0.00  0.00    +0.000 C 
ENDBRANCH  19  22
ENDBRANCH  17  19
ENDBRANCH   5  17
TORSDOF 4
ENDMDL
MODEL 2
REMARK VINA RESULT:      -9.0      2.525      3.567
REMARK  Name = 
REMARK  6 active torsions:
REMARK  status: ('A' for Active; 'I' for Inactive)
REMARK    1  A    between atoms: C_1  and  C_2
REMARK    2  A    between atoms: C_7  and  C_8
REMARK    3  A    between atoms: C_12  and  N_13
REMARK    4  A    between atoms: N_13  and  S_14
REMARK    5  A    between atoms: S_14  and  C_17
REMARK    6  A    between atoms: N_25  and  C_26
REMARK                            x       y       z     vdW  Elec       q    Type
REMARK                         _______ _______ _______ _____ _____    ______ ____
ROOT
ATOM      1  C   UNL     1       0.781   9.350  20.095  0.00  0.00    +0.000 A 
ATOM      2  C   UNL     1       0.903   9.675  18.731  0.00  0.00    +0.000 A 
ATOM      3  C   UNL     1       1.706   8.917  17.880  0.00  0.00    +0.000 A 
ATOM      4  C   UNL     1       2.395   7.822  18.380  0.00  0.00    +0.000 A 
ATOM      5  C   UNL     1       2.278   7.479  19.724  0.00  0.00    +0.000 A 
ATOM      6  C   UNL     1       1.489   8.243  20.592  0.00  0.00    +0.000 A 
ENDROOT
BRANCH   1  13
ATOM      7  C   UNL     1      -4.468  13.827  20.570  0.00  0.00    +0.000 C 
ATOM      8  C   UNL     1      -3.406  12.792  20.324  0.00  0.00    +0.000 C 
ATOM      9  O   UNL     1      -3.264  12.302  19.211  0.00  0.00    +0.000 OA
ATOM     10  N   UNL     1      -2.688  12.503  21.458  0.00  0.00    +0.000 N 
ATOM     11  C   UNL     1      -1.652  11.611  21.465  0.00  0.00    +0.000 A 
ATOM     12  N   UNL     1      -1.021  11.034  20.472  0.00  0.00    +0.000 NA
ATOM     13  C   UNL     1      -0.071  10.154  20.971  0.00  0.00    +0.000 A 
ATOM     14  C   UNL     1      -0.011  10.097  22.353  0.00  0.00    +0.000 A 
ATOM     15  S   UNL     1      -1.124  11.208  23.039  0.00  0.00    +0.000 S 
ATOM     16  H   UNL     1      -2.966  12.877  22.354  0.00  0.00    +0.000 HD
ENDBRANCH   1  13
BRANCH   5  17
ATOM     17  N   UNL     1       3.029   6.367  20.169  0.00  0.00    +0.000 N 
ATOM     18  H   UNL     1       3.857   6.501  20.744  0.00  0.00    +0.000 HD
BRANCH  17  19
ATOM     19  S   UNL     1       2.382   4.828  20.153  0.00  0.00    +0.000 S 
ATOM     20  O   UNL     1       2.191   4.479  21.548  0.00  0.00    +0.000 OA
ATOM     21  O   UNL     1       1.274   4.780  19.222  0.00  0.00    +0.000 OA
BRANCH  19  22
ATOM     22  C   UNL     1       3.711   3.772  19.511  0.00  0.00    +0.000 A 
ATOM     23  C   UNL     1       3.330   2.455  19.205  0.00  0.00    +0.000 A 
ATOM     24  C   UNL     1       3.572   1.938  17.929  0.00  0.00    +0.000 A 
ATOM     25  C   UNL     1       4.050   2.764  16.897  0.00  0.00    +0.000 A 
ATOM     26  C   UNL     1       4.483   4.047  17.270  0.00  0.00    +0.000 A 
ATOM     27  C   UNL     1       4.643   4.353  18.627  0.00  0.00    +0.000 A 
ATOM     28  C   UNL     1       6.098   4.415  18.636  0.00  0.00    +0.000 A 
ATOM     29  C   UNL     1       6.509   4.756  17.355  0.00  0.00    +0.000 A 
ATOM     30  N   UNL     1       5.323   4.980  16.673  0.00  0.00    +0.000 N 
ATOM     31  C   UNL     1       4.916   6.374  16.432  0.00  0.00    +0.000 C 
ENDBRANCH  19  22
ENDBRANCH  17  19
ENDBRANCH   5  17
TORSDOF 4
ENDMDL
MODEL 3
REMARK VINA RESULT:      -8.8      3.410      9.226
REMARK  Name = 
REMARK  6 active torsions:
REMARK  status: ('A' for Active; 'I' for Inactive)
REMARK    1  A    between atoms: C_1  and  C_2
REMARK    2  A    between atoms: C_7  and  C_8
REMARK    3  A    between atoms: C_12  and  N_13
REMARK    4  A    between atoms: N_13  and  S_14
REMARK    5  A    between atoms: S_14  and  C_17
REMARK    6  A    between atoms: N_25  and  C_26
REMARK                            x       y       z     vdW  Elec       q    Type
REMARK                         _______ _______ _______ _____ _____    ______ ____
ROOT
ATOM      1  C   UNL     1       2.496   7.383  18.798  0.00  0.00    +0.000 A 
ATOM      2  C   UNL     1       2.308   8.351  17.792  0.00  0.00    +0.000 A 
ATOM      3  C   UNL     1       1.448   9.430  17.985  0.00  0.00    +0.000 A 
ATOM      4  C   UNL     1       0.766   9.561  19.186  0.00  0.00    +0.000 A 
ATOM      5  C   UNL     1       0.947   8.620  20.196  0.00  0.00    +0.000 A 
ATOM      6  C   UNL     1       1.795   7.522  20.007  0.00  0.00    +0.000 A 
ENDROOT
BRANCH   1  13
ATOM      7  C   UNL     1       6.712   4.104  14.407  0.00  0.00    +0.000 C 
ATOM      8  C   UNL     1       5.838   4.962  15.276  0.00  0.00    +0.000 C 
ATOM      9  O   UNL     1       5.460   6.059  14.884  0.00  0.00    +0.000 OA
ATOM     10  N   UNL     1       5.563   4.372  16.485  0.00  0.00    +0.000 N 
ATOM     11  C   UNL     1       4.762   4.958  17.425  0.00  0.00    +0.000 A 
ATOM     12  N   UNL     1       3.980   6.005  17.341  0.00  0.00    +0.000 NA
ATOM     13  C   UNL     1       3.406   6.261  18.578  0.00  0.00    +0.000 A 
ATOM     14  C   UNL     1       3.779   5.376  19.577  0.00  0.00    +0.000 A 
ATOM     15  S   UNL     1       4.820   4.171  18.941  0.00  0.00    +0.000 S 
ATOM     16  H   UNL     1       6.024   3.515  16.757  0.00  0.00    +0.000 HD
ENDBRANCH   1  13
BRANCH   5  17
ATOM     17  N   UNL     1       0.201   8.802  21.382  0.00  0.00    +0.000 N 
ATOM     18  H   UNL     1      -0.312   8.025  21.793  0.00  0.00    +0.000 HD
BRANCH  17  19
ATOM     19  S   UNL     1       0.464  10.119  22.373  0.00  0.00    +0.000 S 
ATOM     20  O   UNL     1       0.226   9.638  23.721  0.00  0.00    +0.000 OA
ATOM     21  O   UNL     1       1.724  10.741  22.023  0.00  0.00    +0.000 OA
BRANCH  19  22
ATOM     22  C   UNL     1      -0.873  11.279  21.971  0.00  0.00    +0.000 A 
ATOM     23  C   UNL     1      -1.759  11.554  23.024  0.00  0.00    +0.000 A 
ATOM     24  C   UNL     1      -1.991  12.877  23.413  0.00  0.00    +0.000 A 
ATOM     25  C   UNL     1      -1.233  13.929  22.870  0.00  0.00    +0.000 A 
ATOM     26  C   UNL     1      -0.415  13.612  21.773  0.00  0.00    +0.000 A 
ATOM     27  C   UNL     1      -0.564  12.373  21.137  0.00  0.00    +0.000 A 
ATOM     28  C   UNL     1      -1.159  12.865  19.902  0.00  0.00    +0.000 A 
ATOM     29  C   UNL     1      -0.726  14.172  19.722  0.00  0.00    +0.000 A 
ATOM     30  N   UNL     1       0.165  14.374  20.765  0.00  0.00    +0.000 N 
ATOM     31  C   UNL     1       1.605  14.327  20.464  0.00  0.00    +0.000 C 
ENDBRANCH  19  22
ENDBRANCH  17  19
ENDBRANCH   5  17
TORSDOF 4
ENDMDL
MODEL 4
REMARK VINA RESULT:      -8.7      2.906      3.858
REMARK  Name = 
REMARK  6 active torsions:
REMARK  status: ('A' for Active; 'I' for Inactive)
REMARK    1  A    between atoms: C_1  and  C_2
REMARK    2  A    between atoms: C_7  and  C_8
REMARK    3  A    between atoms: C_12  and  N_13
REMARK    4  A    between atoms: N_13  and  S_14
REMARK    5  A    between atoms: S_14  and  C_17
REMARK    6  A    between atoms: N_25  and  C_26
REMARK                            x       y       z     vdW  Elec       q    Type
REMARK                         _______ _______ _______ _____ _____    ______ ____
ROOT
ATOM      1  C   UNL     1       0.928   9.400  20.071  0.00  0.00    +0.000 A 
ATOM      2  C   UNL     1       1.028   9.640  18.687  0.00  0.00    +0.000 A 
ATOM      3  C   UNL     1       1.751   8.785  17.859  0.00  0.00    +0.000 A 
ATOM      4  C   UNL     1       2.383   7.675  18.401  0.00  0.00    +0.000 A 
ATOM      5  C   UNL     1       2.288   7.415  19.765  0.00  0.00    +0.000 A 
ATOM      6  C   UNL     1       1.578   8.277  20.609  0.00  0.00    +0.000 A 
ENDROOT
BRANCH   1  13
ATOM      7  C   UNL     1      -1.870  15.678  20.825  0.00  0.00    +0.000 C 
ATOM      8  C   UNL     1      -1.288  14.334  20.490  0.00  0.00    +0.000 C 
ATOM      9  O   UNL     1      -0.879  14.099  19.360  0.00  0.00    +0.000 OA
ATOM     10  N   UNL     1      -1.299  13.478  21.564  0.00  0.00    +0.000 N 
ATOM     11  C   UNL     1      -0.793  12.210  21.500  0.00  0.00    +0.000 A 
ATOM     12  N   UNL     1      -0.068  11.630  20.576  0.00  0.00    +0.000 NA
ATOM     13  C   UNL     1       0.160  10.306  20.923  0.00  0.00    +0.000 A 
ATOM     14  C   UNL     1      -0.409   9.922  22.126  0.00  0.00    +0.000 A 
ATOM     15  S   UNL     1      -1.193  11.258  22.862  0.00  0.00    +0.000 S 
ATOM     16  H   UNL     1      -1.771  13.732  22.421  0.00  0.00    +0.000 HD
ENDBRANCH   1  13
BRANCH   5  17
ATOM     17  N   UNL     1       2.979   6.281  20.251  0.00  0.00    +0.000 N 
ATOM     18  H   UNL     1       3.752   6.389  20.903  0.00  0.00    +0.000 HD
BRANCH  17  19
ATOM     19  S   UNL     1       2.315   4.754  20.138  0.00  0.00    +0.000 S 
ATOM     20  O   UNL     1       2.043   4.354  21.506  0.00  0.00    +0.000 OA
ATOM     21  O   UNL     1       1.259   4.758  19.147  0.00  0.00    +0.000 OA
BRANCH  19  22
ATOM     22  C   UNL     1       3.663   3.704  19.528  0.00  0.00    +0.000 A 
ATOM     23  C   UNL     1       3.297   2.386  19.214  0.00  0.00    +0.000 A 
ATOM     24  C   UNL     1       3.571   1.869  17.944  0.00  0.00    +0.000 A 
ATOM     25  C   UNL     1       4.069   2.698  16.923  0.00  0.00    +0.000 A 
ATOM     26  C   UNL     1       4.487   3.983  17.306  0.00  0.00    +0.000 A 
ATOM     27  C   UNL     1       4.613   4.290  18.667  0.00  0.00    +0.000 A 
ATOM     28  C   UNL     1       6.067   4.359  18.710  0.00  0.00    +0.000 A 
ATOM     29  C   UNL     1       6.507   4.702  17.439  0.00  0.00    +0.000 A 
ATOM     30  N   UNL     1       5.336   4.920  16.729  0.00  0.00    +0.000 N 
ATOM     31  C   UNL     1       4.928   6.312  16.478  0.00  0.00    +0.000 C 
ENDBRANCH  19  22
ENDBRANCH  17  19
ENDBRANCH   5  17
TORSDOF 4
ENDMDL
MODEL 5
REMARK VINA RESULT:      -8.7      2.757      3.758
REMARK  Name = 
REMARK  6 active torsions:
REMARK  status: ('A' for Active; 'I' for Inactive)
REMARK    1  A    between atoms: C_1  and  C_2
REMARK    2  A    between atoms: C_7  and  C_8
REMARK    3  A    between atoms: C_12  and  N_13
REMARK    4  A    between atoms: N_13  and  S_14
REMARK    5  A    between atoms: S_14  and  C_17
REMARK    6  A    between atoms: N_25  and  C_26
REMARK                            x       y       z     vdW  Elec       q    Type
REMARK                         _______ _______ _______ _____ _____    ______ ____
ROOT
ATOM      1  C   UNL     1       1.143   9.634  19.113  0.00  0.00    +0.000 A 
ATOM      2  C   UNL     1       1.896   9.697  17.926  0.00  0.00    +0.000 A 
ATOM      3  C   UNL     1       2.756   8.662  17.564  0.00  0.00    +0.000 A 
ATOM      4  C   UNL     1       2.875   7.548  18.382  0.00  0.00    +0.000 A 
ATOM      5  C   UNL     1       2.131   7.463  19.556  0.00  0.00    +0.000 A 
ATOM      6  C   UNL     1       1.276   8.504  19.938  0.00  0.00    +0.000 A 
ENDROOT
BRANCH   1  13
ATOM      7  C   UNL     1      -3.112  12.326  23.853  0.00  0.00    +0.000 C 
ATOM      8  C   UNL     1      -2.100  11.671  22.956  0.00  0.00    +0.000 C 
ATOM      9  O   UNL     1      -1.436  10.724  23.358  0.00  0.00    +0.000 OA
ATOM     10  N   UNL     1      -2.036  12.265  21.720  0.00  0.00    +0.000 N 
ATOM     11  C   UNL     1      -1.205  11.819  20.730  0.00  0.00    +0.000 A 
ATOM     12  N   UNL     1      -0.499  10.719  20.646  0.00  0.00    +0.000 NA
ATOM     13  C   UNL     1       0.242  10.727  19.473  0.00  0.00    +0.000 A 
ATOM     14  C   UNL     1       0.063  11.856  18.690  0.00  0.00    +0.000 A 
ATOM     15  S   UNL     1      -1.096  12.896  19.408  0.00  0.00    +0.000 S 
ATOM     16  H   UNL     1      -2.543  13.119  21.531  0.00  0.00    +0.000 HD
ENDBRANCH   1  13
BRANCH   5  17
ATOM     17  N   UNL     1       2.321   6.312  20.353  0.00  0.00    +0.000 N 
ATOM     18  H   UNL     1       2.520   6.400  21.347  0.00  0.00    +0.000 HD
BRANCH  17  19
ATOM     19  S   UNL     1       1.815   4.809  19.832  0.00  0.00    +0.000 S 
ATOM     20  O   UNL     1       1.030   4.270  20.927  0.00  0.00    +0.000 OA
ATOM     21  O   UNL     1       1.248   4.924  18.505  0.00  0.00    +0.000 OA
BRANCH  19  22
ATOM     22  C   UNL     1       3.332   3.820  19.719  0.00  0.00    +0.000 A 
ATOM     23  C   UNL     1       3.136   2.429  19.699  0.00  0.00    +0.000 A 
ATOM     24  C   UNL     1       3.672   1.665  18.658  0.00  0.00    +0.000 A 
ATOM     25  C   UNL     1       4.272   2.283  17.547  0.00  0.00    +0.000 A 
ATOM     26  C   UNL     1       4.507   3.664  17.649  0.00  0.00    +0.000 A 
ATOM     27  C   UNL     1       4.366   4.297  18.889  0.00  0.00    +0.000 A 
ATOM     28  C   UNL     1       5.780   4.555  19.131  0.00  0.00    +0.000 A 
ATOM     29  C   UNL     1       6.406   4.638  17.895  0.00  0.00    +0.000 A 
ATOM     30  N   UNL     1       5.365   4.535  16.987  0.00  0.00    +0.000 N 
ATOM     31  C   UNL     1       4.893   5.766  16.331  0.00  0.00    +0.000 C 
ENDBRANCH  19  22
ENDBRANCH  17  19
ENDBRANCH   5  17
TORSDOF 4
ENDMDL
MODEL 6
REMARK VINA RESULT:      -8.5      2.979      8.661
REMARK  Name = 
REMARK  6 active torsions:
REMARK  status: ('A' for Active; 'I' for Inactive)
REMARK    1  A    between atoms: C_1  and  C_2
REMARK    2  A    between atoms: C_7  and  C_8
REMARK    3  A    between atoms: C_12  and  N_13
REMARK    4  A    between atoms: N_13  and  S_14
REMARK    5  A    between atoms: S_14  and  C_17
REMARK    6  A    between atoms: N_25  and  C_26
REMARK                            x       y       z     vdW  Elec       q    Type
REMARK                         _______ _______ _______ _____ _____    ______ ____
ROOT
ATOM      1  C   UNL     1       3.654   4.755  19.133  0.00  0.00    +0.000 A 
ATOM      2  C   UNL     1       2.898   3.581  18.952  0.00  0.00    +0.000 A 
ATOM      3  C   UNL     1       1.624   3.454  19.500  0.00  0.00    +0.000 A 
ATOM      4  C   UNL     1       1.084   4.499  20.235  0.00  0.00    +0.000 A 
ATOM      5  C   UNL     1       1.812   5.672  20.417  0.00  0.00    +0.000 A 
ATOM      6  C   UNL     1       3.100   5.804  19.886  0.00  0.00    +0.000 A 
ENDROOT
BRANCH   1  13
ATOM      7  C   UNL     1       7.485   4.673  13.377  0.00  0.00    +0.000 C 
ATOM      8  C   UNL     1       6.522   4.752  14.529  0.00  0.00    +0.000 C 
ATOM      9  O   UNL     1       5.315   4.773  14.327  0.00  0.00    +0.000 OA
ATOM     10  N   UNL     1       7.164   4.802  15.742  0.00  0.00    +0.000 N 
ATOM     11  C   UNL     1       6.489   4.848  16.930  0.00  0.00    +0.000 A 
ATOM     12  N   UNL     1       5.219   4.666  17.193  0.00  0.00    +0.000 NA
ATOM     13  C   UNL     1       4.987   4.872  18.545  0.00  0.00    +0.000 A 
ATOM     14  C   UNL     1       6.115   5.206  19.276  0.00  0.00    +0.000 A 
ATOM     15  S   UNL     1       7.498   5.205  18.262  0.00  0.00    +0.000 S 
ATOM     16  H   UNL     1       8.168   4.901  15.790  0.00  0.00    +0.000 HD
ENDBRANCH   1  13
BRANCH   5  17
ATOM     17  N   UNL     1       1.210   6.684  21.199  0.00  0.00    +0.000 N 
ATOM     18  H   UNL     1       0.830   6.468  22.118  0.00  0.00    +0.000 HD
BRANCH  17  19
ATOM     19  S   UNL     1       1.473   8.298  20.869  0.00  0.00    +0.000 S 
ATOM     20  O   UNL     1       2.358   8.764  21.921  0.00  0.00    +0.000 OA
ATOM     21  O   UNL     1       1.837   8.454  19.477  0.00  0.00    +0.000 OA
BRANCH  19  22
ATOM     22  C   UNL     1      -0.137   9.095  21.128  0.00  0.00    +0.000 A 
ATOM     23  C   UNL     1      -0.576   9.132  22.462  0.00  0.00    +0.000 A 
ATOM     24  C   UNL     1      -0.926  10.352  23.048  0.00  0.00    +0.000 A 
ATOM     25  C   UNL     1      -0.698  11.565  22.373  0.00  0.00    +0.000 A 
ATOM     26  C   UNL     1      -0.328  11.471  21.021  0.00  0.00    +0.000 A 
ATOM     27  C   UNL     1      -0.434  10.240  20.362  0.00  0.00    +0.000 A 
ATOM     28  C   UNL     1      -1.559  10.582  19.503  0.00  0.00    +0.000 A 
ATOM     29  C   UNL     1      -1.536  11.957  19.312  0.00  0.00    +0.000 A 
ATOM     30  N   UNL     1      -0.377  12.363  19.956  0.00  0.00    +0.000 N 
ATOM     31  C   UNL     1       0.800  12.677  19.130  0.00  0.00    +0.000 C 
ENDBRANCH  19  22
ENDBRANCH  17  19
ENDBRANCH   5  17
TORSDOF 4
ENDMDL
MODEL 7
REMARK VINA RESULT:      -8.5      2.288      3.469
REMARK  Name = 
REMARK  6 active torsions:
REMARK  status: ('A' for Active; 'I' for Inactive)
REMARK    1  A    between atoms: C_1  and  C_2
REMARK    2  A    between atoms: C_7  and  C_8
REMARK    3  A    between atoms: C_12  and  N_13
REMARK    4  A    between atoms: N_13  and  S_14
REMARK    5  A    between atoms: S_14  and  C_17
REMARK    6  A    between atoms: N_25  and  C_26
REMARK                            x       y       z     vdW  Elec       q    Type
REMARK                         _______ _______ _______ _____ _____    ______ ____
ROOT
ATOM      1  C   UNL     1       0.232   9.588  20.024  0.00  0.00    +0.000 A 
ATOM      2  C   UNL     1      -0.273   9.206  21.282  0.00  0.00    +0.000 A 
ATOM      3  C   UNL     1       0.286   8.144  21.989  0.00  0.00    +0.000 A 
ATOM      4  C   UNL     1       1.360   7.449  21.452  0.00  0.00    +0.000 A 
ATOM      5  C   UNL     1       1.880   7.818  20.215  0.00  0.00    +0.000 A 
ATOM      6  C   UNL     1       1.316   8.872  19.487  0.00  0.00    +0.000 A 
ENDROOT
BRANCH   1  13
ATOM      7  C   UNL     1      -5.329  12.085  16.761  0.00  0.00    +0.000 C 
ATOM      8  C   UNL     1      -4.232  11.451  17.568  0.00  0.00    +0.000 C 
ATOM      9  O   UNL     1      -4.434  10.408  18.178  0.00  0.00    +0.000 OA
ATOM     10  N   UNL     1      -3.066  12.174  17.523  0.00  0.00    +0.000 N 
ATOM     11  C   UNL     1      -1.924  11.773  18.160  0.00  0.00    +0.000 A 
ATOM     12  N   UNL     1      -1.627  10.631  18.730  0.00  0.00    +0.000 NA
ATOM     13  C   UNL     1      -0.365  10.708  19.300  0.00  0.00    +0.000 A 
ATOM     14  C   UNL     1       0.266  11.931  19.135  0.00  0.00    +0.000 A 
ATOM     15  S   UNL     1      -0.717  12.980  18.199  0.00  0.00    +0.000 S 
ATOM     16  H   UNL     1      -3.041  13.086  17.087  0.00  0.00    +0.000 HD
ENDBRANCH   1  13
BRANCH   5  17
ATOM     17  N   UNL     1       2.957   7.050  19.718  0.00  0.00    +0.000 N 
ATOM     18  H   UNL     1       3.592   6.577  20.357  0.00  0.00    +0.000 HD
BRANCH  17  19
ATOM     19  S   UNL     1       2.986   6.530  18.132  0.00  0.00    +0.000 S 
ATOM     20  O   UNL     1       1.738   5.814  17.942  0.00  0.00    +0.000 OA
ATOM     21  O   UNL     1       3.340   7.637  17.268  0.00  0.00    +0.000 OA
BRANCH  19  22
ATOM     22  C   UNL     1       4.325   5.307  18.067  0.00  0.00    +0.000 A 
ATOM     23  C   UNL     1       4.157   4.291  17.112  0.00  0.00    +0.000 A 
ATOM     24  C   UNL     1       5.156   4.054  16.162  0.00  0.00    +0.000 A 
ATOM     25  C   UNL     1       6.258   4.920  16.048  0.00  0.00    +0.000 A 
ATOM     26  C   UNL     1       6.416   5.873  17.068  0.00  0.00    +0.000 A 
ATOM     27  C   UNL     1       5.646   5.770  18.233  0.00  0.00    +0.000 A 
ATOM     28  C   UNL     1       6.719   5.375  19.135  0.00  0.00    +0.000 A 
ATOM     29  C   UNL     1       7.905   5.876  18.617  0.00  0.00    +0.000 A 
ATOM     30  N   UNL     1       7.502   6.617  17.517  0.00  0.00    +0.000 N 
ATOM     31  C   UNL     1       7.459   8.082  17.647  0.00  0.00    +0.000 C 
ENDBRANCH  19  22
ENDBRANCH  17  19
ENDBRANCH   5  17
TORSDOF 4
ENDMDL
MODEL 8
REMARK VINA RESULT:      -8.5      3.347      9.259
REMARK  Name = 
REMARK  6 active torsions:
REMARK  status: ('A' for Active; 'I' for Inactive)
REMARK    1  A    between atoms: C_1  and  C_2
REMARK    2  A    between atoms: C_7  and  C_8
REMARK    3  A    between atoms: C_12  and  N_13
REMARK    4  A    between atoms: N_13  and  S_14
REMARK    5  A    between atoms: S_14  and  C_17
REMARK    6  A    between atoms: N_25  and  C_26
REMARK                            x       y       z     vdW  Elec       q    Type
REMARK                         _______ _______ _______ _____ _____    ______ ____
ROOT
ATOM      1  C   UNL     1       2.638   7.472  18.694  0.00  0.00    +0.000 A 
ATOM      2  C   UNL     1       2.358   8.401  17.674  0.00  0.00    +0.000 A 
ATOM      3  C   UNL     1       1.422   9.417  17.864  0.00  0.00    +0.000 A 
ATOM      4  C   UNL     1       0.756   9.519  19.076  0.00  0.00    +0.000 A 
ATOM      5  C   UNL     1       1.027   8.615  20.100  0.00  0.00    +0.000 A 
ATOM      6  C   UNL     1       1.952   7.581  19.914  0.00  0.00    +0.000 A 
ENDROOT
BRANCH   1  13
ATOM      7  C   UNL     1       4.965   1.229  20.546  0.00  0.00    +0.000 C 
ATOM      8  C   UNL     1       4.301   2.530  20.191  0.00  0.00    +0.000 C 
ATOM      9  O   UNL     1       3.216   2.825  20.675  0.00  0.00    +0.000 OA
ATOM     10  N   UNL     1       5.042   3.267  19.300  0.00  0.00    +0.000 N 
ATOM     11  C   UNL     1       4.648   4.499  18.857  0.00  0.00    +0.000 A 
ATOM     12  N   UNL     1       3.688   5.285  19.276  0.00  0.00    +0.000 NA
ATOM     13  C   UNL     1       3.627   6.417  18.477  0.00  0.00    +0.000 A 
ATOM     14  C   UNL     1       4.567   6.451  17.459  0.00  0.00    +0.000 A 
ATOM     15  S   UNL     1       5.579   5.070  17.543  0.00  0.00    +0.000 S 
ATOM     16  H   UNL     1       5.868   2.876  18.869  0.00  0.00    +0.000 HD
ENDBRANCH   1  13
BRANCH   5  17
ATOM     17  N   UNL     1       0.292   8.764  21.298  0.00  0.00    +0.000 N 
ATOM     18  H   UNL     1      -0.195   7.969  21.706  0.00  0.00    +0.000 HD
BRANCH  17  19
ATOM     19  S   UNL     1       0.534  10.076  22.300  0.00  0.00    +0.000 S 
ATOM     20  O   UNL     1       0.320   9.575  23.645  0.00  0.00    +0.000 OA
ATOM     21  O   UNL     1       1.775  10.732  21.945  0.00  0.00    +0.000 OA
BRANCH  19  22
ATOM     22  C   UNL     1      -0.835  11.208  21.924  0.00  0.00    +0.000 A 
ATOM     23  C   UNL     1      -1.702  11.471  22.997  0.00  0.00    +0.000 A 
ATOM     24  C   UNL     1      -1.951  12.790  23.386  0.00  0.00    +0.000 A 
ATOM     25  C   UNL     1      -1.226  13.855  22.821  0.00  0.00    +0.000 A 
ATOM     26  C   UNL     1      -0.428  13.548  21.706  0.00  0.00    +0.000 A 
ATOM     27  C   UNL     1      -0.567  12.304  21.080  0.00  0.00    +0.000 A 
ATOM     28  C   UNL     1      -1.200  12.779  19.857  0.00  0.00    +0.000 A 
ATOM     29  C   UNL     1      -0.797  14.092  19.661  0.00  0.00    +0.000 A 
ATOM     30  N   UNL     1       0.113  14.317  20.682  0.00  0.00    +0.000 N 
ATOM     31  C   UNL     1       1.547  14.297  20.348  0.00  0.00    +0.000 C 
ENDBRANCH  19  22
ENDBRANCH  17  19
ENDBRANCH   5  17
TORSDOF 4
ENDMDL
MODEL 9
REMARK VINA RESULT:      -8.5      2.618      3.046
REMARK  Name = 
REMARK  6 active torsions:
REMARK  status: ('A' for Active; 'I' for Inactive)
REMARK    1  A    between atoms: C_1  and  C_2
REMARK    2  A    between atoms: C_7  and  C_8
REMARK    3  A    between atoms: C_12  and  N_13
REMARK    4  A    between atoms: N_13  and  S_14
REMARK    5  A    between atoms: S_14  and  C_17
REMARK    6  A    between atoms: N_25  and  C_26
REMARK                            x       y       z     vdW  Elec       q    Type
REMARK                         _______ _______ _______ _____ _____    ______ ____
ROOT
ATOM      1  C   UNL     1       1.004   9.263  20.068  0.00  0.00    +0.000 A 
ATOM      2  C   UNL     1       0.937   9.597  18.702  0.00  0.00    +0.000 A 
ATOM      3  C   UNL     1       1.610   8.842  17.743  0.00  0.00    +0.000 A 
ATOM      4  C   UNL     1       2.358   7.741  18.135  0.00  0.00    +0.000 A 
ATOM      5  C   UNL     1       2.427   7.389  19.480  0.00  0.00    +0.000 A 
ATOM      6  C   UNL     1       1.769   8.150  20.454  0.00  0.00    +0.000 A 
ENDROOT
BRANCH   1  13
ATOM      7  C   UNL     1      -1.015  15.565  22.072  0.00  0.00    +0.000 C 
ATOM      8  C   UNL     1      -0.584  14.256  21.473  0.00  0.00    +0.000 C 
ATOM      9  O   UNL     1      -0.109  14.217  20.346  0.00  0.00    +0.000 OA
ATOM     10  N   UNL     1      -0.803  13.198  22.321  0.00  0.00    +0.000 N 
ATOM     11  C   UNL     1      -0.461  11.914  21.999  0.00  0.00    +0.000 A 
ATOM     12  N   UNL     1       0.263  11.451  21.010  0.00  0.00    +0.000 NA
ATOM     13  C   UNL     1       0.286  10.064  21.058  0.00  0.00    +0.000 A 
ATOM     14  C   UNL     1      -0.434   9.514  22.106  0.00  0.00    +0.000 A 
ATOM     15  S   UNL     1      -1.101  10.757  23.081  0.00  0.00    +0.000 S 
ATOM     16  H   UNL     1      -1.313  13.325  23.184  0.00  0.00    +0.000 HD
ENDBRANCH   1  13
BRANCH   5  17
ATOM     17  N   UNL     1       3.228   6.272  19.809  0.00  0.00    +0.000 N 
ATOM     18  H   UNL     1       2.978   5.671  20.592  0.00  0.00    +0.000 HD
BRANCH  17  19
ATOM     19  S   UNL     1       4.323   5.645  18.717  0.00  0.00    +0.000 S 
ATOM     20  O   UNL     1       4.520   6.690  17.730  0.00  0.00    +0.000 OA
ATOM     21  O   UNL     1       5.450   5.083  19.432  0.00  0.00    +0.000 OA
BRANCH  19  22
ATOM     22  C   UNL     1       3.438   4.290  17.897  0.00  0.00    +0.000 A 
ATOM     23  C   UNL     1       4.243   3.426  17.136  0.00  0.00    +0.000 A 
ATOM     24  C   UNL     1       4.217   2.050  17.381  0.00  0.00    +0.000 A 
ATOM     25  C   UNL     1       3.513   1.530  18.481  0.00  0.00    +0.000 A 
ATOM     26  C   UNL     1       2.669   2.421  19.164  0.00  0.00    +0.000 A 
ATOM     27  C   UNL     1       2.386   3.671  18.601  0.00  0.00    +0.000 A 
ATOM     28  C   UNL     1       0.993   3.413  18.260  0.00  0.00    +0.000 A 
ATOM     29  C   UNL     1       0.520   2.447  19.137  0.00  0.00    +0.000 A 
ATOM     30  N   UNL     1       1.579   2.242  20.009  0.00  0.00    +0.000 N 
ATOM     31  C   UNL     1       1.502   2.854  21.346  0.00  0.00    +0.000 C 
ENDBRANCH  19  22
ENDBRANCH  17  19
ENDBRANCH   5  17
TORSDOF 4
ENDMDL
