MODEL 1
REMARK VINA RESULT:      -7.4      0.000      0.000
REMARK  Name = 
REMARK  3 active torsions:
REMARK  status: ('A' for Active; 'I' for Inactive)
REMARK    1  A    between atoms: N_9  and  C_10
REMARK    2  A    between atoms: C_10  and  C_11
REMARK    3  A    between atoms: C_11  and  C_12
REMARK                            x       y       z     vdW  Elec       q    Type
REMARK                         _______ _______ _______ _____ _____    ______ ____
ROOT
ATOM      1  O   UNL     1       3.951   5.530  19.397  0.00  0.00    +0.000 OA
ATOM      2  C   UNL     1       3.397   4.643  18.759  0.00  0.00    +0.000 C 
ATOM      3  C   UNL     1       1.858   4.337  18.661  0.00  0.00    +0.000 C 
ATOM      4  C   UNL     1       1.150   3.701  19.873  0.00  0.00    +0.000 C 
ATOM      5  C   UNL     1       0.683   2.570  18.950  0.00  0.00    +0.000 C 
ATOM      6  C   UNL     1       1.813   2.930  17.989  0.00  0.00    +0.000 C 
ATOM      7  C   UNL     1       3.314   2.492  18.118  0.00  0.00    +0.000 C 
ATOM      8  O   UNL     1       3.770   1.386  18.371  0.00  0.00    +0.000 OA
ATOM      9  N   UNL     1       4.071   3.663  18.042  0.00  0.00    +0.000 N 
ENDROOT
BRANCH   9  10
ATOM     10  C   UNL     1       4.308   4.039  16.648  0.00  0.00    +0.000 C 
BRANCH  10  11
ATOM     11  C   UNL     1       5.765   4.062  16.178  0.00  0.00    +0.000 C 
BRANCH  11  12
ATOM     12  C   UNL     1       6.568   5.094  16.942  0.00  0.00    +0.000 A 
ATOM     13  C   UNL     1       7.299   4.721  18.066  0.00  0.00    +0.000 A 
ATOM     14  C   UNL     1       7.979   5.699  18.783  0.00  0.00    +0.000 A 
ATOM     15  C   UNL     1       7.896   7.023  18.388  0.00  0.00    +0.000 A 
ATOM     16  C   UNL     1       7.128   7.320  17.271  0.00  0.00    +0.000 A 
ATOM     17  N   UNL     1       6.462   6.389  16.550  0.00  0.00    +0.000 NA
ENDBRANCH  11  12
ENDBRANCH  10  11
ENDBRANCH   9  10
TORSDOF 3
ENDMDL
MODEL 2
REMARK VINA RESULT:      -7.3      1.280      1.967
REMARK  Name = 
REMARK  3 active torsions:
REMARK  status: ('A' for Active; 'I' for Inactive)
REMARK    1  A    between atoms: N_9  and  C_10
REMARK    2  A    between atoms: C_10  and  C_11
REMARK    3  A    between atoms: C_11  and  C_12
REMARK                            x       y       z     vdW  Elec       q    Type
REMARK                         _______ _______ _______ _____ _____    ______ ____
ROOT
ATOM      1  O   UNL     1       1.089   4.185  17.130  0.00  0.00    +0.000 OA
ATOM      2  C   UNL     1       1.930   3.941  17.987  0.00  0.00    +0.000 C 
ATOM      3  C   UNL     1       1.756   3.099  19.302  0.00  0.00    +0.000 C 
ATOM      4  C   UNL     1       0.960   3.708  20.473  0.00  0.00    +0.000 C 
ATOM      5  C   UNL     1       2.184   3.481  21.367  0.00  0.00    +0.000 C 
ATOM      6  C   UNL     1       3.051   3.424  20.111  0.00  0.00    +0.000 C 
ATOM      7  C   UNL     1       3.601   4.654  19.308  0.00  0.00    +0.000 C 
ATOM      8  O   UNL     1       4.136   5.668  19.733  0.00  0.00    +0.000 OA
ATOM      9  N   UNL     1       3.221   4.455  17.979  0.00  0.00    +0.000 N 
ENDROOT
BRANCH   9  10
ATOM     10  C   UNL     1       4.175   3.588  17.290  0.00  0.00    +0.000 C 
BRANCH  10  11
ATOM     11  C   UNL     1       5.087   4.251  16.253  0.00  0.00    +0.000 C 
BRANCH  11  12
ATOM     12  C   UNL     1       6.080   5.181  16.917  0.00  0.00    +0.000 A 
ATOM     13  C   UNL     1       6.968   4.692  17.872  0.00  0.00    +0.000 A 
ATOM     14  C   UNL     1       7.829   5.579  18.509  0.00  0.00    +0.000 A 
ATOM     15  C   UNL     1       7.772   6.928  18.207  0.00  0.00    +0.000 A 
ATOM     16  C   UNL     1       6.845   7.344  17.262  0.00  0.00    +0.000 A 
ATOM     17  N   UNL     1       6.000   6.503  16.621  0.00  0.00    +0.000 NA
ENDBRANCH  11  12
ENDBRANCH  10  11
ENDBRANCH   9  10
TORSDOF 3
ENDMDL
MODEL 3
REMARK VINA RESULT:      -7.3      1.424      1.847
REMARK  Name = 
REMARK  3 active torsions:
REMARK  status: ('A' for Active; 'I' for Inactive)
REMARK    1  A    between atoms: N_9  and  C_10
REMARK    2  A    between atoms: C_10  and  C_11
REMARK    3  A    between atoms: C_11  and  C_12
REMARK                            x       y       z     vdW  Elec       q    Type
REMARK                         _______ _______ _______ _____ _____    ______ ____
ROOT
ATOM      1  O   UNL     1       5.037   2.682  19.957  0.00  0.00    +0.000 OA
ATOM      2  C   UNL     1       4.016   3.177  19.495  0.00  0.00    +0.000 C 
ATOM      3  C   UNL     1       2.890   3.963  20.259  0.00  0.00    +0.000 C 
ATOM      4  C   UNL     1       1.919   3.176  21.161  0.00  0.00    +0.000 C 
ATOM      5  C   UNL     1       0.758   3.768  20.353  0.00  0.00    +0.000 C 
ATOM      6  C   UNL     1       1.734   4.044  19.212  0.00  0.00    +0.000 C 
ATOM      7  C   UNL     1       2.230   3.006  18.145  0.00  0.00    +0.000 C 
ATOM      8  O   UNL     1       1.575   2.199  17.500  0.00  0.00    +0.000 OA
ATOM      9  N   UNL     1       3.625   3.057  18.168  0.00  0.00    +0.000 N 
ENDROOT
BRANCH   9  10
ATOM     10  C   UNL     1       4.119   4.147  17.327  0.00  0.00    +0.000 C 
BRANCH  10  11
ATOM     11  C   UNL     1       5.572   4.049  16.854  0.00  0.00    +0.000 C 
BRANCH  11  12
ATOM     12  C   UNL     1       6.424   5.132  17.481  0.00  0.00    +0.000 A 
ATOM     13  C   UNL     1       6.537   6.378  16.869  0.00  0.00    +0.000 A 
ATOM     14  C   UNL     1       7.373   7.333  17.435  0.00  0.00    +0.000 A 
ATOM     15  C   UNL     1       8.096   7.026  18.573  0.00  0.00    +0.000 A 
ATOM     16  C   UNL     1       7.950   5.756  19.113  0.00  0.00    +0.000 A 
ATOM     17  N   UNL     1       7.140   4.808  18.588  0.00  0.00    +0.000 NA
ENDBRANCH  11  12
ENDBRANCH  10  11
ENDBRANCH   9  10
TORSDOF 3
ENDMDL
MODEL 4
REMARK VINA RESULT:      -7.2      1.984      5.770
REMARK  Name = 
REMARK  3 active torsions:
REMARK  status: ('A' for Active; 'I' for Inactive)
REMARK    1  A    between atoms: N_9  and  C_10
REMARK    2  A    between atoms: C_10  and  C_11
REMARK    3  A    between atoms: C_11  and  C_12
REMARK                            x       y       z     vdW  Elec       q    Type
REMARK                         _______ _______ _______ _____ _____    ______ ____
ROOT
ATOM      1  O   UNL     1       5.129   6.889  15.335  0.00  0.00    +0.000 OA
ATOM      2  C   UNL     1       5.659   6.421  16.335  0.00  0.00    +0.000 C 
ATOM      3  C   UNL     1       6.268   7.193  17.560  0.00  0.00    +0.000 C 
ATOM      4  C   UNL     1       7.610   7.929  17.379  0.00  0.00    +0.000 C 
ATOM      5  C   UNL     1       8.164   7.119  18.557  0.00  0.00    +0.000 C 
ATOM      6  C   UNL     1       7.062   6.087  18.324  0.00  0.00    +0.000 C 
ATOM      7  C   UNL     1       7.078   4.941  17.253  0.00  0.00    +0.000 C 
ATOM      8  O   UNL     1       7.980   4.163  16.977  0.00  0.00    +0.000 OA
ATOM      9  N   UNL     1       5.889   5.065  16.530  0.00  0.00    +0.000 N 
ENDROOT
BRANCH   9  10
ATOM     10  C   UNL     1       4.789   4.393  17.222  0.00  0.00    +0.000 C 
BRANCH  10  11
ATOM     11  C   UNL     1       3.545   5.236  17.519  0.00  0.00    +0.000 C 
BRANCH  11  12
ATOM     12  C   UNL     1       2.513   4.434  18.283  0.00  0.00    +0.000 A 
ATOM     13  C   UNL     1       2.104   4.844  19.550  0.00  0.00    +0.000 A 
ATOM     14  C   UNL     1       1.200   4.056  20.254  0.00  0.00    +0.000 A 
ATOM     15  C   UNL     1       0.745   2.872  19.702  0.00  0.00    +0.000 A 
ATOM     16  C   UNL     1       1.216   2.517  18.446  0.00  0.00    +0.000 A 
ATOM     17  N   UNL     1       2.090   3.267  17.735  0.00  0.00    +0.000 NA
ENDBRANCH  11  12
ENDBRANCH  10  11
ENDBRANCH   9  10
TORSDOF 3
ENDMDL
MODEL 5
REMARK VINA RESULT:      -7.2      1.195      1.373
REMARK  Name = 
REMARK  3 active torsions:
REMARK  status: ('A' for Active; 'I' for Inactive)
REMARK    1  A    between atoms: N_9  and  C_10
REMARK    2  A    between atoms: C_10  and  C_11
REMARK    3  A    between atoms: C_11  and  C_12
REMARK                            x       y       z     vdW  Elec       q    Type
REMARK                         _______ _______ _______ _____ _____    ______ ____
ROOT
ATOM      1  O   UNL     1       5.208   2.916  19.864  0.00  0.00    +0.000 OA
ATOM      2  C   UNL     1       4.158   3.352  19.409  0.00  0.00    +0.000 C 
ATOM      3  C   UNL     1       2.952   3.985  20.192  0.00  0.00    +0.000 C 
ATOM      4  C   UNL     1       2.036   3.060  21.016  0.00  0.00    +0.000 C 
ATOM      5  C   UNL     1       0.844   3.602  20.219  0.00  0.00    +0.000 C 
ATOM      6  C   UNL     1       1.815   4.037  19.124  0.00  0.00    +0.000 C 
ATOM      7  C   UNL     1       2.420   3.119  18.004  0.00  0.00    +0.000 C 
ATOM      8  O   UNL     1       1.852   2.304  17.292  0.00  0.00    +0.000 OA
ATOM      9  N   UNL     1       3.806   3.288  18.066  0.00  0.00    +0.000 N 
ENDROOT
BRANCH   9  10
ATOM     10  C   UNL     1       4.219   4.470  17.311  0.00  0.00    +0.000 C 
BRANCH  10  11
ATOM     11  C   UNL     1       5.601   4.419  16.653  0.00  0.00    +0.000 C 
BRANCH  11  12
ATOM     12  C   UNL     1       6.528   5.457  17.249  0.00  0.00    +0.000 A 
ATOM     13  C   UNL     1       7.250   5.171  18.405  0.00  0.00    +0.000 A 
ATOM     14  C   UNL     1       8.047   6.163  18.964  0.00  0.00    +0.000 A 
ATOM     15  C   UNL     1       8.089   7.419  18.384  0.00  0.00    +0.000 A 
ATOM     16  C   UNL     1       7.324   7.636  17.248  0.00  0.00    +0.000 A 
ATOM     17  N   UNL     1       6.544   6.688  16.678  0.00  0.00    +0.000 NA
ENDBRANCH  11  12
ENDBRANCH  10  11
ENDBRANCH   9  10
TORSDOF 3
ENDMDL
MODEL 6
REMARK VINA RESULT:      -7.2      0.954      1.332
REMARK  Name = 
REMARK  3 active torsions:
REMARK  status: ('A' for Active; 'I' for Inactive)
REMARK    1  A    between atoms: N_9  and  C_10
REMARK    2  A    between atoms: C_10  and  C_11
REMARK    3  A    between atoms: C_11  and  C_12
REMARK                            x       y       z     vdW  Elec       q    Type
REMARK                         _______ _______ _______ _____ _____    ______ ____
ROOT
ATOM      1  O   UNL     1       3.273   6.214  18.315  0.00  0.00    +0.000 OA
ATOM      2  C   UNL     1       3.124   5.012  18.130  0.00  0.00    +0.000 C 
ATOM      3  C   UNL     1       1.782   4.196  18.104  0.00  0.00    +0.000 C 
ATOM      4  C   UNL     1       1.051   3.929  19.434  0.00  0.00    +0.000 C 
ATOM      5  C   UNL     1       1.108   2.430  19.114  0.00  0.00    +0.000 C 
ATOM      6  C   UNL     1       2.262   2.712  18.155  0.00  0.00    +0.000 C 
ATOM      7  C   UNL     1       3.769   2.902  18.549  0.00  0.00    +0.000 C 
ATOM      8  O   UNL     1       4.453   2.229  19.308  0.00  0.00    +0.000 OA
ATOM      9  N   UNL     1       4.172   4.113  17.981  0.00  0.00    +0.000 N 
ENDROOT
BRANCH   9  10
ATOM     10  C   UNL     1       4.568   3.925  16.586  0.00  0.00    +0.000 C 
BRANCH  10  11
ATOM     11  C   UNL     1       6.064   4.027  16.274  0.00  0.00    +0.000 C 
BRANCH  11  12
ATOM     12  C   UNL     1       6.734   5.063  17.152  0.00  0.00    +0.000 A 
ATOM     13  C   UNL     1       6.793   6.394  16.747  0.00  0.00    +0.000 A 
ATOM     14  C   UNL     1       7.466   7.312  17.544  0.00  0.00    +0.000 A 
ATOM     15  C   UNL     1       8.087   6.888  18.705  0.00  0.00    +0.000 A 
ATOM     16  C   UNL     1       8.006   5.542  19.032  0.00  0.00    +0.000 A 
ATOM     17  N   UNL     1       7.353   4.627  18.279  0.00  0.00    +0.000 NA
ENDBRANCH  11  12
ENDBRANCH  10  11
ENDBRANCH   9  10
TORSDOF 3
ENDMDL
MODEL 7
REMARK VINA RESULT:      -7.0      1.733      2.509
REMARK  Name = 
REMARK  3 active torsions:
REMARK  status: ('A' for Active; 'I' for Inactive)
REMARK    1  A    between atoms: N_9  and  C_10
REMARK    2  A    between atoms: C_10  and  C_11
REMARK    3  A    between atoms: C_11  and  C_12
REMARK                            x       y       z     vdW  Elec       q    Type
REMARK                         _______ _______ _______ _____ _____    ______ ____
ROOT
ATOM      1  O   UNL     1       0.736   3.768  17.466  0.00  0.00    +0.000 OA
ATOM      2  C   UNL     1       1.605   3.985  18.302  0.00  0.00    +0.000 C 
ATOM      3  C   UNL     1       1.949   3.144  19.584  0.00  0.00    +0.000 C 
ATOM      4  C   UNL     1       0.989   3.204  20.788  0.00  0.00    +0.000 C 
ATOM      5  C   UNL     1       2.175   3.638  21.657  0.00  0.00    +0.000 C 
ATOM      6  C   UNL     1       2.898   4.086  20.388  0.00  0.00    +0.000 C 
ATOM      7  C   UNL     1       2.684   5.441  19.629  0.00  0.00    +0.000 C 
ATOM      8  O   UNL     1       2.612   6.573  20.087  0.00  0.00    +0.000 OA
ATOM      9  N   UNL     1       2.424   5.107  18.297  0.00  0.00    +0.000 N 
ENDROOT
BRANCH   9  10
ATOM     10  C   UNL     1       3.671   4.900  17.561  0.00  0.00    +0.000 C 
BRANCH  10  11
ATOM     11  C   UNL     1       4.335   6.145  16.965  0.00  0.00    +0.000 C 
BRANCH  11  12
ATOM     12  C   UNL     1       5.724   6.347  17.532  0.00  0.00    +0.000 A 
ATOM     13  C   UNL     1       6.175   5.550  18.581  0.00  0.00    +0.000 A 
ATOM     14  C   UNL     1       7.432   5.796  19.122  0.00  0.00    +0.000 A 
ATOM     15  C   UNL     1       8.198   6.838  18.632  0.00  0.00    +0.000 A 
ATOM     16  C   UNL     1       7.672   7.603  17.602  0.00  0.00    +0.000 A 
ATOM     17  N   UNL     1       6.456   7.384  17.052  0.00  0.00    +0.000 NA
ENDBRANCH  11  12
ENDBRANCH  10  11
ENDBRANCH   9  10
TORSDOF 3
ENDMDL
MODEL 8
REMARK VINA RESULT:      -7.0      2.124      3.136
REMARK  Name = 
REMARK  3 active torsions:
REMARK  status: ('A' for Active; 'I' for Inactive)
REMARK    1  A    between atoms: N_9  and  C_10
REMARK    2  A    between atoms: C_10  and  C_11
REMARK    3  A    between atoms: C_11  and  C_12
REMARK                            x       y       z     vdW  Elec       q    Type
REMARK                         _______ _______ _______ _____ _____    ______ ____
ROOT
ATOM      1  O   UNL     1       5.403   5.451  19.250  0.00  0.00    +0.000 OA
ATOM      2  C   UNL     1       4.484   4.878  18.677  0.00  0.00    +0.000 C 
ATOM      3  C   UNL     1       2.940   5.104  18.858  0.00  0.00    +0.000 C 
ATOM      4  C   UNL     1       2.260   4.590  20.142  0.00  0.00    +0.000 C 
ATOM      5  C   UNL     1       1.292   3.794  19.260  0.00  0.00    +0.000 C 
ATOM      6  C   UNL     1       2.308   3.882  18.123  0.00  0.00    +0.000 C 
ATOM      7  C   UNL     1       3.568   2.967  17.933  0.00  0.00    +0.000 C 
ATOM      8  O   UNL     1       3.652   1.750  18.026  0.00  0.00    +0.000 OA
ATOM      9  N   UNL     1       4.658   3.828  17.785  0.00  0.00    +0.000 N 
ENDROOT
BRANCH   9  10
ATOM     10  C   UNL     1       4.782   4.274  16.397  0.00  0.00    +0.000 C 
BRANCH  10  11
ATOM     11  C   UNL     1       6.052   5.048  16.033  0.00  0.00    +0.000 C 
BRANCH  11  12
ATOM     12  C   UNL     1       6.450   4.796  14.594  0.00  0.00    +0.000 A 
ATOM     13  C   UNL     1       5.773   3.844  13.836  0.00  0.00    +0.000 A 
ATOM     14  C   UNL     1       6.198   3.590  12.537  0.00  0.00    +0.000 A 
ATOM     15  C   UNL     1       7.295   4.263  12.030  0.00  0.00    +0.000 A 
ATOM     16  C   UNL     1       7.933   5.180  12.853  0.00  0.00    +0.000 A 
ATOM     17  N   UNL     1       7.539   5.452  14.118  0.00  0.00    +0.000 NA
ENDBRANCH  11  12
ENDBRANCH  10  11
ENDBRANCH   9  10
TORSDOF 3
ENDMDL
MODEL 9
REMARK VINA RESULT:      -7.0      2.128      5.596
REMARK  Name = 
REMARK  3 active torsions:
REMARK  status: ('A' for Active; 'I' for Inactive)
REMARK    1  A    between atoms: N_9  and  C_10
REMARK    2  A    between atoms: C_10  and  C_11
REMARK    3  A    between atoms: C_11  and  C_12
REMARK                            x       y       z     vdW  Elec       q    Type
REMARK                         _______ _______ _______ _____ _____    ______ ____
ROOT
ATOM      1  O   UNL     1       5.276   6.565  15.193  0.00  0.00    +0.000 OA
ATOM      2  C   UNL     1       5.760   6.184  16.252  0.00  0.00    +0.000 C 
ATOM      3  C   UNL     1       6.253   7.057  17.462  0.00  0.00    +0.000 C 
ATOM      4  C   UNL     1       7.570   7.845  17.319  0.00  0.00    +0.000 C 
ATOM      5  C   UNL     1       8.080   7.135  18.578  0.00  0.00    +0.000 C 
ATOM      6  C   UNL     1       7.043   6.039  18.342  0.00  0.00    +0.000 C 
ATOM      7  C   UNL     1       7.180   4.833  17.348  0.00  0.00    +0.000 C 
ATOM      8  O   UNL     1       8.133   4.084  17.179  0.00  0.00    +0.000 OA
ATOM      9  N   UNL     1       6.037   4.855  16.546  0.00  0.00    +0.000 N 
ENDROOT
BRANCH   9  10
ATOM     10  C   UNL     1       4.925   4.174  17.209  0.00  0.00    +0.000 C 
BRANCH  10  11
ATOM     11  C   UNL     1       5.055   3.950  18.719  0.00  0.00    +0.000 C 
BRANCH  11  12
ATOM     12  C   UNL     1       3.695   3.901  19.381  0.00  0.00    +0.000 A 
ATOM     13  C   UNL     1       3.156   5.048  19.959  0.00  0.00    +0.000 A 
ATOM     14  C   UNL     1       1.932   4.961  20.614  0.00  0.00    +0.000 A 
ATOM     15  C   UNL     1       1.287   3.741  20.704  0.00  0.00    +0.000 A 
ATOM     16  C   UNL     1       1.897   2.638  20.124  0.00  0.00    +0.000 A 
ATOM     17  N   UNL     1       3.083   2.693  19.476  0.00  0.00    +0.000 NA
ENDBRANCH  11  12
ENDBRANCH  10  11
ENDBRANCH   9  10
TORSDOF 3
ENDMDL
