MODEL 1
REMARK VINA RESULT:      -7.8      0.000      0.000
REMARK  Name = 
REMARK  2 active torsions:
REMARK  status: ('A' for Active; 'I' for Inactive)
REMARK    1  A    between atoms: C_2  and  C_3
REMARK    2  A    between atoms: C_3  and  C_4
REMARK                            x       y       z     vdW  Elec       q    Type
REMARK                         _______ _______ _______ _____ _____    ______ ____
ROOT
ATOM      1  O   UNL     1       7.553   6.460  16.587  0.00  0.00    +0.000 OA
ATOM      2  C   UNL     1       6.381   6.100  16.753  0.00  0.00    +0.000 C 
ATOM      3  N   UNL     1       5.946   5.894  18.029  0.00  0.00    +0.000 N 
ATOM      4  C   UNL     1       4.774   5.301  18.371  0.00  0.00    +0.000 A 
ATOM      5  N   UNL     1       3.925   4.647  17.611  0.00  0.00    +0.000 NA
ATOM      6  C   UNL     1       2.931   4.275  18.466  0.00  0.00    +0.000 A 
ATOM      7  C   UNL     1       1.763   3.539  18.238  0.00  0.00    +0.000 A 
ATOM      8  C   UNL     1       0.879   3.371  19.311  0.00  0.00    +0.000 A 
ATOM      9  C   UNL     1       1.157   3.919  20.570  0.00  0.00    +0.000 A 
ATOM     10  C   UNL     1       2.342   4.629  20.818  0.00  0.00    +0.000 A 
ATOM     11  C   UNL     1       3.195   4.766  19.731  0.00  0.00    +0.000 A 
ATOM     12  O   UNL     1       4.411   5.392  19.685  0.00  0.00    +0.000 OA
ATOM     13  H   UNL     1       6.574   6.147  18.775  0.00  0.00    +0.000 HD
ENDROOT
BRANCH   2  14
ATOM     14  C   UNL     1       5.432   5.987  15.563  0.00  0.00    +0.000 C 
BRANCH  14  15
ATOM     15  C   UNL     1       5.916   5.100  14.440  0.00  0.00    +0.000 A 
ATOM     16  C   UNL     1       5.092   4.082  13.934  0.00  0.00    +0.000 A 
ATOM     17  C   UNL     1       5.531   3.256  12.898  0.00  0.00    +0.000 A 
ATOM     18  C   UNL     1       6.789   3.462  12.341  0.00  0.00    +0.000 A 
ATOM     19 CL   UNL     1       7.331   2.448  11.061  0.00  0.00    +0.000 Cl
ATOM     20  C   UNL     1       7.609   4.486  12.811  0.00  0.00    +0.000 A 
ATOM     21  C   UNL     1       7.174   5.303  13.859  0.00  0.00    +0.000 A 
ENDBRANCH  14  15
ENDBRANCH   2  14
TORSDOF 2
ENDMDL
MODEL 2
REMARK VINA RESULT:      -7.8      4.069      7.236
REMARK  Name = 
REMARK  2 active torsions:
REMARK  status: ('A' for Active; 'I' for Inactive)
REMARK    1  A    between atoms: C_2  and  C_3
REMARK    2  A    between atoms: C_3  and  C_4
REMARK                            x       y       z     vdW  Elec       q    Type
REMARK                         _______ _______ _______ _____ _____    ______ ____
ROOT
ATOM      1  O   UNL     1       0.698   4.105  20.338  0.00  0.00    +0.000 OA
ATOM      2  C   UNL     1       1.753   4.522  19.845  0.00  0.00    +0.000 C 
ATOM      3  N   UNL     1       2.186   3.959  18.682  0.00  0.00    +0.000 N 
ATOM      4  C   UNL     1       3.410   4.146  18.128  0.00  0.00    +0.000 A 
ATOM      5  N   UNL     1       4.473   4.719  18.646  0.00  0.00    +0.000 NA
ATOM      6  C   UNL     1       5.411   4.637  17.661  0.00  0.00    +0.000 A 
ATOM      7  C   UNL     1       6.744   5.060  17.635  0.00  0.00    +0.000 A 
ATOM      8  C   UNL     1       7.454   4.904  16.438  0.00  0.00    +0.000 A 
ATOM      9  C   UNL     1       6.850   4.340  15.306  0.00  0.00    +0.000 A 
ATOM     10  C   UNL     1       5.524   3.881  15.332  0.00  0.00    +0.000 A 
ATOM     11  C   UNL     1       4.858   4.046  16.539  0.00  0.00    +0.000 A 
ATOM     12  O   UNL     1       3.575   3.684  16.853  0.00  0.00    +0.000 OA
ATOM     13  H   UNL     1       1.568   3.303  18.231  0.00  0.00    +0.000 HD
ENDROOT
BRANCH   2  14
ATOM     14  C   UNL     1       2.488   5.701  20.477  0.00  0.00    +0.000 C 
BRANCH  14  15
ATOM     15  C   UNL     1       2.008   7.065  20.039  0.00  0.00    +0.000 A 
ATOM     16  C   UNL     1       1.285   7.881  20.923  0.00  0.00    +0.000 A 
ATOM     17  C   UNL     1       0.834   9.141  20.526  0.00  0.00    +0.000 A 
ATOM     18  C   UNL     1       1.130   9.606  19.249  0.00  0.00    +0.000 A 
ATOM     19 CL   UNL     1       0.580  11.161  18.759  0.00  0.00    +0.000 Cl
ATOM     20  C   UNL     1       1.872   8.822  18.368  0.00  0.00    +0.000 A 
ATOM     21  C   UNL     1       2.309   7.554  18.762  0.00  0.00    +0.000 A 
ENDBRANCH  14  15
ENDBRANCH   2  14
TORSDOF 2
ENDMDL
MODEL 3
REMARK VINA RESULT:      -7.8      3.279      4.542
REMARK  Name = 
REMARK  2 active torsions:
REMARK  status: ('A' for Active; 'I' for Inactive)
REMARK    1  A    between atoms: C_2  and  C_3
REMARK    2  A    between atoms: C_3  and  C_4
REMARK                            x       y       z     vdW  Elec       q    Type
REMARK                         _______ _______ _______ _____ _____    ______ ____
ROOT
ATOM      1  O   UNL     1       6.728   4.278  15.068  0.00  0.00    +0.000 OA
ATOM      2  C   UNL     1       6.147   4.150  16.153  0.00  0.00    +0.000 C 
ATOM      3  N   UNL     1       4.832   3.791  16.140  0.00  0.00    +0.000 N 
ATOM      4  C   UNL     1       4.002   3.815  17.213  0.00  0.00    +0.000 A 
ATOM      5  N   UNL     1       4.200   4.344  18.399  0.00  0.00    +0.000 NA
ATOM      6  C   UNL     1       3.051   4.074  19.081  0.00  0.00    +0.000 A 
ATOM      7  C   UNL     1       2.668   4.404  20.385  0.00  0.00    +0.000 A 
ATOM      8  C   UNL     1       1.436   3.921  20.844  0.00  0.00    +0.000 A 
ATOM      9  C   UNL     1       0.614   3.138  20.022  0.00  0.00    +0.000 A 
ATOM     10  C   UNL     1       0.973   2.832  18.701  0.00  0.00    +0.000 A 
ATOM     11  C   UNL     1       2.198   3.335  18.282  0.00  0.00    +0.000 A 
ATOM     12  O   UNL     1       2.790   3.204  17.055  0.00  0.00    +0.000 OA
ATOM     13  H   UNL     1       4.431   3.547  15.248  0.00  0.00    +0.000 HD
ENDROOT
BRANCH   2  14
ATOM     14  C   UNL     1       6.917   4.298  17.462  0.00  0.00    +0.000 C 
BRANCH  14  15
ATOM     15  C   UNL     1       7.382   5.700  17.778  0.00  0.00    +0.000 A 
ATOM     16  C   UNL     1       8.089   5.964  18.961  0.00  0.00    +0.000 A 
ATOM     17  C   UNL     1       8.520   7.257  19.263  0.00  0.00    +0.000 A 
ATOM     18  C   UNL     1       8.271   8.291  18.367  0.00  0.00    +0.000 A 
ATOM     19 CL   UNL     1       8.805   9.885  18.734  0.00  0.00    +0.000 Cl
ATOM     20  C   UNL     1       7.596   8.043  17.174  0.00  0.00    +0.000 A 
ATOM     21  C   UNL     1       7.151   6.751  16.880  0.00  0.00    +0.000 A 
ENDBRANCH  14  15
ENDBRANCH   2  14
TORSDOF 2
ENDMDL
MODEL 4
REMARK VINA RESULT:      -7.8      0.077      1.082
REMARK  Name = 
REMARK  2 active torsions:
REMARK  status: ('A' for Active; 'I' for Inactive)
REMARK    1  A    between atoms: C_2  and  C_3
REMARK    2  A    between atoms: C_3  and  C_4
REMARK                            x       y       z     vdW  Elec       q    Type
REMARK                         _______ _______ _______ _____ _____    ______ ____
ROOT
ATOM      1  O   UNL     1       7.553   6.480  16.649  0.00  0.00    +0.000 OA
ATOM      2  C   UNL     1       6.380   6.117  16.800  0.00  0.00    +0.000 C 
ATOM      3  N   UNL     1       5.942   5.867  18.066  0.00  0.00    +0.000 N 
ATOM      4  C   UNL     1       4.769   5.265  18.386  0.00  0.00    +0.000 A 
ATOM      5  N   UNL     1       3.920   4.640  17.602  0.00  0.00    +0.000 NA
ATOM      6  C   UNL     1       2.923   4.240  18.441  0.00  0.00    +0.000 A 
ATOM      7  C   UNL     1       1.754   3.515  18.186  0.00  0.00    +0.000 A 
ATOM      8  C   UNL     1       0.868   3.311  19.251  0.00  0.00    +0.000 A 
ATOM      9  C   UNL     1       1.145   3.815  20.529  0.00  0.00    +0.000 A 
ATOM     10  C   UNL     1       2.331   4.513  20.804  0.00  0.00    +0.000 A 
ATOM     11  C   UNL     1       3.186   4.687  19.724  0.00  0.00    +0.000 A 
ATOM     12  O   UNL     1       4.404   5.311  19.702  0.00  0.00    +0.000 OA
ATOM     13  H   UNL     1       6.569   6.093  18.822  0.00  0.00    +0.000 HD
ENDROOT
BRANCH   2  14
ATOM     14  C   UNL     1       5.433   6.047  15.605  0.00  0.00    +0.000 C 
BRANCH  14  15
ATOM     15  C   UNL     1       5.884   5.145  14.481  0.00  0.00    +0.000 A 
ATOM     16  C   UNL     1       7.169   5.283  13.932  0.00  0.00    +0.000 A 
ATOM     17  C   UNL     1       7.594   4.456  12.890  0.00  0.00    +0.000 A 
ATOM     18  C   UNL     1       6.745   3.466  12.409  0.00  0.00    +0.000 A 
ATOM     19 CL   UNL     1       7.268   2.442  11.129  0.00  0.00    +0.000 Cl
ATOM     20  C   UNL     1       5.477   3.294  12.961  0.00  0.00    +0.000 A 
ATOM     21  C   UNL     1       5.047   4.133  13.994  0.00  0.00    +0.000 A 
ENDBRANCH  14  15
ENDBRANCH   2  14
TORSDOF 2
ENDMDL
MODEL 5
REMARK VINA RESULT:      -7.8      1.225      1.245
REMARK  Name = 
REMARK  2 active torsions:
REMARK  status: ('A' for Active; 'I' for Inactive)
REMARK    1  A    between atoms: C_2  and  C_3
REMARK    2  A    between atoms: C_3  and  C_4
REMARK                            x       y       z     vdW  Elec       q    Type
REMARK                         _______ _______ _______ _____ _____    ______ ____
ROOT
ATOM      1  O   UNL     1       8.182   4.513  17.429  0.00  0.00    +0.000 OA
ATOM      2  C   UNL     1       6.950   4.546  17.535  0.00  0.00    +0.000 C 
ATOM      3  N   UNL     1       6.386   4.016  18.657  0.00  0.00    +0.000 N 
ATOM      4  C   UNL     1       5.062   3.781  18.833  0.00  0.00    +0.000 A 
ATOM      5  N   UNL     1       4.090   3.819  17.948  0.00  0.00    +0.000 NA
ATOM      6  C   UNL     1       2.974   3.508  18.665  0.00  0.00    +0.000 A 
ATOM      7  C   UNL     1       1.641   3.375  18.262  0.00  0.00    +0.000 A 
ATOM      8  C   UNL     1       0.684   3.113  19.250  0.00  0.00    +0.000 A 
ATOM      9  C   UNL     1       1.051   2.984  20.597  0.00  0.00    +0.000 A 
ATOM     10  C   UNL     1       2.390   3.079  21.006  0.00  0.00    +0.000 A 
ATOM     11  C   UNL     1       3.308   3.333  19.996  0.00  0.00    +0.000 A 
ATOM     12  O   UNL     1       4.666   3.463  20.101  0.00  0.00    +0.000 OA
ATOM     13  H   UNL     1       7.012   3.718  19.389  0.00  0.00    +0.000 HD
ENDROOT
BRANCH   2  14
ATOM     14  C   UNL     1       6.103   5.250  16.478  0.00  0.00    +0.000 C 
BRANCH  14  15
ATOM     15  C   UNL     1       6.348   4.801  15.057  0.00  0.00    +0.000 A 
ATOM     16  C   UNL     1       5.483   3.881  14.444  0.00  0.00    +0.000 A 
ATOM     17  C   UNL     1       5.703   3.457  13.132  0.00  0.00    +0.000 A 
ATOM     18  C   UNL     1       6.776   3.974  12.414  0.00  0.00    +0.000 A 
ATOM     19 CL   UNL     1       7.046   3.457  10.795  0.00  0.00    +0.000 Cl
ATOM     20  C   UNL     1       7.628   4.910  12.996  0.00  0.00    +0.000 A 
ATOM     21  C   UNL     1       7.416   5.321  14.315  0.00  0.00    +0.000 A 
ENDBRANCH  14  15
ENDBRANCH   2  14
TORSDOF 2
ENDMDL
MODEL 6
REMARK VINA RESULT:      -7.8      4.084      7.264
REMARK  Name = 
REMARK  2 active torsions:
REMARK  status: ('A' for Active; 'I' for Inactive)
REMARK    1  A    between atoms: C_2  and  C_3
REMARK    2  A    between atoms: C_3  and  C_4
REMARK                            x       y       z     vdW  Elec       q    Type
REMARK                         _______ _______ _______ _____ _____    ______ ____
ROOT
ATOM      1  O   UNL     1       0.859   4.212  20.298  0.00  0.00    +0.000 OA
ATOM      2  C   UNL     1       1.885   4.636  19.753  0.00  0.00    +0.000 C 
ATOM      3  N   UNL     1       2.271   4.064  18.577  0.00  0.00    +0.000 N 
ATOM      4  C   UNL     1       3.466   4.259  17.965  0.00  0.00    +0.000 A 
ATOM      5  N   UNL     1       4.545   4.850  18.428  0.00  0.00    +0.000 NA
ATOM      6  C   UNL     1       5.437   4.767  17.401  0.00  0.00    +0.000 A 
ATOM      7  C   UNL     1       6.763   5.205  17.309  0.00  0.00    +0.000 A 
ATOM      8  C   UNL     1       7.419   5.044  16.082  0.00  0.00    +0.000 A 
ATOM      9  C   UNL     1       6.770   4.461  14.986  0.00  0.00    +0.000 A 
ATOM     10  C   UNL     1       5.453   3.987  15.078  0.00  0.00    +0.000 A 
ATOM     11  C   UNL     1       4.840   4.158  16.312  0.00  0.00    +0.000 A 
ATOM     12  O   UNL     1       3.578   3.785  16.689  0.00  0.00    +0.000 OA
ATOM     13  H   UNL     1       1.641   3.396  18.162  0.00  0.00    +0.000 HD
ENDROOT
BRANCH   2  14
ATOM     14  C   UNL     1       2.634   5.830  20.338  0.00  0.00    +0.000 C 
BRANCH  14  15
ATOM     15  C   UNL     1       2.096   7.183  19.937  0.00  0.00    +0.000 A 
ATOM     16  C   UNL     1       2.314   7.678  18.642  0.00  0.00    +0.000 A 
ATOM     17  C   UNL     1       1.824   8.929  18.262  0.00  0.00    +0.000 A 
ATOM     18  C   UNL     1       1.087   9.682  19.170  0.00  0.00    +0.000 A 
ATOM     19 CL   UNL     1       0.477  11.222  18.704  0.00  0.00    +0.000 Cl
ATOM     20  C   UNL     1       0.836   9.195  20.451  0.00  0.00    +0.000 A 
ATOM     21  C   UNL     1       1.340   7.948  20.834  0.00  0.00    +0.000 A 
ENDBRANCH  14  15
ENDBRANCH   2  14
TORSDOF 2
ENDMDL
MODEL 7
REMARK VINA RESULT:      -7.8      1.227      1.648
REMARK  Name = 
REMARK  2 active torsions:
REMARK  status: ('A' for Active; 'I' for Inactive)
REMARK    1  A    between atoms: C_2  and  C_3
REMARK    2  A    between atoms: C_3  and  C_4
REMARK                            x       y       z     vdW  Elec       q    Type
REMARK                         _______ _______ _______ _____ _____    ______ ____
ROOT
ATOM      1  O   UNL     1       8.148   4.515  17.443  0.00  0.00    +0.000 OA
ATOM      2  C   UNL     1       6.916   4.548  17.557  0.00  0.00    +0.000 C 
ATOM      3  N   UNL     1       6.361   4.016  18.683  0.00  0.00    +0.000 N 
ATOM      4  C   UNL     1       5.038   3.782  18.869  0.00  0.00    +0.000 A 
ATOM      5  N   UNL     1       4.060   3.823  17.993  0.00  0.00    +0.000 NA
ATOM      6  C   UNL     1       2.948   3.511  18.717  0.00  0.00    +0.000 A 
ATOM      7  C   UNL     1       1.612   3.380  18.325  0.00  0.00    +0.000 A 
ATOM      8  C   UNL     1       0.663   3.117  19.320  0.00  0.00    +0.000 A 
ATOM      9  C   UNL     1       1.041   2.985  20.663  0.00  0.00    +0.000 A 
ATOM     10  C   UNL     1       2.382   3.079  21.063  0.00  0.00    +0.000 A 
ATOM     11  C   UNL     1       3.292   3.333  20.045  0.00  0.00    +0.000 A 
ATOM     12  O   UNL     1       4.652   3.462  20.140  0.00  0.00    +0.000 OA
ATOM     13  H   UNL     1       6.992   3.717  19.410  0.00  0.00    +0.000 HD
ENDROOT
BRANCH   2  14
ATOM     14  C   UNL     1       6.062   5.254  16.509  0.00  0.00    +0.000 C 
BRANCH  14  15
ATOM     15  C   UNL     1       6.290   4.802  15.086  0.00  0.00    +0.000 A 
ATOM     16  C   UNL     1       7.395   5.274  14.360  0.00  0.00    +0.000 A 
ATOM     17  C   UNL     1       7.613   4.865  13.043  0.00  0.00    +0.000 A 
ATOM     18  C   UNL     1       6.740   3.957  12.452  0.00  0.00    +0.000 A 
ATOM     19 CL   UNL     1       7.009   3.448  10.831  0.00  0.00    +0.000 Cl
ATOM     20  C   UNL     1       5.654   3.456  13.167  0.00  0.00    +0.000 A 
ATOM     21  C   UNL     1       5.429   3.878  14.480  0.00  0.00    +0.000 A 
ENDBRANCH  14  15
ENDBRANCH   2  14
TORSDOF 2
ENDMDL
MODEL 8
REMARK VINA RESULT:      -7.7      3.196      4.393
REMARK  Name = 
REMARK  2 active torsions:
REMARK  status: ('A' for Active; 'I' for Inactive)
REMARK    1  A    between atoms: C_2  and  C_3
REMARK    2  A    between atoms: C_3  and  C_4
REMARK                            x       y       z     vdW  Elec       q    Type
REMARK                         _______ _______ _______ _____ _____    ______ ____
ROOT
ATOM      1  O   UNL     1       6.280   4.165  14.693  0.00  0.00    +0.000 OA
ATOM      2  C   UNL     1       5.807   4.016  15.827  0.00  0.00    +0.000 C 
ATOM      3  N   UNL     1       4.472   3.763  15.938  0.00  0.00    +0.000 N 
ATOM      4  C   UNL     1       3.763   3.785  17.095  0.00  0.00    +0.000 A 
ATOM      5  N   UNL     1       4.128   4.222  18.279  0.00  0.00    +0.000 NA
ATOM      6  C   UNL     1       3.037   4.001  19.067  0.00  0.00    +0.000 A 
ATOM      7  C   UNL     1       2.821   4.277  20.421  0.00  0.00    +0.000 A 
ATOM      8  C   UNL     1       1.607   3.866  20.985  0.00  0.00    +0.000 A 
ATOM      9  C   UNL     1       0.641   3.202  20.216  0.00  0.00    +0.000 A 
ATOM     10  C   UNL     1       0.833   2.952  18.849  0.00  0.00    +0.000 A 
ATOM     11  C   UNL     1       2.046   3.382  18.327  0.00  0.00    +0.000 A 
ATOM     12  O   UNL     1       2.494   3.283  17.038  0.00  0.00    +0.000 OA
ATOM     13  H   UNL     1       3.961   3.608  15.084  0.00  0.00    +0.000 HD
ENDROOT
BRANCH   2  14
ATOM     14  C   UNL     1       6.718   4.021  17.051  0.00  0.00    +0.000 C 
BRANCH  14  15
ATOM     15  C   UNL     1       7.220   5.382  17.471  0.00  0.00    +0.000 A 
ATOM     16  C   UNL     1       7.042   6.494  16.633  0.00  0.00    +0.000 A 
ATOM     17  C   UNL     1       7.506   7.756  17.011  0.00  0.00    +0.000 A 
ATOM     18  C   UNL     1       8.126   7.918  18.245  0.00  0.00    +0.000 A 
ATOM     19 CL   UNL     1       8.694   9.473  18.715  0.00  0.00    +0.000 Cl
ATOM     20  C   UNL     1       8.286   6.832  19.102  0.00  0.00    +0.000 A 
ATOM     21  C   UNL     1       7.835   5.566  18.716  0.00  0.00    +0.000 A 
ENDBRANCH  14  15
ENDBRANCH   2  14
TORSDOF 2
ENDMDL
MODEL 9
REMARK VINA RESULT:      -7.7      3.025      6.774
REMARK  Name = 
REMARK  2 active torsions:
REMARK  status: ('A' for Active; 'I' for Inactive)
REMARK    1  A    between atoms: C_2  and  C_3
REMARK    2  A    between atoms: C_3  and  C_4
REMARK                            x       y       z     vdW  Elec       q    Type
REMARK                         _______ _______ _______ _____ _____    ______ ____
ROOT
ATOM      1  O   UNL     1       7.251   6.082  19.313  0.00  0.00    +0.000 OA
ATOM      2  C   UNL     1       7.025   5.374  18.323  0.00  0.00    +0.000 C 
ATOM      3  N   UNL     1       7.461   5.810  17.108  0.00  0.00    +0.000 N 
ATOM      4  C   UNL     1       7.117   5.270  15.911  0.00  0.00    +0.000 A 
ATOM      5  N   UNL     1       6.186   4.382  15.642  0.00  0.00    +0.000 NA
ATOM      6  C   UNL     1       6.279   4.200  14.295  0.00  0.00    +0.000 A 
ATOM      7  C   UNL     1       5.536   3.387  13.432  0.00  0.00    +0.000 A 
ATOM      8  C   UNL     1       5.911   3.351  12.084  0.00  0.00    +0.000 A 
ATOM      9  C   UNL     1       6.994   4.108  11.614  0.00  0.00    +0.000 A 
ATOM     10  C   UNL     1       7.724   4.953  12.464  0.00  0.00    +0.000 A 
ATOM     11  C   UNL     1       7.315   4.966  13.790  0.00  0.00    +0.000 A 
ATOM     12  O   UNL     1       7.830   5.697  14.827  0.00  0.00    +0.000 OA
ATOM     13  H   UNL     1       8.035   6.638  17.095  0.00  0.00    +0.000 HD
ENDROOT
BRANCH   2  14
ATOM     14  C   UNL     1       6.365   4.007  18.486  0.00  0.00    +0.000 C 
BRANCH  14  15
ATOM     15  C   UNL     1       4.931   4.041  18.960  0.00  0.00    +0.000 A 
ATOM     16  C   UNL     1       4.411   2.982  19.721  0.00  0.00    +0.000 A 
ATOM     17  C   UNL     1       3.086   3.002  20.162  0.00  0.00    +0.000 A 
ATOM     18  C   UNL     1       2.281   4.097  19.867  0.00  0.00    +0.000 A 
ATOM     19 CL   UNL     1       0.649   4.127  20.412  0.00  0.00    +0.000 Cl
ATOM     20  C   UNL     1       2.788   5.170  19.137  0.00  0.00    +0.000 A 
ATOM     21  C   UNL     1       4.111   5.142  18.684  0.00  0.00    +0.000 A 
ENDBRANCH  14  15
ENDBRANCH   2  14
TORSDOF 2
ENDMDL
