MODEL 1
REMARK VINA RESULT:      -7.9      0.000      0.000
REMARK  Name = 
REMARK  7 active torsions:
REMARK  status: ('A' for Active; 'I' for Inactive)
REMARK    1  A    between atoms: C_1  and  N_2
REMARK    2  A    between atoms: N_2  and  O_3
REMARK    3  A    between atoms: C_4  and  C_6
REMARK    4  A    between atoms: C_7  and  C_8
REMARK    5  A    between atoms: C_11  and  O_12
REMARK    6  A    between atoms: O_12  and  C_13
REMARK    7  A    between atoms: C_13  and  C_14
REMARK                            x       y       z     vdW  Elec       q    Type
REMARK                         _______ _______ _______ _____ _____    ______ ____
ROOT
ATOM      1  C   UNL     1       7.734   7.728  17.899  0.00  0.00    +0.000 A 
ATOM      2  C   UNL     1       8.079   6.756  18.847  0.00  0.00    +0.000 A 
ATOM      3  C   UNL     1       7.450   5.512  18.860  0.00  0.00    +0.000 A 
ATOM      4  C   UNL     1       6.425   5.234  17.957  0.00  0.00    +0.000 A 
ATOM      5  C   UNL     1       6.085   6.185  16.994  0.00  0.00    +0.000 A 
ATOM      6  C   UNL     1       6.729   7.432  16.971  0.00  0.00    +0.000 A 
ENDROOT
BRANCH   1   8
ATOM      7  C   UNL     1       8.976   9.563  18.992  0.00  0.00    +0.000 C 
ATOM      8  C   UNL     1       8.372   9.054  17.906  0.00  0.00    +0.000 C 
BRANCH   7  11
ATOM      9  C   UNL     1      10.446  12.784  20.318  0.00  0.00    +0.000 C 
ATOM     10  N   UNL     1      10.047  11.397  20.182  0.00  0.00    +0.000 N 
ATOM     11  C   UNL     1       9.592  10.918  18.964  0.00  0.00    +0.000 C 
ATOM     12  O   UNL     1       9.727  11.534  17.911  0.00  0.00    +0.000 OA
BRANCH  10  13
ATOM     13  O   UNL     1       9.461  10.897  21.367  0.00  0.00    +0.000 OA
ATOM     14  H   UNL     1       9.619  11.633  21.991  0.00  0.00    +0.000 HD
ENDBRANCH  10  13
ENDBRANCH   7  11
ENDBRANCH   1   8
BRANCH   4  15
ATOM     15  O   UNL     1       5.692   4.080  17.949  0.00  0.00    +0.000 OA
BRANCH  15  16
ATOM     16  C   UNL     1       4.354   4.238  17.471  0.00  0.00    +0.000 C 
BRANCH  16  17
ATOM     17  C   UNL     1       3.429   4.536  18.618  0.00  0.00    +0.000 A 
ATOM     18  C   UNL     1       2.997   5.854  18.845  0.00  0.00    +0.000 A 
ATOM     19  C   UNL     1       2.173   6.152  19.932  0.00  0.00    +0.000 A 
ATOM     20  C   UNL     1       1.767   5.135  20.800  0.00  0.00    +0.000 A 
ATOM     21  C   UNL     1       2.193   3.829  20.576  0.00  0.00    +0.000 A 
ATOM     22 CL   UNL     1       1.700   2.581  21.657  0.00  0.00    +0.000 Cl
ATOM     23  C   UNL     1       3.014   3.523  19.492  0.00  0.00    +0.000 A 
ENDBRANCH  16  17
ENDBRANCH  15  16
ENDBRANCH   4  15
TORSDOF 6
ENDMDL
MODEL 2
REMARK VINA RESULT:      -7.8      1.218      1.586
REMARK  Name = 
REMARK  7 active torsions:
REMARK  status: ('A' for Active; 'I' for Inactive)
REMARK    1  A    between atoms: C_1  and  N_2
REMARK    2  A    between atoms: N_2  and  O_3
REMARK    3  A    between atoms: C_4  and  C_6
REMARK    4  A    between atoms: C_7  and  C_8
REMARK    5  A    between atoms: C_11  and  O_12
REMARK    6  A    between atoms: O_12  and  C_13
REMARK    7  A    between atoms: C_13  and  C_14
REMARK                            x       y       z     vdW  Elec       q    Type
REMARK                         _______ _______ _______ _____ _____    ______ ____
ROOT
ATOM      1  C   UNL     1       7.436   7.551  17.791  0.00  0.00    +0.000 A 
ATOM      2  C   UNL     1       7.869   6.467  18.564  0.00  0.00    +0.000 A 
ATOM      3  C   UNL     1       7.162   5.266  18.574  0.00  0.00    +0.000 A 
ATOM      4  C   UNL     1       5.977   5.142  17.850  0.00  0.00    +0.000 A 
ATOM      5  C   UNL     1       5.545   6.207  17.059  0.00  0.00    +0.000 A 
ATOM      6  C   UNL     1       6.265   7.412  17.037  0.00  0.00    +0.000 A 
ENDROOT
BRANCH   1   8
ATOM      7  C   UNL     1       8.793   9.295  18.897  0.00  0.00    +0.000 C 
ATOM      8  C   UNL     1       8.161   8.832  17.807  0.00  0.00    +0.000 C 
BRANCH   7  11
ATOM      9  C   UNL     1      10.481  12.397  20.244  0.00  0.00    +0.000 C 
ATOM     10  N   UNL     1       9.990  11.042  20.098  0.00  0.00    +0.000 N 
ATOM     11  C   UNL     1       9.499  10.606  18.878  0.00  0.00    +0.000 C 
ATOM     12  O   UNL     1       9.669  11.221  17.830  0.00  0.00    +0.000 OA
BRANCH  10  13
ATOM     13  O   UNL     1       9.378  10.571  21.282  0.00  0.00    +0.000 OA
ATOM     14  H   UNL     1       9.007  11.395  21.654  0.00  0.00    +0.000 HD
ENDBRANCH  10  13
ENDBRANCH   7  11
ENDBRANCH   1   8
BRANCH   4  15
ATOM     15  O   UNL     1       5.171   4.038  17.867  0.00  0.00    +0.000 OA
BRANCH  15  16
ATOM     16  C   UNL     1       4.969   3.480  19.167  0.00  0.00    +0.000 C 
BRANCH  16  17
ATOM     17  C   UNL     1       3.571   3.770  19.640  0.00  0.00    +0.000 A 
ATOM     18  C   UNL     1       2.619   2.737  19.684  0.00  0.00    +0.000 A 
ATOM     19  C   UNL     1       1.306   3.001  20.080  0.00  0.00    +0.000 A 
ATOM     20  C   UNL     1       0.932   4.298  20.441  0.00  0.00    +0.000 A 
ATOM     21  C   UNL     1       1.875   5.322  20.399  0.00  0.00    +0.000 A 
ATOM     22 CL   UNL     1       1.407   6.922  20.832  0.00  0.00    +0.000 Cl
ATOM     23  C   UNL     1       3.188   5.066  20.006  0.00  0.00    +0.000 A 
ENDBRANCH  16  17
ENDBRANCH  15  16
ENDBRANCH   4  15
TORSDOF 6
ENDMDL
MODEL 3
REMARK VINA RESULT:      -7.8      1.570      2.347
REMARK  Name = 
REMARK  7 active torsions:
REMARK  status: ('A' for Active; 'I' for Inactive)
REMARK    1  A    between atoms: C_1  and  N_2
REMARK    2  A    between atoms: N_2  and  O_3
REMARK    3  A    between atoms: C_4  and  C_6
REMARK    4  A    between atoms: C_7  and  C_8
REMARK    5  A    between atoms: C_11  and  O_12
REMARK    6  A    between atoms: O_12  and  C_13
REMARK    7  A    between atoms: C_13  and  C_14
REMARK                            x       y       z     vdW  Elec       q    Type
REMARK                         _______ _______ _______ _____ _____    ______ ____
ROOT
ATOM      1  C   UNL     1       7.795   7.605  18.105  0.00  0.00    +0.000 A 
ATOM      2  C   UNL     1       6.845   7.611  17.076  0.00  0.00    +0.000 A 
ATOM      3  C   UNL     1       6.108   6.467  16.775  0.00  0.00    +0.000 A 
ATOM      4  C   UNL     1       6.344   5.278  17.462  0.00  0.00    +0.000 A 
ATOM      5  C   UNL     1       7.273   5.262  18.503  0.00  0.00    +0.000 A 
ATOM      6  C   UNL     1       8.005   6.418  18.817  0.00  0.00    +0.000 A 
ENDROOT
BRANCH   1   8
ATOM      7  C   UNL     1       8.303  10.015  17.912  0.00  0.00    +0.000 C 
ATOM      8  C   UNL     1       8.600   8.801  18.401  0.00  0.00    +0.000 C 
BRANCH   7  11
ATOM      9  C   UNL     1       9.452  13.616  17.901  0.00  0.00    +0.000 C 
ATOM     10  N   UNL     1       8.624  12.428  17.867  0.00  0.00    +0.000 N 
ATOM     11  C   UNL     1       9.154  11.198  18.219  0.00  0.00    +0.000 C 
ATOM     12  O   UNL     1      10.231  11.074  18.795  0.00  0.00    +0.000 OA
BRANCH  10  13
ATOM     13  O   UNL     1       7.667  12.481  16.828  0.00  0.00    +0.000 OA
ATOM     14  H   UNL     1       8.237  12.560  16.038  0.00  0.00    +0.000 HD
ENDBRANCH  10  13
ENDBRANCH   7  11
ENDBRANCH   1   8
BRANCH   4  15
ATOM     15  O   UNL     1       5.736   4.086  17.180  0.00  0.00    +0.000 OA
BRANCH  15  16
ATOM     16  C   UNL     1       4.450   4.215  16.568  0.00  0.00    +0.000 C 
BRANCH  16  17
ATOM     17  C   UNL     1       3.369   3.978  17.586  0.00  0.00    +0.000 A 
ATOM     18  C   UNL     1       2.629   2.783  17.556  0.00  0.00    +0.000 A 
ATOM     19  C   UNL     1       1.594   2.568  18.468  0.00  0.00    +0.000 A 
ATOM     20  C   UNL     1       1.291   3.542  19.424  0.00  0.00    +0.000 A 
ATOM     21  C   UNL     1       2.025   4.725  19.456  0.00  0.00    +0.000 A 
ATOM     22 CL   UNL     1       1.640   5.928  20.628  0.00  0.00    +0.000 Cl
ATOM     23  C   UNL     1       3.060   4.946  18.550  0.00  0.00    +0.000 A 
ENDBRANCH  16  17
ENDBRANCH  15  16
ENDBRANCH   4  15
TORSDOF 6
ENDMDL
MODEL 4
REMARK VINA RESULT:      -7.7      1.350      1.368
REMARK  Name = 
REMARK  7 active torsions:
REMARK  status: ('A' for Active; 'I' for Inactive)
REMARK    1  A    between atoms: C_1  and  N_2
REMARK    2  A    between atoms: N_2  and  O_3
REMARK    3  A    between atoms: C_4  and  C_6
REMARK    4  A    between atoms: C_7  and  C_8
REMARK    5  A    between atoms: C_11  and  O_12
REMARK    6  A    between atoms: O_12  and  C_13
REMARK    7  A    between atoms: C_13  and  C_14
REMARK                            x       y       z     vdW  Elec       q    Type
REMARK                         _______ _______ _______ _____ _____    ______ ____
ROOT
ATOM      1  C   UNL     1       7.698   7.849  17.867  0.00  0.00    +0.000 A 
ATOM      2  C   UNL     1       8.309   7.049  18.840  0.00  0.00    +0.000 A 
ATOM      3  C   UNL     1       7.795   5.793  19.161  0.00  0.00    +0.000 A 
ATOM      4  C   UNL     1       6.627   5.336  18.553  0.00  0.00    +0.000 A 
ATOM      5  C   UNL     1       6.019   6.114  17.567  0.00  0.00    +0.000 A 
ATOM      6  C   UNL     1       6.545   7.372  17.233  0.00  0.00    +0.000 A 
ENDROOT
BRANCH   1   8
ATOM      7  C   UNL     1       8.645  10.044  18.496  0.00  0.00    +0.000 C 
ATOM      8  C   UNL     1       8.218   9.189  17.552  0.00  0.00    +0.000 C 
BRANCH   7  11
ATOM      9  C   UNL     1      10.947  13.041  18.450  0.00  0.00    +0.000 C 
ATOM     10  N   UNL     1      10.441  11.686  18.535  0.00  0.00    +0.000 N 
ATOM     11  C   UNL     1       9.146  11.399  18.137  0.00  0.00    +0.000 C 
ATOM     12  O   UNL     1       8.458  12.179  17.485  0.00  0.00    +0.000 OA
BRANCH  10  13
ATOM     13  O   UNL     1      10.980  10.989  19.640  0.00  0.00    +0.000 OA
ATOM     14  H   UNL     1      10.171  10.681  20.093  0.00  0.00    +0.000 HD
ENDBRANCH  10  13
ENDBRANCH   7  11
ENDBRANCH   1   8
BRANCH   4  15
ATOM     15  O   UNL     1       6.000   4.161  18.865  0.00  0.00    +0.000 OA
BRANCH  15  16
ATOM     16  C   UNL     1       5.113   3.682  17.851  0.00  0.00    +0.000 C 
BRANCH  16  17
ATOM     17  C   UNL     1       3.716   3.580  18.395  0.00  0.00    +0.000 A 
ATOM     18  C   UNL     1       2.623   3.949  17.592  0.00  0.00    +0.000 A 
ATOM     19  C   UNL     1       1.323   3.900  18.099  0.00  0.00    +0.000 A 
ATOM     20  C   UNL     1       1.101   3.476  19.412  0.00  0.00    +0.000 A 
ATOM     21  C   UNL     1       2.182   3.109  20.208  0.00  0.00    +0.000 A 
ATOM     22 CL   UNL     1       1.904   2.599  21.830  0.00  0.00    +0.000 Cl
ATOM     23  C   UNL     1       3.483   3.154  19.709  0.00  0.00    +0.000 A 
ENDBRANCH  16  17
ENDBRANCH  15  16
ENDBRANCH   4  15
TORSDOF 6
ENDMDL
MODEL 5
REMARK VINA RESULT:      -7.6      1.021      1.085
REMARK  Name = 
REMARK  7 active torsions:
REMARK  status: ('A' for Active; 'I' for Inactive)
REMARK    1  A    between atoms: C_1  and  N_2
REMARK    2  A    between atoms: N_2  and  O_3
REMARK    3  A    between atoms: C_4  and  C_6
REMARK    4  A    between atoms: C_7  and  C_8
REMARK    5  A    between atoms: C_11  and  O_12
REMARK    6  A    between atoms: O_12  and  C_13
REMARK    7  A    between atoms: C_13  and  C_14
REMARK                            x       y       z     vdW  Elec       q    Type
REMARK                         _______ _______ _______ _____ _____    ______ ____
ROOT
ATOM      1  C   UNL     1       7.781   8.133  17.903  0.00  0.00    +0.000 A 
ATOM      2  C   UNL     1       8.202   7.039  18.668  0.00  0.00    +0.000 A 
ATOM      3  C   UNL     1       7.577   5.798  18.550  0.00  0.00    +0.000 A 
ATOM      4  C   UNL     1       6.483   5.641  17.700  0.00  0.00    +0.000 A 
ATOM      5  C   UNL     1       6.066   6.717  16.917  0.00  0.00    +0.000 A 
ATOM      6  C   UNL     1       6.705   7.962  17.025  0.00  0.00    +0.000 A 
ENDROOT
BRANCH   1   8
ATOM      7  C   UNL     1       9.107   9.806  19.148  0.00  0.00    +0.000 C 
ATOM      8  C   UNL     1       8.416   9.452  18.052  0.00  0.00    +0.000 C 
BRANCH   7  11
ATOM      9  C   UNL     1      10.460  12.914  20.820  0.00  0.00    +0.000 C 
ATOM     10  N   UNL     1      10.078  11.542  20.550  0.00  0.00    +0.000 N 
ATOM     11  C   UNL     1       9.718  11.158  19.269  0.00  0.00    +0.000 C 
ATOM     12  O   UNL     1       9.929  11.851  18.279  0.00  0.00    +0.000 OA
BRANCH  10  13
ATOM     13  O   UNL     1       9.408  10.955  21.647  0.00  0.00    +0.000 OA
ATOM     14  H   UNL     1       9.138  11.742  22.159  0.00  0.00    +0.000 HD
ENDBRANCH  10  13
ENDBRANCH   7  11
ENDBRANCH   1   8
BRANCH   4  15
ATOM     15  O   UNL     1       5.753   4.491  17.583  0.00  0.00    +0.000 OA
BRANCH  15  16
ATOM     16  C   UNL     1       5.399   3.891  18.832  0.00  0.00    +0.000 C 
BRANCH  16  17
ATOM     17  C   UNL     1       3.905   3.763  18.937  0.00  0.00    +0.000 A 
ATOM     18  C   UNL     1       3.091   4.166  17.864  0.00  0.00    +0.000 A 
ATOM     19  C   UNL     1       1.701   4.093  17.965  0.00  0.00    +0.000 A 
ATOM     20  C   UNL     1       1.108   3.612  19.136  0.00  0.00    +0.000 A 
ATOM     21  C   UNL     1       1.914   3.211  20.198  0.00  0.00    +0.000 A 
ATOM     22 CL   UNL     1       1.179   2.631  21.645  0.00  0.00    +0.000 Cl
ATOM     23  C   UNL     1       3.303   3.280  20.105  0.00  0.00    +0.000 A 
ENDBRANCH  16  17
ENDBRANCH  15  16
ENDBRANCH   4  15
TORSDOF 6
ENDMDL
MODEL 6
REMARK VINA RESULT:      -7.6      1.146      1.464
REMARK  Name = 
REMARK  7 active torsions:
REMARK  status: ('A' for Active; 'I' for Inactive)
REMARK    1  A    between atoms: C_1  and  N_2
REMARK    2  A    between atoms: N_2  and  O_3
REMARK    3  A    between atoms: C_4  and  C_6
REMARK    4  A    between atoms: C_7  and  C_8
REMARK    5  A    between atoms: C_11  and  O_12
REMARK    6  A    between atoms: O_12  and  C_13
REMARK    7  A    between atoms: C_13  and  C_14
REMARK                            x       y       z     vdW  Elec       q    Type
REMARK                         _______ _______ _______ _____ _____    ______ ____
ROOT
ATOM      1  C   UNL     1       7.899   7.527  18.216  0.00  0.00    +0.000 A 
ATOM      2  C   UNL     1       8.018   6.362  18.985  0.00  0.00    +0.000 A 
ATOM      3  C   UNL     1       7.283   5.220  18.673  0.00  0.00    +0.000 A 
ATOM      4  C   UNL     1       6.374   5.236  17.616  0.00  0.00    +0.000 A 
ATOM      5  C   UNL     1       6.261   6.383  16.829  0.00  0.00    +0.000 A 
ATOM      6  C   UNL     1       7.012   7.528  17.134  0.00  0.00    +0.000 A 
ENDROOT
BRANCH   1   8
ATOM      7  C   UNL     1       8.496   9.905  17.906  0.00  0.00    +0.000 C 
ATOM      8  C   UNL     1       8.648   8.745  18.565  0.00  0.00    +0.000 C 
BRANCH   7  11
ATOM      9  C   UNL     1       9.471  13.553  18.076  0.00  0.00    +0.000 C 
ATOM     10  N   UNL     1       8.701  12.329  17.978  0.00  0.00    +0.000 N 
ATOM     11  C   UNL     1       9.286  11.110  18.276  0.00  0.00    +0.000 C 
ATOM     12  O   UNL     1      10.364  11.010  18.856  0.00  0.00    +0.000 OA
BRANCH  10  13
ATOM     13  O   UNL     1       7.750  12.386  16.933  0.00  0.00    +0.000 OA
ATOM     14  H   UNL     1       7.814  11.485  16.559  0.00  0.00    +0.000 HD
ENDBRANCH  10  13
ENDBRANCH   7  11
ENDBRANCH   1   8
BRANCH   4  15
ATOM     15  O   UNL     1       5.547   4.197  17.289  0.00  0.00    +0.000 OA
BRANCH  15  16
ATOM     16  C   UNL     1       4.210   4.590  16.967  0.00  0.00    +0.000 C 
BRANCH  16  17
ATOM     17  C   UNL     1       3.442   4.882  18.226  0.00  0.00    +0.000 A 
ATOM     18  C   UNL     1       2.929   6.172  18.450  0.00  0.00    +0.000 A 
ATOM     19  C   UNL     1       2.252   6.469  19.634  0.00  0.00    +0.000 A 
ATOM     20  C   UNL     1       2.075   5.480  20.605  0.00  0.00    +0.000 A 
ATOM     21  C   UNL     1       2.581   4.202  20.384  0.00  0.00    +0.000 A 
ATOM     22 CL   UNL     1       2.371   2.988  21.590  0.00  0.00    +0.000 Cl
ATOM     23  C   UNL     1       3.258   3.897  19.204  0.00  0.00    +0.000 A 
ENDBRANCH  16  17
ENDBRANCH  15  16
ENDBRANCH   4  15
TORSDOF 6
ENDMDL
MODEL 7
REMARK VINA RESULT:      -7.6      0.365      1.084
REMARK  Name = 
REMARK  7 active torsions:
REMARK  status: ('A' for Active; 'I' for Inactive)
REMARK    1  A    between atoms: C_1  and  N_2
REMARK    2  A    between atoms: N_2  and  O_3
REMARK    3  A    between atoms: C_4  and  C_6
REMARK    4  A    between atoms: C_7  and  C_8
REMARK    5  A    between atoms: C_11  and  O_12
REMARK    6  A    between atoms: O_12  and  C_13
REMARK    7  A    between atoms: C_13  and  C_14
REMARK                            x       y       z     vdW  Elec       q    Type
REMARK                         _______ _______ _______ _____ _____    ______ ____
ROOT
ATOM      1  C   UNL     1       7.560   7.736  17.797  0.00  0.00    +0.000 A 
ATOM      2  C   UNL     1       6.492   7.600  16.901  0.00  0.00    +0.000 A 
ATOM      3  C   UNL     1       5.786   6.402  16.803  0.00  0.00    +0.000 A 
ATOM      4  C   UNL     1       6.169   5.298  17.563  0.00  0.00    +0.000 A 
ATOM      5  C   UNL     1       7.217   5.425  18.474  0.00  0.00    +0.000 A 
ATOM      6  C   UNL     1       7.918   6.635  18.584  0.00  0.00    +0.000 A 
ENDROOT
BRANCH   1   8
ATOM      7  C   UNL     1       8.893   9.423  19.014  0.00  0.00    +0.000 C 
ATOM      8  C   UNL     1       8.329   8.988  17.876  0.00  0.00    +0.000 C 
BRANCH   7  11
ATOM      9  C   UNL     1      10.602  12.446  20.508  0.00  0.00    +0.000 C 
ATOM     10  N   UNL     1      10.071  11.111  20.313  0.00  0.00    +0.000 N 
ATOM     11  C   UNL     1       9.647  10.706  19.058  0.00  0.00    +0.000 C 
ATOM     12  O   UNL     1       9.910  11.324  18.031  0.00  0.00    +0.000 OA
BRANCH  10  13
ATOM     13  O   UNL     1       9.364  10.653  21.448  0.00  0.00    +0.000 OA
ATOM     14  H   UNL     1       8.783   9.972  21.057  0.00  0.00    +0.000 HD
ENDBRANCH  10  13
ENDBRANCH   7  11
ENDBRANCH   1   8
BRANCH   4  15
ATOM     15  O   UNL     1       5.596   4.059  17.472  0.00  0.00    +0.000 OA
BRANCH  15  16
ATOM     16  C   UNL     1       4.203   4.080  17.147  0.00  0.00    +0.000 C 
BRANCH  16  17
ATOM     17  C   UNL     1       3.391   4.365  18.380  0.00  0.00    +0.000 A 
ATOM     18  C   UNL     1       2.788   5.624  18.545  0.00  0.00    +0.000 A 
ATOM     19  C   UNL     1       2.067   5.917  19.704  0.00  0.00    +0.000 A 
ATOM     20  C   UNL     1       1.937   4.953  20.708  0.00  0.00    +0.000 A 
ATOM     21  C   UNL     1       2.533   3.706  20.545  0.00  0.00    +0.000 A 
ATOM     22 CL   UNL     1       2.380   2.526  21.792  0.00  0.00    +0.000 Cl
ATOM     23  C   UNL     1       3.253   3.405  19.390  0.00  0.00    +0.000 A 
ENDBRANCH  16  17
ENDBRANCH  15  16
ENDBRANCH   4  15
TORSDOF 6
ENDMDL
MODEL 8
REMARK VINA RESULT:      -7.6      1.141      1.565
REMARK  Name = 
REMARK  7 active torsions:
REMARK  status: ('A' for Active; 'I' for Inactive)
REMARK    1  A    between atoms: C_1  and  N_2
REMARK    2  A    between atoms: N_2  and  O_3
REMARK    3  A    between atoms: C_4  and  C_6
REMARK    4  A    between atoms: C_7  and  C_8
REMARK    5  A    between atoms: C_11  and  O_12
REMARK    6  A    between atoms: O_12  and  C_13
REMARK    7  A    between atoms: C_13  and  C_14
REMARK                            x       y       z     vdW  Elec       q    Type
REMARK                         _______ _______ _______ _____ _____    ______ ____
ROOT
ATOM      1  C   UNL     1       7.707   7.762  17.872  0.00  0.00    +0.000 A 
ATOM      2  C   UNL     1       6.561   7.739  17.067  0.00  0.00    +0.000 A 
ATOM      3  C   UNL     1       5.737   6.615  17.025  0.00  0.00    +0.000 A 
ATOM      4  C   UNL     1       6.073   5.471  17.747  0.00  0.00    +0.000 A 
ATOM      5  C   UNL     1       7.201   5.487  18.568  0.00  0.00    +0.000 A 
ATOM      6  C   UNL     1       8.022   6.623  18.622  0.00  0.00    +0.000 A 
ENDROOT
BRANCH   1   8
ATOM      7  C   UNL     1       8.824   9.655  19.000  0.00  0.00    +0.000 C 
ATOM      8  C   UNL     1       8.596   8.934  17.891  0.00  0.00    +0.000 C 
BRANCH   7  11
ATOM      9  C   UNL     1      10.854  12.555  20.325  0.00  0.00    +0.000 C 
ATOM     10  N   UNL     1      10.179  11.279  20.206  0.00  0.00    +0.000 N 
ATOM     11  C   UNL     1       9.716  10.847  18.974  0.00  0.00    +0.000 C 
ATOM     12  O   UNL     1      10.049  11.368  17.914  0.00  0.00    +0.000 OA
BRANCH  10  13
ATOM     13  O   UNL     1       9.422  10.972  21.360  0.00  0.00    +0.000 OA
ATOM     14  H   UNL     1       9.898  11.476  22.048  0.00  0.00    +0.000 HD
ENDBRANCH  10  13
ENDBRANCH   7  11
ENDBRANCH   1   8
BRANCH   4  15
ATOM     15  O   UNL     1       5.378   4.294  17.700  0.00  0.00    +0.000 OA
BRANCH  15  16
ATOM     16  C   UNL     1       5.125   3.711  18.981  0.00  0.00    +0.000 C 
BRANCH  16  17
ATOM     17  C   UNL     1       3.651   3.472  19.156  0.00  0.00    +0.000 A 
ATOM     18  C   UNL     1       2.776   3.677  18.075  0.00  0.00    +0.000 A 
ATOM     19  C   UNL     1       1.400   3.501  18.235  0.00  0.00    +0.000 A 
ATOM     20  C   UNL     1       0.885   3.112  19.474  0.00  0.00    +0.000 A 
ATOM     21  C   UNL     1       1.751   2.907  20.545  0.00  0.00    +0.000 A 
ATOM     22 CL   UNL     1       1.109   2.441  22.075  0.00  0.00    +0.000 Cl
ATOM     23  C   UNL     1       3.126   3.080  20.393  0.00  0.00    +0.000 A 
ENDBRANCH  16  17
ENDBRANCH  15  16
ENDBRANCH   4  15
TORSDOF 6
ENDMDL
MODEL 9
REMARK VINA RESULT:      -7.5      4.590      9.058
REMARK  Name = 
REMARK  7 active torsions:
REMARK  status: ('A' for Active; 'I' for Inactive)
REMARK    1  A    between atoms: C_1  and  N_2
REMARK    2  A    between atoms: N_2  and  O_3
REMARK    3  A    between atoms: C_4  and  C_6
REMARK    4  A    between atoms: C_7  and  C_8
REMARK    5  A    between atoms: C_11  and  O_12
REMARK    6  A    between atoms: O_12  and  C_13
REMARK    7  A    between atoms: C_13  and  C_14
REMARK                            x       y       z     vdW  Elec       q    Type
REMARK                         _______ _______ _______ _____ _____    ______ ____
ROOT
ATOM      1  C   UNL     1       5.819   5.366  17.851  0.00  0.00    +0.000 A 
ATOM      2  C   UNL     1       5.893   6.469  16.991  0.00  0.00    +0.000 A 
ATOM      3  C   UNL     1       6.893   7.428  17.139  0.00  0.00    +0.000 A 
ATOM      4  C   UNL     1       7.809   7.332  18.185  0.00  0.00    +0.000 A 
ATOM      5  C   UNL     1       7.760   6.229  19.038  0.00  0.00    +0.000 A 
ATOM      6  C   UNL     1       6.763   5.255  18.879  0.00  0.00    +0.000 A 
ENDROOT
BRANCH   1   8
ATOM      7  C   UNL     1       4.362   3.575  18.730  0.00  0.00    +0.000 C 
ATOM      8  C   UNL     1       4.744   4.371  17.719  0.00  0.00    +0.000 C 
BRANCH   7  11
ATOM      9  C   UNL     1       0.866   2.138  18.690  0.00  0.00    +0.000 C 
ATOM     10  N   UNL     1       1.987   3.053  18.616  0.00  0.00    +0.000 N 
ATOM     11  C   UNL     1       3.282   2.566  18.550  0.00  0.00    +0.000 C 
ATOM     12  O   UNL     1       3.543   1.391  18.309  0.00  0.00    +0.000 OA
BRANCH  10  13
ATOM     13  O   UNL     1       1.747   4.243  19.341  0.00  0.00    +0.000 OA
ATOM     14  H   UNL     1       0.842   4.090  19.676  0.00  0.00    +0.000 HD
ENDBRANCH  10  13
ENDBRANCH   7  11
ENDBRANCH   1   8
BRANCH   4  15
ATOM     15  O   UNL     1       8.768   8.267  18.463  0.00  0.00    +0.000 OA
BRANCH  15  16
ATOM     16  C   UNL     1       8.373   9.613  18.185  0.00  0.00    +0.000 C 
BRANCH  16  17
ATOM     17  C   UNL     1       9.384  10.573  18.745  0.00  0.00    +0.000 A 
ATOM     18  C   UNL     1       9.462  10.777  20.134  0.00  0.00    +0.000 A 
ATOM     19  C   UNL     1      10.367  11.698  20.665  0.00  0.00    +0.000 A 
ATOM     20  C   UNL     1      11.208  12.420  19.815  0.00  0.00    +0.000 A 
ATOM     21  C   UNL     1      11.134  12.218  18.439  0.00  0.00    +0.000 A 
ATOM     22 CL   UNL     1      12.164  13.121  17.394  0.00  0.00    +0.000 Cl
ATOM     23  C   UNL     1      10.233  11.300  17.902  0.00  0.00    +0.000 A 
ENDBRANCH  16  17
ENDBRANCH  15  16
ENDBRANCH   4  15
TORSDOF 6
ENDMDL
