MODEL 1
REMARK VINA RESULT:      -7.6      0.000      0.000
REMARK  Name = 
REMARK  5 active torsions:
REMARK  status: ('A' for Active; 'I' for Inactive)
REMARK    1  A    between atoms: C_1  and  C_2
REMARK    2  A    between atoms: C_4  and  C_5
REMARK    3  A    between atoms: C_7  and  N_8
REMARK    4  A    between atoms: C_14  and  C_15
REMARK    5  A    between atoms: C_20  and  C_21
REMARK                            x       y       z     vdW  Elec       q    Type
REMARK                         _______ _______ _______ _____ _____    ______ ____
ROOT
ATOM      1  C   UNL     1       2.229   6.751  20.054  0.00  0.00    +0.000 A 
ATOM      2  C   UNL     1       3.313   6.532  19.298  0.00  0.00    +0.000 A 
ATOM      3  C   UNL     1       3.896   5.209  19.185  0.00  0.00    +0.000 A 
ATOM      4  C   UNL     1       3.307   4.197  19.860  0.00  0.00    +0.000 A 
ATOM      5  C   UNL     1       2.090   4.421  20.668  0.00  0.00    +0.000 A 
ATOM      6  O   UNL     1       1.530   3.507  21.265  0.00  0.00    +0.000 OA
ATOM      7  O   UNL     1       1.604   5.692  20.735  0.00  0.00    +0.000 OA
ENDROOT
BRANCH   1  11
ATOM      8  C   UNL     1      -0.081  10.884  21.876  0.00  0.00    +0.000 C 
ATOM      9  C   UNL     1       0.543   9.800  21.094  0.00  0.00    +0.000 A 
ATOM     10  C   UNL     1       0.973   8.528  21.399  0.00  0.00    +0.000 A 
ATOM     11  C   UNL     1       1.575   8.009  20.220  0.00  0.00    +0.000 A 
ATOM     12  C   UNL     1       1.416   8.986  19.250  0.00  0.00    +0.000 A 
ATOM     13  C   UNL     1       1.753   9.104  17.815  0.00  0.00    +0.000 C 
ATOM     14  O   UNL     1       0.792  10.075  19.785  0.00  0.00    +0.000 OA
ENDBRANCH   1  11
BRANCH   3  15
ATOM     15  N   UNL     1       5.027   5.105  18.368  0.00  0.00    +0.000 N 
ATOM     16  C   UNL     1       6.404   5.168  18.880  0.00  0.00    +0.000 C 
ATOM     17  C   UNL     1       7.144   6.353  18.260  0.00  0.00    +0.000 C 
ATOM     18  C   UNL     1       7.070   6.332  16.734  0.00  0.00    +0.000 C 
ATOM     19  C   UNL     1       5.630   6.163  16.248  0.00  0.00    +0.000 C 
ATOM     20  C   UNL     1       4.951   4.960  16.906  0.00  0.00    +0.000 C 
ENDBRANCH   3  15
BRANCH   4  21
ATOM     21  C   UNL     1       3.845   2.884  19.885  0.00  0.00    +0.000 C 
ATOM     22  N   UNL     1       4.292   1.811  19.896  0.00  0.00    +0.000 NA
ENDBRANCH   4  21
TORSDOF 3
ENDMDL
MODEL 2
REMARK VINA RESULT:      -7.5      2.365      4.287
REMARK  Name = 
REMARK  5 active torsions:
REMARK  status: ('A' for Active; 'I' for Inactive)
REMARK    1  A    between atoms: C_1  and  C_2
REMARK    2  A    between atoms: C_4  and  C_5
REMARK    3  A    between atoms: C_7  and  N_8
REMARK    4  A    between atoms: C_14  and  C_15
REMARK    5  A    between atoms: C_20  and  C_21
REMARK                            x       y       z     vdW  Elec       q    Type
REMARK                         _______ _______ _______ _____ _____    ______ ____
ROOT
ATOM      1  C   UNL     1       2.778   7.379  18.135  0.00  0.00    +0.000 A 
ATOM      2  C   UNL     1       2.577   6.110  18.515  0.00  0.00    +0.000 A 
ATOM      3  C   UNL     1       3.392   5.031  17.992  0.00  0.00    +0.000 A 
ATOM      4  C   UNL     1       4.369   5.344  17.112  0.00  0.00    +0.000 A 
ATOM      5  C   UNL     1       4.622   6.745  16.714  0.00  0.00    +0.000 A 
ATOM      6  O   UNL     1       5.523   7.046  15.937  0.00  0.00    +0.000 OA
ATOM      7  O   UNL     1       3.811   7.705  17.239  0.00  0.00    +0.000 OA
ENDROOT
BRANCH   1  11
ATOM      8  C   UNL     1       0.255  11.760  18.567  0.00  0.00    +0.000 C 
ATOM      9  C   UNL     1       0.950  10.468  18.721  0.00  0.00    +0.000 A 
ATOM     10  C   UNL     1       1.749   9.709  17.894  0.00  0.00    +0.000 A 
ATOM     11  C   UNL     1       2.040   8.510  18.601  0.00  0.00    +0.000 A 
ATOM     12  C   UNL     1       1.444   8.646  19.845  0.00  0.00    +0.000 A 
ATOM     13  C   UNL     1       1.377   7.823  21.071  0.00  0.00    +0.000 C 
ATOM     14  O   UNL     1       0.779   9.836  19.913  0.00  0.00    +0.000 OA
ENDBRANCH   1  11
BRANCH   3  15
ATOM     15  N   UNL     1       3.087   3.749  18.462  0.00  0.00    +0.000 N 
ATOM     16  C   UNL     1       2.095   2.869  17.826  0.00  0.00    +0.000 C 
ATOM     17  C   UNL     1       0.971   2.546  18.810  0.00  0.00    +0.000 C 
ATOM     18  C   UNL     1       1.513   1.990  20.127  0.00  0.00    +0.000 C 
ATOM     19  C   UNL     1       2.613   2.884  20.699  0.00  0.00    +0.000 C 
ATOM     20  C   UNL     1       3.704   3.166  19.664  0.00  0.00    +0.000 C 
ENDBRANCH   3  15
BRANCH   4  21
ATOM     21  C   UNL     1       5.166   4.357  16.477  0.00  0.00    +0.000 C 
ATOM     22  N   UNL     1       5.810   3.541  15.957  0.00  0.00    +0.000 NA
ENDBRANCH   4  21
TORSDOF 3
ENDMDL
MODEL 3
REMARK VINA RESULT:      -7.5      0.744      1.350
REMARK  Name = 
REMARK  5 active torsions:
REMARK  status: ('A' for Active; 'I' for Inactive)
REMARK    1  A    between atoms: C_1  and  C_2
REMARK    2  A    between atoms: C_4  and  C_5
REMARK    3  A    between atoms: C_7  and  N_8
REMARK    4  A    between atoms: C_14  and  C_15
REMARK    5  A    between atoms: C_20  and  C_21
REMARK                            x       y       z     vdW  Elec       q    Type
REMARK                         _______ _______ _______ _____ _____    ______ ____
ROOT
ATOM      1  C   UNL     1       2.200   7.004  20.046  0.00  0.00    +0.000 A 
ATOM      2  C   UNL     1       3.177   6.896  19.134  0.00  0.00    +0.000 A 
ATOM      3  C   UNL     1       3.879   5.643  18.932  0.00  0.00    +0.000 A 
ATOM      4  C   UNL     1       3.514   4.582  19.685  0.00  0.00    +0.000 A 
ATOM      5  C   UNL     1       2.414   4.683  20.667  0.00  0.00    +0.000 A 
ATOM      6  O   UNL     1       2.054   3.721  21.340  0.00  0.00    +0.000 OA
ATOM      7  O   UNL     1       1.806   5.893  20.810  0.00  0.00    +0.000 OA
ENDROOT
BRANCH   1  11
ATOM      8  C   UNL     1      -0.389  10.800  22.198  0.00  0.00    +0.000 C 
ATOM      9  C   UNL     1       0.295   9.823  21.329  0.00  0.00    +0.000 A 
ATOM     10  C   UNL     1       0.852   8.581  21.542  0.00  0.00    +0.000 A 
ATOM     11  C   UNL     1       1.444   8.186  20.311  0.00  0.00    +0.000 A 
ATOM     12  C   UNL     1       1.152   9.195  19.407  0.00  0.00    +0.000 A 
ATOM     13  C   UNL     1       1.411   9.422  17.968  0.00  0.00    +0.000 C 
ATOM     14  O   UNL     1       0.457  10.191  20.030  0.00  0.00    +0.000 OA
ENDBRANCH   1  11
BRANCH   3  15
ATOM     15  N   UNL     1       4.879   5.653  17.954  0.00  0.00    +0.000 N 
ATOM     16  C   UNL     1       4.653   5.241  16.560  0.00  0.00    +0.000 C 
ATOM     17  C   UNL     1       5.543   4.048  16.212  0.00  0.00    +0.000 C 
ATOM     18  C   UNL     1       7.013   4.327  16.525  0.00  0.00    +0.000 C 
ATOM     19  C   UNL     1       7.189   4.849  17.952  0.00  0.00    +0.000 C 
ATOM     20  C   UNL     1       6.271   6.042  18.232  0.00  0.00    +0.000 C 
ENDBRANCH   3  15
BRANCH   4  21
ATOM     21  C   UNL     1       4.191   3.337  19.626  0.00  0.00    +0.000 C 
ATOM     22  N   UNL     1       4.754   2.321  19.586  0.00  0.00    +0.000 NA
ENDBRANCH   4  21
TORSDOF 3
ENDMDL
MODEL 4
REMARK VINA RESULT:      -7.4      3.066      6.859
REMARK  Name = 
REMARK  5 active torsions:
REMARK  status: ('A' for Active; 'I' for Inactive)
REMARK    1  A    between atoms: C_1  and  C_2
REMARK    2  A    between atoms: C_4  and  C_5
REMARK    3  A    between atoms: C_7  and  N_8
REMARK    4  A    between atoms: C_14  and  C_15
REMARK    5  A    between atoms: C_20  and  C_21
REMARK                            x       y       z     vdW  Elec       q    Type
REMARK                         _______ _______ _______ _____ _____    ______ ____
ROOT
ATOM      1  C   UNL     1       4.697   5.218  16.709  0.00  0.00    +0.000 A 
ATOM      2  C   UNL     1       4.146   4.265  17.474  0.00  0.00    +0.000 A 
ATOM      3  C   UNL     1       3.220   4.600  18.538  0.00  0.00    +0.000 A 
ATOM      4  C   UNL     1       2.919   5.903  18.732  0.00  0.00    +0.000 A 
ATOM      5  C   UNL     1       3.494   6.957  17.871  0.00  0.00    +0.000 A 
ATOM      6  O   UNL     1       3.210   8.143  18.018  0.00  0.00    +0.000 OA
ATOM      7  O   UNL     1       4.364   6.571  16.897  0.00  0.00    +0.000 OA
ENDROOT
BRANCH   1  11
ATOM      8  C   UNL     1       6.897   3.907  12.330  0.00  0.00    +0.000 C 
ATOM      9  C   UNL     1       6.518   4.368  13.678  0.00  0.00    +0.000 A 
ATOM     10  C   UNL     1       5.384   4.236  14.449  0.00  0.00    +0.000 A 
ATOM     11  C   UNL     1       5.607   4.992  15.633  0.00  0.00    +0.000 A 
ATOM     12  C   UNL     1       6.897   5.489  15.529  0.00  0.00    +0.000 A 
ATOM     13  C   UNL     1       7.780   6.302  16.393  0.00  0.00    +0.000 C 
ATOM     14  O   UNL     1       7.446   5.112  14.338  0.00  0.00    +0.000 OA
ENDBRANCH   1  11
BRANCH   3  15
ATOM     15  N   UNL     1       2.711   3.520  19.270  0.00  0.00    +0.000 N 
ATOM     16  C   UNL     1       1.385   2.932  19.028  0.00  0.00    +0.000 C 
ATOM     17  C   UNL     1       0.517   3.059  20.279  0.00  0.00    +0.000 C 
ATOM     18  C   UNL     1       1.214   2.486  21.514  0.00  0.00    +0.000 C 
ATOM     19  C   UNL     1       2.627   3.049  21.667  0.00  0.00    +0.000 C 
ATOM     20  C   UNL     1       3.440   2.889  20.381  0.00  0.00    +0.000 C 
ENDBRANCH   3  15
BRANCH   4  21
ATOM     21  C   UNL     1       2.092   6.344  19.798  0.00  0.00    +0.000 C 
ATOM     22  N   UNL     1       1.412   6.693  20.673  0.00  0.00    +0.000 NA
ENDBRANCH   4  21
TORSDOF 3
ENDMDL
MODEL 5
REMARK VINA RESULT:      -7.4      3.056      6.786
REMARK  Name = 
REMARK  5 active torsions:
REMARK  status: ('A' for Active; 'I' for Inactive)
REMARK    1  A    between atoms: C_1  and  C_2
REMARK    2  A    between atoms: C_4  and  C_5
REMARK    3  A    between atoms: C_7  and  N_8
REMARK    4  A    between atoms: C_14  and  C_15
REMARK    5  A    between atoms: C_20  and  C_21
REMARK                            x       y       z     vdW  Elec       q    Type
REMARK                         _______ _______ _______ _____ _____    ______ ____
ROOT
ATOM      1  C   UNL     1       4.356   5.532  17.020  0.00  0.00    +0.000 A 
ATOM      2  C   UNL     1       3.605   4.851  17.897  0.00  0.00    +0.000 A 
ATOM      3  C   UNL     1       2.720   5.537  18.818  0.00  0.00    +0.000 A 
ATOM      4  C   UNL     1       2.667   6.886  18.762  0.00  0.00    +0.000 A 
ATOM      5  C   UNL     1       3.465   7.643  17.775  0.00  0.00    +0.000 A 
ATOM      6  O   UNL     1       3.407   8.867  17.694  0.00  0.00    +0.000 OA
ATOM      7  O   UNL     1       4.281   6.933  16.947  0.00  0.00    +0.000 OA
ENDROOT
BRANCH   1  11
ATOM      8  C   UNL     1       6.568   3.737  12.821  0.00  0.00    +0.000 C 
ATOM      9  C   UNL     1       6.156   4.161  14.173  0.00  0.00    +0.000 A 
ATOM     10  C   UNL     1       4.974   4.624  14.710  0.00  0.00    +0.000 A 
ATOM     11  C   UNL     1       5.246   4.951  16.067  0.00  0.00    +0.000 A 
ATOM     12  C   UNL     1       6.572   4.607  16.283  0.00  0.00    +0.000 A 
ATOM     13  C   UNL     1       7.485   4.633  17.446  0.00  0.00    +0.000 C 
ATOM     14  O   UNL     1       7.122   4.130  15.129  0.00  0.00    +0.000 OA
ENDBRANCH   1  11
BRANCH   3  15
ATOM     15  N   UNL     1       1.988   4.720  19.687  0.00  0.00    +0.000 N 
ATOM     16  C   UNL     1       2.163   4.730  21.148  0.00  0.00    +0.000 C 
ATOM     17  C   UNL     1       2.611   3.351  21.633  0.00  0.00    +0.000 C 
ATOM     18  C   UNL     1       1.673   2.247  21.147  0.00  0.00    +0.000 C 
ATOM     19  C   UNL     1       1.440   2.338  19.639  0.00  0.00    +0.000 C 
ATOM     20  C   UNL     1       0.993   3.741  19.222  0.00  0.00    +0.000 C 
ENDBRANCH   3  15
BRANCH   4  21
ATOM     21  C   UNL     1       1.900   7.657  19.673  0.00  0.00    +0.000 C 
ATOM     22  N   UNL     1       1.278   8.285  20.428  0.00  0.00    +0.000 NA
ENDBRANCH   4  21
TORSDOF 3
ENDMDL
MODEL 6
REMARK VINA RESULT:      -7.3      1.314      2.111
REMARK  Name = 
REMARK  5 active torsions:
REMARK  status: ('A' for Active; 'I' for Inactive)
REMARK    1  A    between atoms: C_1  and  C_2
REMARK    2  A    between atoms: C_4  and  C_5
REMARK    3  A    between atoms: C_7  and  N_8
REMARK    4  A    between atoms: C_14  and  C_15
REMARK    5  A    between atoms: C_20  and  C_21
REMARK                            x       y       z     vdW  Elec       q    Type
REMARK                         _______ _______ _______ _____ _____    ______ ____
ROOT
ATOM      1  C   UNL     1       2.258   7.444  19.350  0.00  0.00    +0.000 A 
ATOM      2  C   UNL     1       3.257   7.232  18.482  0.00  0.00    +0.000 A 
ATOM      3  C   UNL     1       3.992   5.982  18.474  0.00  0.00    +0.000 A 
ATOM      4  C   UNL     1       3.634   5.030  19.364  0.00  0.00    +0.000 A 
ATOM      5  C   UNL     1       2.511   5.241  20.301  0.00  0.00    +0.000 A 
ATOM      6  O   UNL     1       2.157   4.376  21.097  0.00  0.00    +0.000 OA
ATOM      7  O   UNL     1       1.872   6.443  20.258  0.00  0.00    +0.000 OA
ENDROOT
BRANCH   1  11
ATOM      8  C   UNL     1      -0.638  11.493  18.367  0.00  0.00    +0.000 C 
ATOM      9  C   UNL     1       0.203  10.413  18.919  0.00  0.00    +0.000 A 
ATOM     10  C   UNL     1       0.969   9.417  18.354  0.00  0.00    +0.000 A 
ATOM     11  C   UNL     1       1.469   8.631  19.429  0.00  0.00    +0.000 A 
ATOM     12  C   UNL     1       1.018   9.243  20.589  0.00  0.00    +0.000 A 
ATOM     13  C   UNL     1       1.189   8.998  22.037  0.00  0.00    +0.000 C 
ATOM     14  O   UNL     1       0.246  10.323  20.275  0.00  0.00    +0.000 OA
ENDBRANCH   1  11
BRANCH   3  15
ATOM     15  N   UNL     1       5.013   5.877  17.524  0.00  0.00    +0.000 N 
ATOM     16  C   UNL     1       4.821   5.289  16.189  0.00  0.00    +0.000 C 
ATOM     17  C   UNL     1       5.728   4.071  16.015  0.00  0.00    +0.000 C 
ATOM     18  C   UNL     1       7.188   4.404  16.321  0.00  0.00    +0.000 C 
ATOM     19  C   UNL     1       7.329   5.106  17.672  0.00  0.00    +0.000 C 
ATOM     20  C   UNL     1       6.396   6.314  17.779  0.00  0.00    +0.000 C 
ENDBRANCH   3  15
BRANCH   4  21
ATOM     21  C   UNL     1       4.341   3.807  19.497  0.00  0.00    +0.000 C 
ATOM     22  N   UNL     1       4.922   2.808  19.616  0.00  0.00    +0.000 NA
ENDBRANCH   4  21
TORSDOF 3
ENDMDL
MODEL 7
REMARK VINA RESULT:      -7.1      0.982      1.681
REMARK  Name = 
REMARK  5 active torsions:
REMARK  status: ('A' for Active; 'I' for Inactive)
REMARK    1  A    between atoms: C_1  and  C_2
REMARK    2  A    between atoms: C_4  and  C_5
REMARK    3  A    between atoms: C_7  and  N_8
REMARK    4  A    between atoms: C_14  and  C_15
REMARK    5  A    between atoms: C_20  and  C_21
REMARK                            x       y       z     vdW  Elec       q    Type
REMARK                         _______ _______ _______ _____ _____    ______ ____
ROOT
ATOM      1  C   UNL     1       2.541   6.709  19.435  0.00  0.00    +0.000 A 
ATOM      2  C   UNL     1       3.541   6.319  18.632  0.00  0.00    +0.000 A 
ATOM      3  C   UNL     1       4.145   5.008  18.768  0.00  0.00    +0.000 A 
ATOM      4  C   UNL     1       3.665   4.184  19.725  0.00  0.00    +0.000 A 
ATOM      5  C   UNL     1       2.539   4.591  20.592  0.00  0.00    +0.000 A 
ATOM      6  O   UNL     1       2.075   3.844  21.448  0.00  0.00    +0.000 OA
ATOM      7  O   UNL     1       2.027   5.841  20.414  0.00  0.00    +0.000 OA
ENDROOT
BRANCH   1  11
ATOM      8  C   UNL     1       0.194  10.958  17.960  0.00  0.00    +0.000 C 
ATOM      9  C   UNL     1       0.858   9.835  18.648  0.00  0.00    +0.000 A 
ATOM     10  C   UNL     1       1.572   8.739  18.216  0.00  0.00    +0.000 A 
ATOM     11  C   UNL     1       1.874   7.970  19.374  0.00  0.00    +0.000 A 
ATOM     12  C   UNL     1       1.371   8.686  20.449  0.00  0.00    +0.000 A 
ATOM     13  C   UNL     1       1.364   8.508  21.917  0.00  0.00    +0.000 C 
ATOM     14  O   UNL     1       0.751   9.817  20.003  0.00  0.00    +0.000 OA
ENDBRANCH   1  11
BRANCH   3  15
ATOM     15  N   UNL     1       5.181   4.715  17.874  0.00  0.00    +0.000 N 
ATOM     16  C   UNL     1       6.591   5.049  18.130  0.00  0.00    +0.000 C 
ATOM     17  C   UNL     1       7.109   6.003  17.055  0.00  0.00    +0.000 C 
ATOM     18  C   UNL     1       6.867   5.457  15.648  0.00  0.00    +0.000 C 
ATOM     19  C   UNL     1       5.411   5.028  15.460  0.00  0.00    +0.000 C 
ATOM     20  C   UNL     1       4.958   4.075  16.568  0.00  0.00    +0.000 C 
ENDBRANCH   3  15
BRANCH   4  21
ATOM     21  C   UNL     1       4.240   2.915  19.997  0.00  0.00    +0.000 C 
ATOM     22  N   UNL     1       4.719   1.882  20.226  0.00  0.00    +0.000 NA
ENDBRANCH   4  21
TORSDOF 3
ENDMDL
MODEL 8
REMARK VINA RESULT:      -7.0      1.730      2.464
REMARK  Name = 
REMARK  5 active torsions:
REMARK  status: ('A' for Active; 'I' for Inactive)
REMARK    1  A    between atoms: C_1  and  C_2
REMARK    2  A    between atoms: C_4  and  C_5
REMARK    3  A    between atoms: C_7  and  N_8
REMARK    4  A    between atoms: C_14  and  C_15
REMARK    5  A    between atoms: C_20  and  C_21
REMARK                            x       y       z     vdW  Elec       q    Type
REMARK                         _______ _______ _______ _____ _____    ______ ____
ROOT
ATOM      1  C   UNL     1       2.372   7.501  18.595  0.00  0.00    +0.000 A 
ATOM      2  C   UNL     1       3.492   7.355  17.874  0.00  0.00    +0.000 A 
ATOM      3  C   UNL     1       4.006   6.040  17.543  0.00  0.00    +0.000 A 
ATOM      4  C   UNL     1       3.317   4.962  17.977  0.00  0.00    +0.000 A 
ATOM      5  C   UNL     1       2.061   5.113  18.742  0.00  0.00    +0.000 A 
ATOM      6  O   UNL     1       1.411   4.143  19.120  0.00  0.00    +0.000 OA
ATOM      7  O   UNL     1       1.643   6.378  19.024  0.00  0.00    +0.000 OA
ENDROOT
BRANCH   1  11
ATOM      8  C   UNL     1       0.358  12.157  18.640  0.00  0.00    +0.000 C 
ATOM      9  C   UNL     1       0.914  10.818  18.908  0.00  0.00    +0.000 A 
ATOM     10  C   UNL     1       1.594   9.896  18.143  0.00  0.00    +0.000 A 
ATOM     11  C   UNL     1       1.779   8.747  18.961  0.00  0.00    +0.000 A 
ATOM     12  C   UNL     1       1.248   9.073  20.199  0.00  0.00    +0.000 A 
ATOM     13  C   UNL     1       1.137   8.388  21.505  0.00  0.00    +0.000 C 
ATOM     14  O   UNL     1       0.720  10.330  20.162  0.00  0.00    +0.000 OA
ENDBRANCH   1  11
BRANCH   3  15
ATOM     15  N   UNL     1       5.183   6.015  16.787  0.00  0.00    +0.000 N 
ATOM     16  C   UNL     1       5.202   6.037  15.317  0.00  0.00    +0.000 C 
ATOM     17  C   UNL     1       5.865   4.770  14.779  0.00  0.00    +0.000 C 
ATOM     18  C   UNL     1       7.247   4.548  15.395  0.00  0.00    +0.000 C 
ATOM     19  C   UNL     1       7.197   4.635  16.920  0.00  0.00    +0.000 C 
ATOM     20  C   UNL     1       6.523   5.926  17.390  0.00  0.00    +0.000 C 
ENDBRANCH   3  15
BRANCH   4  21
ATOM     21  C   UNL     1       3.778   3.634  17.781  0.00  0.00    +0.000 C 
ATOM     22  N   UNL     1       4.148   2.543  17.630  0.00  0.00    +0.000 NA
ENDBRANCH   4  21
TORSDOF 3
ENDMDL
MODEL 9
REMARK VINA RESULT:      -6.9      1.460      2.029
REMARK  Name = 
REMARK  5 active torsions:
REMARK  status: ('A' for Active; 'I' for Inactive)
REMARK    1  A    between atoms: C_1  and  C_2
REMARK    2  A    between atoms: C_4  and  C_5
REMARK    3  A    between atoms: C_7  and  N_8
REMARK    4  A    between atoms: C_14  and  C_15
REMARK    5  A    between atoms: C_20  and  C_21
REMARK                            x       y       z     vdW  Elec       q    Type
REMARK                         _______ _______ _______ _____ _____    ______ ____
ROOT
ATOM      1  C   UNL     1       2.555   6.510  18.733  0.00  0.00    +0.000 A 
ATOM      2  C   UNL     1       3.648   6.104  18.072  0.00  0.00    +0.000 A 
ATOM      3  C   UNL     1       3.971   4.696  17.949  0.00  0.00    +0.000 A 
ATOM      4  C   UNL     1       3.132   3.800  18.516  0.00  0.00    +0.000 A 
ATOM      5  C   UNL     1       1.907   4.236  19.217  0.00  0.00    +0.000 A 
ATOM      6  O   UNL     1       1.122   3.433  19.713  0.00  0.00    +0.000 OA
ATOM      7  O   UNL     1       1.672   5.575  19.301  0.00  0.00    +0.000 OA
ENDROOT
BRANCH   1  11
ATOM      8  C   UNL     1       1.376  11.400  18.076  0.00  0.00    +0.000 C 
ATOM      9  C   UNL     1       1.659  10.029  18.539  0.00  0.00    +0.000 A 
ATOM     10  C   UNL     1       2.259   8.931  17.962  0.00  0.00    +0.000 A 
ATOM     11  C   UNL     1       2.144   7.867  18.899  0.00  0.00    +0.000 A 
ATOM     12  C   UNL     1       1.529   8.409  20.017  0.00  0.00    +0.000 A 
ATOM     13  C   UNL     1       1.145   7.901  21.352  0.00  0.00    +0.000 C 
ATOM     14  O   UNL     1       1.233   9.722  19.793  0.00  0.00    +0.000 OA
ENDBRANCH   1  11
BRANCH   3  15
ATOM     15  N   UNL     1       5.137   4.395  17.237  0.00  0.00    +0.000 N 
ATOM     16  C   UNL     1       6.490   4.672  17.744  0.00  0.00    +0.000 C 
ATOM     17  C   UNL     1       7.214   5.640  16.809  0.00  0.00    +0.000 C 
ATOM     18  C   UNL     1       7.204   5.146  15.362  0.00  0.00    +0.000 C 
ATOM     19  C   UNL     1       5.791   4.773  14.911  0.00  0.00    +0.000 C 
ATOM     20  C   UNL     1       5.125   3.802  15.890  0.00  0.00    +0.000 C 
ENDBRANCH   3  15
BRANCH   4  21
ATOM     21  C   UNL     1       3.401   2.407  18.527  0.00  0.00    +0.000 C 
ATOM     22  N   UNL     1       3.624   1.266  18.525  0.00  0.00    +0.000 NA
ENDBRANCH   4  21
TORSDOF 3
ENDMDL
