MODEL 1
REMARK VINA RESULT:      -7.3      0.000      0.000
REMARK  Name = 
REMARK  5 active torsions:
REMARK  status: ('A' for Active; 'I' for Inactive)
REMARK    1  A    between atoms: C_1  and  C_2
REMARK    2  A    between atoms: C_7  and  C_9
REMARK    3  A    between atoms: C_9  and  N_10
REMARK    4  A    between atoms: N_10  and  S_11
REMARK    5  A    between atoms: S_11  and  C_14
REMARK                            x       y       z     vdW  Elec       q    Type
REMARK                         _______ _______ _______ _____ _____    ______ ____
ROOT
ATOM      1  C   UNL     1       3.842   4.760  17.064  0.00  0.00    +0.000 C 
ENDROOT
BRANCH   1   8
ATOM      2  C   UNL     1       1.891   5.691  20.393  0.00  0.00    +0.000 C 
ATOM      3  C   UNL     1       2.628   4.455  20.924  0.00  0.00    +0.000 C 
ATOM      4  C   UNL     1       1.646   3.377  21.408  0.00  0.00    +0.000 C 
ATOM      5  C   UNL     1       0.889   2.729  20.248  0.00  0.00    +0.000 C 
ATOM      6  C   UNL     1       1.849   2.222  19.171  0.00  0.00    +0.000 C 
ATOM      7  N   UNL     1       2.791   3.266  18.765  0.00  0.00    +0.000 N 
ATOM      8  C   UNL     1       2.855   3.651  17.427  0.00  0.00    +0.000 C 
ATOM      9  O   UNL     1       2.146   3.131  16.565  0.00  0.00    +0.000 OA
ATOM     10  C   UNL     1       3.561   3.859  19.862  0.00  0.00    +0.000 C 
ENDBRANCH   1   8
BRANCH   1  11
ATOM     11  N   UNL     1       4.882   4.270  16.138  0.00  0.00    +0.000 NA
ATOM     12  H   UNL     1       4.489   3.737  15.354  0.00  0.00    +0.000 HD
BRANCH  11  13
ATOM     13  S   UNL     1       5.959   5.443  15.599  0.00  0.00    +0.000 S 
ATOM     14  O   UNL     1       6.909   4.782  14.744  0.00  0.00    +0.000 OA
ATOM     15  O   UNL     1       5.167   6.570  15.139  0.00  0.00    +0.000 OA
BRANCH  13  16
ATOM     16  C   UNL     1       6.901   5.978  17.014  0.00  0.00    +0.000 A 
ATOM     17  C   UNL     1       7.403   7.222  17.365  0.00  0.00    +0.000 A 
ATOM     18  C   UNL     1       8.108   7.194  18.603  0.00  0.00    +0.000 A 
ATOM     19  C   UNL     1       8.123   5.934  19.158  0.00  0.00    +0.000 A 
ATOM     20  S   UNL     1       7.283   4.800  18.194  0.00  0.00    +0.000 S 
ENDBRANCH  13  16
ENDBRANCH  11  13
ENDBRANCH   1  11
TORSDOF 4
ENDMDL
MODEL 2
REMARK VINA RESULT:      -7.3      2.726      3.849
REMARK  Name = 
REMARK  5 active torsions:
REMARK  status: ('A' for Active; 'I' for Inactive)
REMARK    1  A    between atoms: C_1  and  C_2
REMARK    2  A    between atoms: C_7  and  C_9
REMARK    3  A    between atoms: C_9  and  N_10
REMARK    4  A    between atoms: N_10  and  S_11
REMARK    5  A    between atoms: S_11  and  C_14
REMARK                            x       y       z     vdW  Elec       q    Type
REMARK                         _______ _______ _______ _____ _____    ______ ____
ROOT
ATOM      1  C   UNL     1       4.819   3.761  17.221  0.00  0.00    +0.000 C 
ENDROOT
BRANCH   1   8
ATOM      2  C   UNL     1       1.612   1.947  18.698  0.00  0.00    +0.000 C 
ATOM      3  C   UNL     1       1.092   3.387  18.781  0.00  0.00    +0.000 C 
ATOM      4  C   UNL     1       0.748   3.780  20.226  0.00  0.00    +0.000 C 
ATOM      5  C   UNL     1       1.999   3.924  21.094  0.00  0.00    +0.000 C 
ATOM      6  C   UNL     1       3.021   4.860  20.448  0.00  0.00    +0.000 C 
ATOM      7  N   UNL     1       3.293   4.474  19.062  0.00  0.00    +0.000 N 
ATOM      8  C   UNL     1       4.598   4.177  18.675  0.00  0.00    +0.000 C 
ATOM      9  O   UNL     1       5.542   4.238  19.464  0.00  0.00    +0.000 OA
ATOM     10  C   UNL     1       2.106   4.385  18.206  0.00  0.00    +0.000 C 
ENDBRANCH   1   8
BRANCH   1  11
ATOM     11  N   UNL     1       6.209   4.019  16.796  0.00  0.00    +0.000 NA
ATOM     12  H   UNL     1       6.685   3.168  16.476  0.00  0.00    +0.000 HD
BRANCH  11  13
ATOM     13  S   UNL     1       6.389   5.272  15.689  0.00  0.00    +0.000 S 
ATOM     14  O   UNL     1       5.173   6.040  15.719  0.00  0.00    +0.000 OA
ATOM     15  O   UNL     1       7.686   5.878  15.939  0.00  0.00    +0.000 OA
BRANCH  13  16
ATOM     16  C   UNL     1       6.435   4.536  14.067  0.00  0.00    +0.000 A 
ATOM     17  C   UNL     1       5.606   3.606  13.458  0.00  0.00    +0.000 A 
ATOM     18  C   UNL     1       6.022   3.295  12.131  0.00  0.00    +0.000 A 
ATOM     19  C   UNL     1       7.151   3.994  11.768  0.00  0.00    +0.000 A 
ATOM     20  S   UNL     1       7.695   5.024  13.019  0.00  0.00    +0.000 S 
ENDBRANCH  13  16
ENDBRANCH  11  13
ENDBRANCH   1  11
TORSDOF 4
ENDMDL
MODEL 3
REMARK VINA RESULT:      -7.2      2.367      3.263
REMARK  Name = 
REMARK  5 active torsions:
REMARK  status: ('A' for Active; 'I' for Inactive)
REMARK    1  A    between atoms: C_1  and  C_2
REMARK    2  A    between atoms: C_7  and  C_9
REMARK    3  A    between atoms: C_9  and  N_10
REMARK    4  A    between atoms: N_10  and  S_11
REMARK    5  A    between atoms: S_11  and  C_14
REMARK                            x       y       z     vdW  Elec       q    Type
REMARK                         _______ _______ _______ _____ _____    ______ ____
ROOT
ATOM      1  C   UNL     1       5.011   4.396  18.006  0.00  0.00    +0.000 C 
ENDROOT
BRANCH   1   8
ATOM      2  C   UNL     1       2.164   5.225  20.646  0.00  0.00    +0.000 C 
ATOM      3  C   UNL     1       2.401   3.765  21.048  0.00  0.00    +0.000 C 
ATOM      4  C   UNL     1       1.126   2.922  20.894  0.00  0.00    +0.000 C 
ATOM      5  C   UNL     1       0.753   2.711  19.425  0.00  0.00    +0.000 C 
ATOM      6  C   UNL     1       1.934   2.160  18.625  0.00  0.00    +0.000 C 
ATOM      7  N   UNL     1       3.137   2.968  18.829  0.00  0.00    +0.000 N 
ATOM      8  C   UNL     1       3.770   3.547  17.731  0.00  0.00    +0.000 C 
ATOM      9  O   UNL     1       3.353   3.393  16.582  0.00  0.00    +0.000 OA
ATOM     10  C   UNL     1       3.535   3.133  20.230  0.00  0.00    +0.000 C 
ENDBRANCH   1   8
BRANCH   1  11
ATOM     11  N   UNL     1       6.068   4.139  17.009  0.00  0.00    +0.000 NA
ATOM     12  H   UNL     1       5.954   3.233  16.542  0.00  0.00    +0.000 HD
BRANCH  11  13
ATOM     13  S   UNL     1       6.305   5.375  15.894  0.00  0.00    +0.000 S 
ATOM     14  O   UNL     1       5.107   6.172  15.887  0.00  0.00    +0.000 OA
ATOM     15  O   UNL     1       7.609   5.952  16.167  0.00  0.00    +0.000 OA
BRANCH  13  16
ATOM     16  C   UNL     1       6.370   4.619  14.281  0.00  0.00    +0.000 A 
ATOM     17  C   UNL     1       5.523   3.718  13.655  0.00  0.00    +0.000 A 
ATOM     18  C   UNL     1       5.967   3.375  12.345  0.00  0.00    +0.000 A 
ATOM     19  C   UNL     1       7.135   4.022  12.012  0.00  0.00    +0.000 A 
ATOM     20  S   UNL     1       7.683   5.043  13.269  0.00  0.00    +0.000 S 
ENDBRANCH  13  16
ENDBRANCH  11  13
ENDBRANCH   1  11
TORSDOF 4
ENDMDL
MODEL 4
REMARK VINA RESULT:      -7.1      2.611      3.665
REMARK  Name = 
REMARK  5 active torsions:
REMARK  status: ('A' for Active; 'I' for Inactive)
REMARK    1  A    between atoms: C_1  and  C_2
REMARK    2  A    between atoms: C_7  and  C_9
REMARK    3  A    between atoms: C_9  and  N_10
REMARK    4  A    between atoms: N_10  and  S_11
REMARK    5  A    between atoms: S_11  and  C_14
REMARK                            x       y       z     vdW  Elec       q    Type
REMARK                         _______ _______ _______ _____ _____    ______ ____
ROOT
ATOM      1  C   UNL     1       4.927   4.383  17.464  0.00  0.00    +0.000 C 
ENDROOT
BRANCH   1   8
ATOM      2  C   UNL     1       2.188   1.884  18.881  0.00  0.00    +0.000 C 
ATOM      3  C   UNL     1       1.290   3.119  18.745  0.00  0.00    +0.000 C 
ATOM      4  C   UNL     1       0.690   3.533  20.097  0.00  0.00    +0.000 C 
ATOM      5  C   UNL     1       1.749   4.106  21.042  0.00  0.00    +0.000 C 
ATOM      6  C   UNL     1       2.544   5.227  20.373  0.00  0.00    +0.000 C 
ATOM      7  N   UNL     1       3.066   4.806  19.072  0.00  0.00    +0.000 N 
ATOM      8  C   UNL     1       4.438   4.855  18.833  0.00  0.00    +0.000 C 
ATOM      9  O   UNL     1       5.234   5.254  19.684  0.00  0.00    +0.000 OA
ATOM     10  C   UNL     1       2.053   4.304  18.138  0.00  0.00    +0.000 C 
ENDBRANCH   1   8
BRANCH   1  11
ATOM     11  N   UNL     1       5.430   5.512  16.657  0.00  0.00    +0.000 NA
ATOM     12  H   UNL     1       5.241   6.421  17.093  0.00  0.00    +0.000 HD
BRANCH  11  13
ATOM     13  S   UNL     1       7.040   5.384  16.188  0.00  0.00    +0.000 S 
ATOM     14  O   UNL     1       7.596   6.711  16.222  0.00  0.00    +0.000 OA
ATOM     15  O   UNL     1       7.620   4.290  16.946  0.00  0.00    +0.000 OA
BRANCH  13  16
ATOM     16  C   UNL     1       7.048   4.920  14.467  0.00  0.00    +0.000 A 
ATOM     17  C   UNL     1       7.847   5.328  13.411  0.00  0.00    +0.000 A 
ATOM     18  C   UNL     1       7.498   4.689  12.186  0.00  0.00    +0.000 A 
ATOM     19  C   UNL     1       6.445   3.815  12.344  0.00  0.00    +0.000 A 
ATOM     20  S   UNL     1       5.895   3.762  13.961  0.00  0.00    +0.000 S 
ENDBRANCH  13  16
ENDBRANCH  11  13
ENDBRANCH   1  11
TORSDOF 4
ENDMDL
MODEL 5
REMARK VINA RESULT:      -6.9      2.672      3.645
REMARK  Name = 
REMARK  5 active torsions:
REMARK  status: ('A' for Active; 'I' for Inactive)
REMARK    1  A    between atoms: C_1  and  C_2
REMARK    2  A    between atoms: C_7  and  C_9
REMARK    3  A    between atoms: C_9  and  N_10
REMARK    4  A    between atoms: N_10  and  S_11
REMARK    5  A    between atoms: S_11  and  C_14
REMARK                            x       y       z     vdW  Elec       q    Type
REMARK                         _______ _______ _______ _____ _____    ______ ____
ROOT
ATOM      1  C   UNL     1       5.250   4.989  18.326  0.00  0.00    +0.000 C 
ENDROOT
BRANCH   1   8
ATOM      2  C   UNL     1       1.412   4.175  17.726  0.00  0.00    +0.000 C 
ATOM      3  C   UNL     1       1.286   4.728  19.151  0.00  0.00    +0.000 C 
ATOM      4  C   UNL     1       0.699   3.684  20.113  0.00  0.00    +0.000 C 
ATOM      5  C   UNL     1       1.679   2.540  20.383  0.00  0.00    +0.000 C 
ATOM      6  C   UNL     1       3.041   3.068  20.833  0.00  0.00    +0.000 C 
ATOM      7  N   UNL     1       3.547   4.087  19.912  0.00  0.00    +0.000 N 
ATOM      8  C   UNL     1       4.782   3.902  19.294  0.00  0.00    +0.000 C 
ATOM      9  O   UNL     1       5.474   2.905  19.505  0.00  0.00    +0.000 OA
ATOM     10  C   UNL     1       2.639   5.215  19.686  0.00  0.00    +0.000 C 
ENDBRANCH   1   8
BRANCH   1  11
ATOM     11  N   UNL     1       5.423   4.453  16.962  0.00  0.00    +0.000 NA
ATOM     12  H   UNL     1       4.561   4.507  16.408  0.00  0.00    +0.000 HD
BRANCH  11  13
ATOM     13  S   UNL     1       6.732   5.083  16.115  0.00  0.00    +0.000 S 
ATOM     14  O   UNL     1       6.540   6.506  16.038  0.00  0.00    +0.000 OA
ATOM     15  O   UNL     1       7.932   4.501  16.691  0.00  0.00    +0.000 OA
BRANCH  13  16
ATOM     16  C   UNL     1       6.597   4.503  14.435  0.00  0.00    +0.000 A 
ATOM     17  C   UNL     1       5.674   3.669  13.824  0.00  0.00    +0.000 A 
ATOM     18  C   UNL     1       5.955   3.469  12.442  0.00  0.00    +0.000 A 
ATOM     19  C   UNL     1       7.079   4.154  12.040  0.00  0.00    +0.000 A 
ATOM     20  S   UNL     1       7.781   5.039  13.323  0.00  0.00    +0.000 S 
ENDBRANCH  13  16
ENDBRANCH  11  13
ENDBRANCH   1  11
TORSDOF 4
ENDMDL
MODEL 6
REMARK VINA RESULT:      -6.9      2.242      2.978
REMARK  Name = 
REMARK  5 active torsions:
REMARK  status: ('A' for Active; 'I' for Inactive)
REMARK    1  A    between atoms: C_1  and  C_2
REMARK    2  A    between atoms: C_7  and  C_9
REMARK    3  A    between atoms: C_9  and  N_10
REMARK    4  A    between atoms: N_10  and  S_11
REMARK    5  A    between atoms: S_11  and  C_14
REMARK                            x       y       z     vdW  Elec       q    Type
REMARK                         _______ _______ _______ _____ _____    ______ ____
ROOT
ATOM      1  C   UNL     1       5.036   4.745  18.219  0.00  0.00    +0.000 C 
ENDROOT
BRANCH   1   8
ATOM      2  C   UNL     1       2.005   5.327  20.716  0.00  0.00    +0.000 C 
ATOM      3  C   UNL     1       2.308   3.872  21.094  0.00  0.00    +0.000 C 
ATOM      4  C   UNL     1       1.096   2.961  20.846  0.00  0.00    +0.000 C 
ATOM      5  C   UNL     1       0.817   2.772  19.354  0.00  0.00    +0.000 C 
ATOM      6  C   UNL     1       2.071   2.314  18.607  0.00  0.00    +0.000 C 
ATOM      7  N   UNL     1       3.210   3.185  18.899  0.00  0.00    +0.000 N 
ATOM      8  C   UNL     1       3.865   3.833  17.853  0.00  0.00    +0.000 C 
ATOM      9  O   UNL     1       3.521   3.688  16.680  0.00  0.00    +0.000 OA
ATOM     10  C   UNL     1       3.521   3.333  20.324  0.00  0.00    +0.000 C 
ENDBRANCH   1   8
BRANCH   1  11
ATOM     11  N   UNL     1       5.418   5.608  17.084  0.00  0.00    +0.000 NA
ATOM     12  H   UNL     1       5.169   6.591  17.238  0.00  0.00    +0.000 HD
BRANCH  11  13
ATOM     13  S   UNL     1       7.016   5.454  16.585  0.00  0.00    +0.000 S 
ATOM     14  O   UNL     1       7.584   6.776  16.576  0.00  0.00    +0.000 OA
ATOM     15  O   UNL     1       7.602   4.373  17.358  0.00  0.00    +0.000 OA
BRANCH  13  16
ATOM     16  C   UNL     1       6.985   4.949  14.876  0.00  0.00    +0.000 A 
ATOM     17  C   UNL     1       7.714   5.379  13.779  0.00  0.00    +0.000 A 
ATOM     18  C   UNL     1       7.357   4.689  12.585  0.00  0.00    +0.000 A 
ATOM     19  C   UNL     1       6.370   3.756  12.806  0.00  0.00    +0.000 A 
ATOM     20  S   UNL     1       5.888   3.709  14.445  0.00  0.00    +0.000 S 
ENDBRANCH  13  16
ENDBRANCH  11  13
ENDBRANCH   1  11
TORSDOF 4
ENDMDL
MODEL 7
REMARK VINA RESULT:      -6.9      2.285      3.230
REMARK  Name = 
REMARK  5 active torsions:
REMARK  status: ('A' for Active; 'I' for Inactive)
REMARK    1  A    between atoms: C_1  and  C_2
REMARK    2  A    between atoms: C_7  and  C_9
REMARK    3  A    between atoms: C_9  and  N_10
REMARK    4  A    between atoms: N_10  and  S_11
REMARK    5  A    between atoms: S_11  and  C_14
REMARK                            x       y       z     vdW  Elec       q    Type
REMARK                         _______ _______ _______ _____ _____    ______ ____
ROOT
ATOM      1  C   UNL     1       5.301   5.088  19.264  0.00  0.00    +0.000 C 
ENDROOT
BRANCH   1   8
ATOM      2  C   UNL     1       2.310   3.442  21.291  0.00  0.00    +0.000 C 
ATOM      3  C   UNL     1       2.365   2.428  20.142  0.00  0.00    +0.000 C 
ATOM      4  C   UNL     1       1.034   2.369  19.376  0.00  0.00    +0.000 C 
ATOM      5  C   UNL     1       0.784   3.642  18.565  0.00  0.00    +0.000 C 
ATOM      6  C   UNL     1       1.976   3.972  17.666  0.00  0.00    +0.000 C 
ATOM      7  N   UNL     1       3.227   3.980  18.425  0.00  0.00    +0.000 N 
ATOM      8  C   UNL     1       4.015   5.130  18.439  0.00  0.00    +0.000 C 
ATOM      9  O   UNL     1       3.696   6.146  17.820  0.00  0.00    +0.000 OA
ATOM     10  C   UNL     1       3.504   2.746  19.165  0.00  0.00    +0.000 C 
ENDBRANCH   1   8
BRANCH   1  11
ATOM     11  N   UNL     1       6.276   4.142  18.688  0.00  0.00    +0.000 NA
ATOM     12  H   UNL     1       5.825   3.369  18.188  0.00  0.00    +0.000 HD
BRANCH  11  13
ATOM     13  S   UNL     1       7.482   4.851  17.755  0.00  0.00    +0.000 S 
ATOM     14  O   UNL     1       7.434   6.266  18.007  0.00  0.00    +0.000 OA
ATOM     15  O   UNL     1       8.693   4.075  17.962  0.00  0.00    +0.000 OA
BRANCH  13  16
ATOM     16  C   UNL     1       7.001   4.665  16.049  0.00  0.00    +0.000 A 
ATOM     17  C   UNL     1       7.522   5.207  14.884  0.00  0.00    +0.000 A 
ATOM     18  C   UNL     1       6.815   4.782  13.723  0.00  0.00    +0.000 A 
ATOM     19  C   UNL     1       5.778   3.931  14.034  0.00  0.00    +0.000 A 
ATOM     20  S   UNL     1       5.671   3.641  15.716  0.00  0.00    +0.000 S 
ENDBRANCH  13  16
ENDBRANCH  11  13
ENDBRANCH   1  11
TORSDOF 4
ENDMDL
MODEL 8
REMARK VINA RESULT:      -6.9      2.637      3.717
REMARK  Name = 
REMARK  5 active torsions:
REMARK  status: ('A' for Active; 'I' for Inactive)
REMARK    1  A    between atoms: C_1  and  C_2
REMARK    2  A    between atoms: C_7  and  C_9
REMARK    3  A    between atoms: C_9  and  N_10
REMARK    4  A    between atoms: N_10  and  S_11
REMARK    5  A    between atoms: S_11  and  C_14
REMARK                            x       y       z     vdW  Elec       q    Type
REMARK                         _______ _______ _______ _____ _____    ______ ____
ROOT
ATOM      1  C   UNL     1       4.808   5.910  17.868  0.00  0.00    +0.000 C 
ENDROOT
BRANCH   1   8
ATOM      2  C   UNL     1       4.009   2.635  19.964  0.00  0.00    +0.000 C 
ATOM      3  C   UNL     1       3.435   2.167  18.621  0.00  0.00    +0.000 C 
ATOM      4  C   UNL     1       1.940   1.831  18.732  0.00  0.00    +0.000 C 
ATOM      5  C   UNL     1       1.086   3.084  18.938  0.00  0.00    +0.000 C 
ATOM      6  C   UNL     1       1.384   4.141  17.874  0.00  0.00    +0.000 C 
ATOM      7  N   UNL     1       2.820   4.404  17.773  0.00  0.00    +0.000 N 
ATOM      8  C   UNL     1       3.297   5.699  17.965  0.00  0.00    +0.000 C 
ATOM      9  O   UNL     1       2.543   6.641  18.210  0.00  0.00    +0.000 OA
ATOM     10  C   UNL     1       3.645   3.218  17.523  0.00  0.00    +0.000 C 
ENDBRANCH   1   8
BRANCH   1  11
ATOM     11  N   UNL     1       5.242   6.033  16.463  0.00  0.00    +0.000 NA
ATOM     12  H   UNL     1       5.208   7.001  16.125  0.00  0.00    +0.000 HD
BRANCH  11  13
ATOM     13  S   UNL     1       6.723   5.318  16.115  0.00  0.00    +0.000 S 
ATOM     14  O   UNL     1       7.691   6.378  16.017  0.00  0.00    +0.000 OA
ATOM     15  O   UNL     1       6.890   4.211  17.040  0.00  0.00    +0.000 OA
BRANCH  13  16
ATOM     16  C   UNL     1       6.605   4.641  14.470  0.00  0.00    +0.000 A 
ATOM     17  C   UNL     1       5.690   3.770  13.900  0.00  0.00    +0.000 A 
ATOM     18  C   UNL     1       5.983   3.492  12.534  0.00  0.00    +0.000 A 
ATOM     19  C   UNL     1       7.109   4.156  12.104  0.00  0.00    +0.000 A 
ATOM     20  S   UNL     1       7.798   5.116  13.340  0.00  0.00    +0.000 S 
ENDBRANCH  13  16
ENDBRANCH  11  13
ENDBRANCH   1  11
TORSDOF 4
ENDMDL
MODEL 9
REMARK VINA RESULT:      -6.8      2.263      3.260
REMARK  Name = 
REMARK  5 active torsions:
REMARK  status: ('A' for Active; 'I' for Inactive)
REMARK    1  A    between atoms: C_1  and  C_2
REMARK    2  A    between atoms: C_7  and  C_9
REMARK    3  A    between atoms: C_9  and  N_10
REMARK    4  A    between atoms: N_10  and  S_11
REMARK    5  A    between atoms: S_11  and  C_14
REMARK                            x       y       z     vdW  Elec       q    Type
REMARK                         _______ _______ _______ _____ _____    ______ ____
ROOT
ATOM      1  C   UNL     1       5.218   5.044  19.216  0.00  0.00    +0.000 C 
ENDROOT
BRANCH   1   8
ATOM      2  C   UNL     1       2.184   3.859  21.485  0.00  0.00    +0.000 C 
ATOM      3  C   UNL     1       2.280   2.610  20.600  0.00  0.00    +0.000 C 
ATOM      4  C   UNL     1       0.972   2.360  19.833  0.00  0.00    +0.000 C 
ATOM      5  C   UNL     1       0.735   3.411  18.747  0.00  0.00    +0.000 C 
ATOM      6  C   UNL     1       1.950   3.545  17.828  0.00  0.00    +0.000 C 
ATOM      7  N   UNL     1       3.179   3.744  18.597  0.00  0.00    +0.000 N 
ATOM      8  C   UNL     1       3.956   4.878  18.370  0.00  0.00    +0.000 C 
ATOM      9  O   UNL     1       3.647   5.722  17.527  0.00  0.00    +0.000 OA
ATOM     10  C   UNL     1       3.445   2.714  19.606  0.00  0.00    +0.000 C 
ENDBRANCH   1   8
BRANCH   1  11
ATOM     11  N   UNL     1       6.286   4.127  18.772  0.00  0.00    +0.000 NA
ATOM     12  H   UNL     1       5.917   3.232  18.431  0.00  0.00    +0.000 HD
BRANCH  11  13
ATOM     13  S   UNL     1       7.380   4.791  17.682  0.00  0.00    +0.000 S 
ATOM     14  O   UNL     1       7.296   6.220  17.818  0.00  0.00    +0.000 OA
ATOM     15  O   UNL     1       8.634   4.077  17.847  0.00  0.00    +0.000 OA
BRANCH  13  16
ATOM     16  C   UNL     1       6.766   4.442  16.045  0.00  0.00    +0.000 A 
ATOM     17  C   UNL     1       5.744   3.616  15.605  0.00  0.00    +0.000 A 
ATOM     18  C   UNL     1       5.596   3.641  14.189  0.00  0.00    +0.000 A 
ATOM     19  C   UNL     1       6.507   4.482  13.591  0.00  0.00    +0.000 A 
ATOM     20  S   UNL     1       7.523   5.242  14.736  0.00  0.00    +0.000 S 
ENDBRANCH  13  16
ENDBRANCH  11  13
ENDBRANCH   1  11
TORSDOF 4
ENDMDL
