MODEL 1
REMARK VINA RESULT:      -5.7      0.000      0.000
REMARK  Name = 
REMARK  13 active torsions:
REMARK  status: ('A' for Active; 'I' for Inactive)
REMARK    1  A    between atoms: C_1  and  O_2
REMARK    2  A    between atoms: O_2  and  C_3
REMARK    3  A    between atoms: C_5  and  O_6
REMARK    4  A    between atoms: O_6  and  C_7
REMARK    5  A    between atoms: C_9  and  C_10
REMARK    6  A    between atoms: N_12  and  C_13
REMARK    7  A    between atoms: C_13  and  C_14
REMARK    8  A    between atoms: C_14  and  C_15
REMARK    9  A    between atoms: C_15  and  N_16
REMARK   10  A    between atoms: N_16  and  C_17
REMARK   11  A    between atoms: N_16  and  C_18
REMARK   12  A    between atoms: C_22  and  C_23
REMARK   13  A    between atoms: C_24  and  C_25
REMARK                            x       y       z     vdW  Elec       q    Type
REMARK                         _______ _______ _______ _____ _____    ______ ____
ROOT
ATOM      1  C   UNL     1       1.961  12.156  18.799  0.00  0.00    +0.000 C 
ATOM      2  O   UNL     1       2.732  12.137  17.836  0.00  0.00    +0.000 OA
ATOM      3  N   UNL     1       1.240  10.998  19.200  0.00  0.00    +0.000 N 
ATOM      4  C   UNL     1       0.187  11.198  20.077  0.00  0.00    +0.000 A 
ATOM      5  N   UNL     1      -1.029  11.552  19.736  0.00  0.00    +0.000 NA
ATOM      6  C   UNL     1      -1.779  11.756  20.880  0.00  0.00    +0.000 A 
ATOM      7  C   UNL     1      -3.042  12.411  20.937  0.00  0.00    +0.000 A 
ATOM      8  C   UNL     1      -3.710  12.921  19.686  0.00  0.00    +0.000 C 
ATOM      9  C   UNL     1      -3.592  12.673  22.219  0.00  0.00    +0.000 A 
ATOM     10  C   UNL     1      -4.810  13.539  22.426  0.00  0.00    +0.000 C 
ATOM     11  C   UNL     1      -2.962  12.181  23.372  0.00  0.00    +0.000 A 
ATOM     12  C   UNL     1      -1.752  11.492  23.312  0.00  0.00    +0.000 A 
ATOM     13  C   UNL     1      -1.150  11.349  22.060  0.00  0.00    +0.000 A 
ATOM     14  S   UNL     1       0.428  10.747  21.693  0.00  0.00    +0.000 S 
ENDROOT
BRANCH   1  19
ATOM     15  C   UNL     1       2.718  14.711  21.529  0.00  0.00    +0.000 A 
ATOM     16  C   UNL     1       2.062  15.848  21.069  0.00  0.00    +0.000 A 
ATOM     17  C   UNL     1       1.371  15.831  19.866  0.00  0.00    +0.000 A 
ATOM     18  C   UNL     1       1.345  14.656  19.102  0.00  0.00    +0.000 A 
ATOM     19  C   UNL     1       1.934  13.465  19.575  0.00  0.00    +0.000 A 
ATOM     20  C   UNL     1       2.660  13.526  20.786  0.00  0.00    +0.000 A 
BRANCH  15  22
ATOM     21  C   UNL     1       3.695  16.265  23.035  0.00  0.00    +0.000 C 
ATOM     22  O   UNL     1       3.396  14.921  22.696  0.00  0.00    +0.000 OA
ENDBRANCH  15  22
BRANCH  17  23
ATOM     23  O   UNL     1       0.808  17.036  19.550  0.00  0.00    +0.000 OA
ATOM     24  C   UNL     1       1.066  17.534  18.250  0.00  0.00    +0.000 C 
ENDBRANCH  17  23
ENDBRANCH   1  19
BRANCH   3  25
ATOM     25  C   UNL     1       1.024   9.893  18.249  0.00  0.00    +0.000 C 
BRANCH  25  26
ATOM     26  C   UNL     1       1.868   8.618  18.320  0.00  0.00    +0.000 C 
BRANCH  26  27
ATOM     27  C   UNL     1       1.955   7.888  19.666  0.00  0.00    +0.000 C 
BRANCH  27  28
ATOM     28  N   UNL     1       2.648   6.585  19.506  0.00  0.00    +0.000 NA
ATOM     29  C   UNL     1       2.037   5.535  20.330  0.00  0.00    +0.000 C 
ATOM     30  C   UNL     1       2.669   6.147  18.111  0.00  0.00    +0.000 C 
ENDBRANCH  27  28
ENDBRANCH  26  27
ENDBRANCH  25  26
ENDBRANCH   3  25
TORSDOF 7
ENDMDL
MODEL 2
REMARK VINA RESULT:      -5.7      0.747      2.221
REMARK  Name = 
REMARK  13 active torsions:
REMARK  status: ('A' for Active; 'I' for Inactive)
REMARK    1  A    between atoms: C_1  and  O_2
REMARK    2  A    between atoms: O_2  and  C_3
REMARK    3  A    between atoms: C_5  and  O_6
REMARK    4  A    between atoms: O_6  and  C_7
REMARK    5  A    between atoms: C_9  and  C_10
REMARK    6  A    between atoms: N_12  and  C_13
REMARK    7  A    between atoms: C_13  and  C_14
REMARK    8  A    between atoms: C_14  and  C_15
REMARK    9  A    between atoms: C_15  and  N_16
REMARK   10  A    between atoms: N_16  and  C_17
REMARK   11  A    between atoms: N_16  and  C_18
REMARK   12  A    between atoms: C_22  and  C_23
REMARK   13  A    between atoms: C_24  and  C_25
REMARK                            x       y       z     vdW  Elec       q    Type
REMARK                         _______ _______ _______ _____ _____    ______ ____
ROOT
ATOM      1  C   UNL     1       2.008  12.112  18.743  0.00  0.00    +0.000 C 
ATOM      2  O   UNL     1       2.760  12.111  17.765  0.00  0.00    +0.000 OA
ATOM      3  N   UNL     1       1.247  10.964  19.098  0.00  0.00    +0.000 N 
ATOM      4  C   UNL     1       0.218  11.161  20.006  0.00  0.00    +0.000 A 
ATOM      5  N   UNL     1      -0.988  11.581  19.707  0.00  0.00    +0.000 NA
ATOM      6  C   UNL     1      -1.709  11.756  20.874  0.00  0.00    +0.000 A 
ATOM      7  C   UNL     1      -2.941  12.458  20.991  0.00  0.00    +0.000 A 
ATOM      8  C   UNL     1      -3.610  13.059  19.780  0.00  0.00    +0.000 C 
ATOM      9  C   UNL     1      -3.458  12.675  22.294  0.00  0.00    +0.000 A 
ATOM     10  C   UNL     1      -4.635  13.578  22.570  0.00  0.00    +0.000 C 
ATOM     11  C   UNL     1      -2.828  12.099  23.408  0.00  0.00    +0.000 A 
ATOM     12  C   UNL     1      -1.649  11.365  23.289  0.00  0.00    +0.000 A 
ATOM     13  C   UNL     1      -1.076  11.263  22.020  0.00  0.00    +0.000 A 
ATOM     14  S   UNL     1       0.469  10.618  21.592  0.00  0.00    +0.000 S 
ENDROOT
BRANCH   1  19
ATOM     15  C   UNL     1       1.210  15.653  19.918  0.00  0.00    +0.000 A 
ATOM     16  C   UNL     1       1.942  15.752  21.096  0.00  0.00    +0.000 A 
ATOM     17  C   UNL     1       2.700  14.683  21.553  0.00  0.00    +0.000 A 
ATOM     18  C   UNL     1       2.718  13.487  20.822  0.00  0.00    +0.000 A 
ATOM     19  C   UNL     1       2.049  13.378  19.585  0.00  0.00    +0.000 A 
ATOM     20  C   UNL     1       1.257  14.472  19.167  0.00  0.00    +0.000 A 
BRANCH  15  22
ATOM     21  C   UNL     1      -0.390  17.237  20.672  0.00  0.00    +0.000 C 
ATOM     22  O   UNL     1       0.475  16.773  19.650  0.00  0.00    +0.000 OA
ENDBRANCH  15  22
BRANCH  17  23
ATOM     23  O   UNL     1       3.335  14.938  22.737  0.00  0.00    +0.000 OA
ATOM     24  C   UNL     1       4.721  14.656  22.785  0.00  0.00    +0.000 C 
ENDBRANCH  17  23
ENDBRANCH   1  19
BRANCH   3  25
ATOM     25  C   UNL     1       0.968   9.920  18.097  0.00  0.00    +0.000 C 
BRANCH  25  26
ATOM     26  C   UNL     1       1.987   8.816  17.807  0.00  0.00    +0.000 C 
BRANCH  26  27
ATOM     27  C   UNL     1       2.238   7.765  18.898  0.00  0.00    +0.000 C 
BRANCH  27  28
ATOM     28  N   UNL     1       2.716   6.496  18.295  0.00  0.00    +0.000 NA
ATOM     29  C   UNL     1       4.038   6.647  17.675  0.00  0.00    +0.000 C 
ATOM     30  C   UNL     1       2.769   5.413  19.276  0.00  0.00    +0.000 C 
ENDBRANCH  27  28
ENDBRANCH  26  27
ENDBRANCH  25  26
ENDBRANCH   3  25
TORSDOF 7
ENDMDL
MODEL 3
REMARK VINA RESULT:      -5.6      4.390      8.865
REMARK  Name = 
REMARK  13 active torsions:
REMARK  status: ('A' for Active; 'I' for Inactive)
REMARK    1  A    between atoms: C_1  and  O_2
REMARK    2  A    between atoms: O_2  and  C_3
REMARK    3  A    between atoms: C_5  and  O_6
REMARK    4  A    between atoms: O_6  and  C_7
REMARK    5  A    between atoms: C_9  and  C_10
REMARK    6  A    between atoms: N_12  and  C_13
REMARK    7  A    between atoms: C_13  and  C_14
REMARK    8  A    between atoms: C_14  and  C_15
REMARK    9  A    between atoms: C_15  and  N_16
REMARK   10  A    between atoms: N_16  and  C_17
REMARK   11  A    between atoms: N_16  and  C_18
REMARK   12  A    between atoms: C_22  and  C_23
REMARK   13  A    between atoms: C_24  and  C_25
REMARK                            x       y       z     vdW  Elec       q    Type
REMARK                         _______ _______ _______ _____ _____    ______ ____
ROOT
ATOM      1  C   UNL     1      -5.375  14.347  21.069  0.00  0.00    +0.000 C 
ATOM      2  O   UNL     1      -6.246  15.208  20.931  0.00  0.00    +0.000 OA
ATOM      3  N   UNL     1      -4.201  14.590  21.834  0.00  0.00    +0.000 N 
ATOM      4  C   UNL     1      -3.160  13.689  21.672  0.00  0.00    +0.000 A 
ATOM      5  N   UNL     1      -2.264  13.729  20.716  0.00  0.00    +0.000 NA
ATOM      6  C   UNL     1      -1.447  12.617  20.814  0.00  0.00    +0.000 A 
ATOM      7  C   UNL     1      -0.549  12.156  19.811  0.00  0.00    +0.000 A 
ATOM      8  C   UNL     1      -0.380  12.909  18.515  0.00  0.00    +0.000 C 
ATOM      9  C   UNL     1       0.091  10.907  20.019  0.00  0.00    +0.000 A 
ATOM     10  C   UNL     1       0.896  10.210  18.950  0.00  0.00    +0.000 C 
ATOM     11  C   UNL     1      -0.069  10.227  21.236  0.00  0.00    +0.000 A 
ATOM     12  C   UNL     1      -0.907  10.704  22.242  0.00  0.00    +0.000 A 
ATOM     13  C   UNL     1      -1.633  11.868  21.980  0.00  0.00    +0.000 A 
ATOM     14  S   UNL     1      -2.896  12.576  22.924  0.00  0.00    +0.000 S 
ENDROOT
BRANCH   1  19
ATOM     15  C   UNL     1      -7.005  10.925  20.632  0.00  0.00    +0.000 A 
ATOM     16  C   UNL     1      -6.497  10.503  19.408  0.00  0.00    +0.000 A 
ATOM     17  C   UNL     1      -5.630  11.308  18.683  0.00  0.00    +0.000 A 
ATOM     18  C   UNL     1      -5.271  12.565  19.188  0.00  0.00    +0.000 A 
ATOM     19  C   UNL     1      -5.707  12.992  20.460  0.00  0.00    +0.000 A 
ATOM     20  C   UNL     1      -6.618  12.165  21.155  0.00  0.00    +0.000 A 
BRANCH  15  22
ATOM     21  C   UNL     1      -7.744   8.676  20.814  0.00  0.00    +0.000 C 
ATOM     22  O   UNL     1      -7.889  10.038  21.178  0.00  0.00    +0.000 OA
ENDBRANCH  15  22
BRANCH  17  23
ATOM     23  O   UNL     1      -5.247  10.755  17.493  0.00  0.00    +0.000 OA
ATOM     24  C   UNL     1      -4.481  11.576  16.631  0.00  0.00    +0.000 C 
ENDBRANCH  17  23
ENDBRANCH   1  19
BRANCH   3  25
ATOM     25  C   UNL     1      -3.761  15.971  22.098  0.00  0.00    +0.000 C 
BRANCH  25  26
ATOM     26  C   UNL     1      -3.323  16.402  23.500  0.00  0.00    +0.000 C 
BRANCH  26  27
ATOM     27  C   UNL     1      -4.308  16.191  24.657  0.00  0.00    +0.000 C 
BRANCH  27  28
ATOM     28  N   UNL     1      -4.687  17.493  25.261  0.00  0.00    +0.000 NA
ATOM     29  C   UNL     1      -3.567  18.443  25.259  0.00  0.00    +0.000 C 
ATOM     30  C   UNL     1      -5.830  18.098  24.578  0.00  0.00    +0.000 C 
ENDBRANCH  27  28
ENDBRANCH  26  27
ENDBRANCH  25  26
ENDBRANCH   3  25
TORSDOF 7
ENDMDL
MODEL 4
REMARK VINA RESULT:      -5.5      2.502      3.449
REMARK  Name = 
REMARK  13 active torsions:
REMARK  status: ('A' for Active; 'I' for Inactive)
REMARK    1  A    between atoms: C_1  and  O_2
REMARK    2  A    between atoms: O_2  and  C_3
REMARK    3  A    between atoms: C_5  and  O_6
REMARK    4  A    between atoms: O_6  and  C_7
REMARK    5  A    between atoms: C_9  and  C_10
REMARK    6  A    between atoms: N_12  and  C_13
REMARK    7  A    between atoms: C_13  and  C_14
REMARK    8  A    between atoms: C_14  and  C_15
REMARK    9  A    between atoms: C_15  and  N_16
REMARK   10  A    between atoms: N_16  and  C_17
REMARK   11  A    between atoms: N_16  and  C_18
REMARK   12  A    between atoms: C_22  and  C_23
REMARK   13  A    between atoms: C_24  and  C_25
REMARK                            x       y       z     vdW  Elec       q    Type
REMARK                         _______ _______ _______ _____ _____    ______ ____
ROOT
ATOM      1  C   UNL     1       0.379  12.636  19.823  0.00  0.00    +0.000 C 
ATOM      2  O   UNL     1       1.226  12.458  18.945  0.00  0.00    +0.000 OA
ATOM      3  N   UNL     1      -0.384  11.559  20.352  0.00  0.00    +0.000 N 
ATOM      4  C   UNL     1      -1.504  11.900  21.093  0.00  0.00    +0.000 A 
ATOM      5  N   UNL     1      -2.684  12.187  20.598  0.00  0.00    +0.000 NA
ATOM      6  C   UNL     1      -3.523  12.578  21.626  0.00  0.00    +0.000 A 
ATOM      7  C   UNL     1      -4.779  13.229  21.468  0.00  0.00    +0.000 A 
ATOM      8  C   UNL     1      -5.337  13.519  20.098  0.00  0.00    +0.000 C 
ATOM      9  C   UNL     1      -5.431  13.701  22.637  0.00  0.00    +0.000 A 
ATOM     10  C   UNL     1      -6.652  14.585  22.595  0.00  0.00    +0.000 C 
ATOM     11  C   UNL     1      -4.902  13.411  23.905  0.00  0.00    +0.000 A 
ATOM     12  C   UNL     1      -3.699  12.726  24.062  0.00  0.00    +0.000 A 
ATOM     13  C   UNL     1      -2.998  12.377  22.905  0.00  0.00    +0.000 A 
ATOM     14  S   UNL     1      -1.401  11.728  22.777  0.00  0.00    +0.000 S 
ENDROOT
BRANCH   1  19
ATOM     15  C   UNL     1       1.096  15.668  22.025  0.00  0.00    +0.000 A 
ATOM     16  C   UNL     1       0.342  16.666  21.418  0.00  0.00    +0.000 A 
ATOM     17  C   UNL     1      -0.405  16.400  20.279  0.00  0.00    +0.000 A 
ATOM     18  C   UNL     1      -0.389  15.110  19.731  0.00  0.00    +0.000 A 
ATOM     19  C   UNL     1       0.302  14.056  20.364  0.00  0.00    +0.000 A 
ATOM     20  C   UNL     1       1.082  14.370  21.500  0.00  0.00    +0.000 A 
BRANCH  15  22
ATOM     21  C   UNL     1       1.179  17.048  23.955  0.00  0.00    +0.000 C 
ATOM     22  O   UNL     1       1.816  16.118  23.096  0.00  0.00    +0.000 OA
ENDBRANCH  15  22
BRANCH  17  23
ATOM     23  O   UNL     1      -1.063  17.496  19.797  0.00  0.00    +0.000 OA
ATOM     24  C   UNL     1      -1.129  17.625  18.388  0.00  0.00    +0.000 C 
ENDBRANCH  17  23
ENDBRANCH   1  19
BRANCH   3  25
ATOM     25  C   UNL     1      -0.533  10.309  19.585  0.00  0.00    +0.000 C 
BRANCH  25  26
ATOM     26  C   UNL     1      -0.918  10.336  18.104  0.00  0.00    +0.000 C 
BRANCH  26  27
ATOM     27  C   UNL     1      -2.380  10.049  17.736  0.00  0.00    +0.000 C 
BRANCH  27  28
ATOM     28  N   UNL     1      -2.887  11.073  16.788  0.00  0.00    +0.000 NA
ATOM     29  C   UNL     1      -2.849  10.599  15.399  0.00  0.00    +0.000 C 
ATOM     30  C   UNL     1      -4.250  11.489  17.115  0.00  0.00    +0.000 C 
ENDBRANCH  27  28
ENDBRANCH  26  27
ENDBRANCH  25  26
ENDBRANCH   3  25
TORSDOF 7
ENDMDL
MODEL 5
REMARK VINA RESULT:      -5.5      2.477      6.076
REMARK  Name = 
REMARK  13 active torsions:
REMARK  status: ('A' for Active; 'I' for Inactive)
REMARK    1  A    between atoms: C_1  and  O_2
REMARK    2  A    between atoms: O_2  and  C_3
REMARK    3  A    between atoms: C_5  and  O_6
REMARK    4  A    between atoms: O_6  and  C_7
REMARK    5  A    between atoms: C_9  and  C_10
REMARK    6  A    between atoms: N_12  and  C_13
REMARK    7  A    between atoms: C_13  and  C_14
REMARK    8  A    between atoms: C_14  and  C_15
REMARK    9  A    between atoms: C_15  and  N_16
REMARK   10  A    between atoms: N_16  and  C_17
REMARK   11  A    between atoms: N_16  and  C_18
REMARK   12  A    between atoms: C_22  and  C_23
REMARK   13  A    between atoms: C_24  and  C_25
REMARK                            x       y       z     vdW  Elec       q    Type
REMARK                         _______ _______ _______ _____ _____    ______ ____
ROOT
ATOM      1  C   UNL     1      -1.806  15.003  21.414  0.00  0.00    +0.000 C 
ATOM      2  O   UNL     1      -2.296  15.967  22.005  0.00  0.00    +0.000 OA
ATOM      3  N   UNL     1      -2.610  13.927  20.947  0.00  0.00    +0.000 N 
ATOM      4  C   UNL     1      -1.942  12.769  20.581  0.00  0.00    +0.000 A 
ATOM      5  N   UNL     1      -1.562  11.821  21.403  0.00  0.00    +0.000 NA
ATOM      6  C   UNL     1      -0.838  10.875  20.700  0.00  0.00    +0.000 A 
ATOM      7  C   UNL     1      -0.026   9.857  21.274  0.00  0.00    +0.000 A 
ATOM      8  C   UNL     1       0.078   9.698  22.769  0.00  0.00    +0.000 C 
ATOM      9  C   UNL     1       0.772   9.076  20.398  0.00  0.00    +0.000 A 
ATOM     10  C   UNL     1       1.826   8.114  20.889  0.00  0.00    +0.000 C 
ATOM     11  C   UNL     1       0.654   9.231  19.009  0.00  0.00    +0.000 A 
ATOM     12  C   UNL     1      -0.183  10.192  18.444  0.00  0.00    +0.000 A 
ATOM     13  C   UNL     1      -0.868  11.044  19.312  0.00  0.00    +0.000 A 
ATOM     14  S   UNL     1      -1.793  12.451  18.923  0.00  0.00    +0.000 S 
ENDROOT
BRANCH   1  19
ATOM     15  C   UNL     1       1.436  15.906  19.616  0.00  0.00    +0.000 A 
ATOM     16  C   UNL     1       2.408  15.479  20.514  0.00  0.00    +0.000 A 
ATOM     17  C   UNL     1       2.052  14.903  21.725  0.00  0.00    +0.000 A 
ATOM     18  C   UNL     1       0.696  14.761  22.049  0.00  0.00    +0.000 A 
ATOM     19  C   UNL     1      -0.315  15.112  21.130  0.00  0.00    +0.000 A 
ATOM     20  C   UNL     1       0.081  15.730  19.922  0.00  0.00    +0.000 A 
BRANCH  15  22
ATOM     21  C   UNL     1       3.359  16.378  18.305  0.00  0.00    +0.000 C 
ATOM     22  O   UNL     1       1.961  16.503  18.505  0.00  0.00    +0.000 OA
ENDBRANCH  15  22
BRANCH  17  23
ATOM     23  O   UNL     1       3.127  14.565  22.499  0.00  0.00    +0.000 OA
ATOM     24  C   UNL     1       4.391  14.560  21.860  0.00  0.00    +0.000 C 
ENDBRANCH  17  23
ENDBRANCH   1  19
BRANCH   3  25
ATOM     25  C   UNL     1      -3.942  13.690  21.530  0.00  0.00    +0.000 C 
BRANCH  25  26
ATOM     26  C   UNL     1      -5.190  13.642  20.645  0.00  0.00    +0.000 C 
BRANCH  26  27
ATOM     27  C   UNL     1      -5.640  12.275  20.111  0.00  0.00    +0.000 C 
BRANCH  27  28
ATOM     28  N   UNL     1      -6.583  11.632  21.061  0.00  0.00    +0.000 NA
ATOM     29  C   UNL     1      -7.529  12.598  21.632  0.00  0.00    +0.000 C 
ATOM     30  C   UNL     1      -7.330  10.543  20.432  0.00  0.00    +0.000 C 
ENDBRANCH  27  28
ENDBRANCH  26  27
ENDBRANCH  25  26
ENDBRANCH   3  25
TORSDOF 7
ENDMDL
MODEL 6
REMARK VINA RESULT:      -5.5      3.457      7.795
REMARK  Name = 
REMARK  13 active torsions:
REMARK  status: ('A' for Active; 'I' for Inactive)
REMARK    1  A    between atoms: C_1  and  O_2
REMARK    2  A    between atoms: O_2  and  C_3
REMARK    3  A    between atoms: C_5  and  O_6
REMARK    4  A    between atoms: O_6  and  C_7
REMARK    5  A    between atoms: C_9  and  C_10
REMARK    6  A    between atoms: N_12  and  C_13
REMARK    7  A    between atoms: C_13  and  C_14
REMARK    8  A    between atoms: C_14  and  C_15
REMARK    9  A    between atoms: C_15  and  N_16
REMARK   10  A    between atoms: N_16  and  C_17
REMARK   11  A    between atoms: N_16  and  C_18
REMARK   12  A    between atoms: C_22  and  C_23
REMARK   13  A    between atoms: C_24  and  C_25
REMARK                            x       y       z     vdW  Elec       q    Type
REMARK                         _______ _______ _______ _____ _____    ______ ____
ROOT
ATOM      1  C   UNL     1      -2.798  14.117  21.021  0.00  0.00    +0.000 C 
ATOM      2  O   UNL     1      -3.301  15.241  20.957  0.00  0.00    +0.000 OA
ATOM      3  N   UNL     1      -1.703  13.839  21.884  0.00  0.00    +0.000 N 
ATOM      4  C   UNL     1      -1.022  12.653  21.658  0.00  0.00    +0.000 A 
ATOM      5  N   UNL     1      -0.068  12.482  20.775  0.00  0.00    +0.000 NA
ATOM      6  C   UNL     1       0.302  11.150  20.760  0.00  0.00    +0.000 A 
ATOM      7  C   UNL     1       1.091  10.519  19.757  0.00  0.00    +0.000 A 
ATOM      8  C   UNL     1       1.647  11.306  18.598  0.00  0.00    +0.000 C 
ATOM      9  C   UNL     1       1.238   9.109  19.821  0.00  0.00    +0.000 A 
ATOM     10  C   UNL     1       1.867   8.300  18.713  0.00  0.00    +0.000 C 
ATOM     11  C   UNL     1       0.723   8.395  20.913  0.00  0.00    +0.000 A 
ATOM     12  C   UNL     1      -0.005   9.020  21.925  0.00  0.00    +0.000 A 
ATOM     13  C   UNL     1      -0.255  10.387  21.790  0.00  0.00    +0.000 A 
ATOM     14  S   UNL     1      -1.294  11.383  22.748  0.00  0.00    +0.000 S 
ENDROOT
BRANCH   1  19
ATOM     15  C   UNL     1      -5.607  11.896  19.704  0.00  0.00    +0.000 A 
ATOM     16  C   UNL     1      -4.974  11.174  18.698  0.00  0.00    +0.000 A 
ATOM     17  C   UNL     1      -3.635  11.389  18.404  0.00  0.00    +0.000 A 
ATOM     18  C   UNL     1      -2.917  12.352  19.126  0.00  0.00    +0.000 A 
ATOM     19  C   UNL     1      -3.506  13.047  20.202  0.00  0.00    +0.000 A 
ATOM     20  C   UNL     1      -4.881  12.832  20.450  0.00  0.00    +0.000 A 
BRANCH  15  22
ATOM     21  C   UNL     1      -7.274  10.307  20.282  0.00  0.00    +0.000 C 
ATOM     22  O   UNL     1      -6.937  11.603  19.816  0.00  0.00    +0.000 OA
ENDBRANCH  15  22
BRANCH  17  23
ATOM     23  O   UNL     1      -3.178  10.617  17.373  0.00  0.00    +0.000 OA
ATOM     24  C   UNL     1      -1.867  10.098  17.503  0.00  0.00    +0.000 C 
ENDBRANCH  17  23
ENDBRANCH   1  19
BRANCH   3  25
ATOM     25  C   UNL     1      -0.848  14.934  22.374  0.00  0.00    +0.000 C 
BRANCH  25  26
ATOM     26  C   UNL     1      -1.074  15.552  23.755  0.00  0.00    +0.000 C 
BRANCH  26  27
ATOM     27  C   UNL     1      -2.049  14.846  24.707  0.00  0.00    +0.000 C 
BRANCH  27  28
ATOM     28  N   UNL     1      -3.078  15.798  25.197  0.00  0.00    +0.000 NA
ATOM     29  C   UNL     1      -2.555  17.167  25.290  0.00  0.00    +0.000 C 
ATOM     30  C   UNL     1      -4.269  15.797  24.348  0.00  0.00    +0.000 C 
ENDBRANCH  27  28
ENDBRANCH  26  27
ENDBRANCH  25  26
ENDBRANCH   3  25
TORSDOF 7
ENDMDL
MODEL 7
REMARK VINA RESULT:      -5.4      2.506      3.998
REMARK  Name = 
REMARK  13 active torsions:
REMARK  status: ('A' for Active; 'I' for Inactive)
REMARK    1  A    between atoms: C_1  and  O_2
REMARK    2  A    between atoms: O_2  and  C_3
REMARK    3  A    between atoms: C_5  and  O_6
REMARK    4  A    between atoms: O_6  and  C_7
REMARK    5  A    between atoms: C_9  and  C_10
REMARK    6  A    between atoms: N_12  and  C_13
REMARK    7  A    between atoms: C_13  and  C_14
REMARK    8  A    between atoms: C_14  and  C_15
REMARK    9  A    between atoms: C_15  and  N_16
REMARK   10  A    between atoms: N_16  and  C_17
REMARK   11  A    between atoms: N_16  and  C_18
REMARK   12  A    between atoms: C_22  and  C_23
REMARK   13  A    between atoms: C_24  and  C_25
REMARK                            x       y       z     vdW  Elec       q    Type
REMARK                         _______ _______ _______ _____ _____    ______ ____
ROOT
ATOM      1  C   UNL     1       0.395  12.496  19.732  0.00  0.00    +0.000 C 
ATOM      2  O   UNL     1       1.209  12.296  18.828  0.00  0.00    +0.000 OA
ATOM      3  N   UNL     1      -0.432  11.454  20.234  0.00  0.00    +0.000 N 
ATOM      4  C   UNL     1      -1.510  11.842  21.014  0.00  0.00    +0.000 A 
ATOM      5  N   UNL     1      -2.676  12.231  20.558  0.00  0.00    +0.000 NA
ATOM      6  C   UNL     1      -3.465  12.636  21.619  0.00  0.00    +0.000 A 
ATOM      7  C   UNL     1      -4.675  13.379  21.517  0.00  0.00    +0.000 A 
ATOM      8  C   UNL     1      -5.238  13.764  20.173  0.00  0.00    +0.000 C 
ATOM      9  C   UNL     1      -5.268  13.846  22.719  0.00  0.00    +0.000 A 
ATOM     10  C   UNL     1      -6.424  14.815  22.740  0.00  0.00    +0.000 C 
ATOM     11  C   UNL     1      -4.736  13.468  23.961  0.00  0.00    +0.000 A 
ATOM     12  C   UNL     1      -3.581  12.695  24.063  0.00  0.00    +0.000 A 
ATOM     13  C   UNL     1      -2.930  12.346  22.878  0.00  0.00    +0.000 A 
ATOM     14  S   UNL     1      -1.386  11.593  22.686  0.00  0.00    +0.000 S 
ENDROOT
BRANCH   1  19
ATOM     15  C   UNL     1      -0.415  16.189  20.241  0.00  0.00    +0.000 A 
ATOM     16  C   UNL     1       0.311  16.503  21.385  0.00  0.00    +0.000 A 
ATOM     17  C   UNL     1       1.068  15.537  22.032  0.00  0.00    +0.000 A 
ATOM     18  C   UNL     1       1.091  14.228  21.530  0.00  0.00    +0.000 A 
ATOM     19  C   UNL     1       0.429  13.895  20.331  0.00  0.00    +0.000 A 
ATOM     20  C   UNL     1      -0.363  14.892  19.717  0.00  0.00    +0.000 A 
BRANCH  15  22
ATOM     21  C   UNL     1      -0.942  18.500  20.387  0.00  0.00    +0.000 C 
ATOM     22  O   UNL     1      -1.151  17.241  19.771  0.00  0.00    +0.000 OA
ENDBRANCH  15  22
BRANCH  17  23
ATOM     23  O   UNL     1       1.696  16.004  23.153  0.00  0.00    +0.000 OA
ATOM     24  C   UNL     1       1.592  17.394  23.403  0.00  0.00    +0.000 C 
ENDBRANCH  17  23
ENDBRANCH   1  19
BRANCH   3  25
ATOM     25  C   UNL     1      -0.685  10.251  19.422  0.00  0.00    +0.000 C 
BRANCH  25  26
ATOM     26  C   UNL     1      -1.136  10.367  17.964  0.00  0.00    +0.000 C 
BRANCH  26  27
ATOM     27  C   UNL     1      -2.613  10.100  17.646  0.00  0.00    +0.000 C 
BRANCH  27  28
ATOM     28  N   UNL     1      -3.132  11.119  16.699  0.00  0.00    +0.000 NA
ATOM     29  C   UNL     1      -3.019  10.679  15.304  0.00  0.00    +0.000 C 
ATOM     30  C   UNL     1      -4.525  11.465  16.981  0.00  0.00    +0.000 C 
ENDBRANCH  27  28
ENDBRANCH  26  27
ENDBRANCH  25  26
ENDBRANCH   3  25
TORSDOF 7
ENDMDL
MODEL 8
REMARK VINA RESULT:      -5.4      2.469      5.914
REMARK  Name = 
REMARK  13 active torsions:
REMARK  status: ('A' for Active; 'I' for Inactive)
REMARK    1  A    between atoms: C_1  and  O_2
REMARK    2  A    between atoms: O_2  and  C_3
REMARK    3  A    between atoms: C_5  and  O_6
REMARK    4  A    between atoms: O_6  and  C_7
REMARK    5  A    between atoms: C_9  and  C_10
REMARK    6  A    between atoms: N_12  and  C_13
REMARK    7  A    between atoms: C_13  and  C_14
REMARK    8  A    between atoms: C_14  and  C_15
REMARK    9  A    between atoms: C_15  and  N_16
REMARK   10  A    between atoms: N_16  and  C_17
REMARK   11  A    between atoms: N_16  and  C_18
REMARK   12  A    between atoms: C_22  and  C_23
REMARK   13  A    between atoms: C_24  and  C_25
REMARK                            x       y       z     vdW  Elec       q    Type
REMARK                         _______ _______ _______ _____ _____    ______ ____
ROOT
ATOM      1  C   UNL     1      -0.756  15.636  20.840  0.00  0.00    +0.000 C 
ATOM      2  O   UNL     1      -1.129  16.722  21.288  0.00  0.00    +0.000 OA
ATOM      3  N   UNL     1      -1.676  14.699  20.294  0.00  0.00    +0.000 N 
ATOM      4  C   UNL     1      -1.208  13.408  20.110  0.00  0.00    +0.000 A 
ATOM      5  N   UNL     1      -1.165  12.477  21.032  0.00  0.00    +0.000 NA
ATOM      6  C   UNL     1      -0.545  11.354  20.514  0.00  0.00    +0.000 A 
ATOM      7  C   UNL     1      -0.060  10.251  21.271  0.00  0.00    +0.000 A 
ATOM      8  C   UNL     1      -0.233  10.200  22.768  0.00  0.00    +0.000 C 
ATOM      9  C   UNL     1       0.693   9.260  20.589  0.00  0.00    +0.000 A 
ATOM     10  C   UNL     1       1.437   8.159  21.303  0.00  0.00    +0.000 C 
ATOM     11  C   UNL     1       0.834   9.318  19.193  0.00  0.00    +0.000 A 
ATOM     12  C   UNL     1       0.313  10.371  18.444  0.00  0.00    +0.000 A 
ATOM     13  C   UNL     1      -0.316  11.408  19.136  0.00  0.00    +0.000 A 
ATOM     14  S   UNL     1      -0.861  12.929  18.521  0.00  0.00    +0.000 S 
ENDROOT
BRANCH   1  19
ATOM     15  C   UNL     1       2.840  15.688  19.566  0.00  0.00    +0.000 A 
ATOM     16  C   UNL     1       3.555  15.212  20.660  0.00  0.00    +0.000 A 
ATOM     17  C   UNL     1       2.906  14.876  21.840  0.00  0.00    +0.000 A 
ATOM     18  C   UNL     1       1.516  15.027  21.931  0.00  0.00    +0.000 A 
ATOM     19  C   UNL     1       0.752  15.433  20.817  0.00  0.00    +0.000 A 
ATOM     20  C   UNL     1       1.447  15.804  19.643  0.00  0.00    +0.000 A 
BRANCH  15  22
ATOM     21  C   UNL     1       3.022  16.686  17.420  0.00  0.00    +0.000 C 
ATOM     22  O   UNL     1       3.640  16.028  18.512  0.00  0.00    +0.000 OA
ENDBRANCH  15  22
BRANCH  17  23
ATOM     23  O   UNL     1       3.758  14.452  22.822  0.00  0.00    +0.000 OA
ATOM     24  C   UNL     1       5.082  14.146  22.423  0.00  0.00    +0.000 C 
ENDBRANCH  17  23
ENDBRANCH   1  19
BRANCH   3  25
ATOM     25  C   UNL     1      -3.105  14.771  20.647  0.00  0.00    +0.000 C 
BRANCH  25  26
ATOM     26  C   UNL     1      -3.617  14.207  21.974  0.00  0.00    +0.000 C 
BRANCH  26  27
ATOM     27  C   UNL     1      -4.758  13.181  21.925  0.00  0.00    +0.000 C 
BRANCH  27  28
ATOM     28  N   UNL     1      -4.781  12.371  23.169  0.00  0.00    +0.000 NA
ATOM     29  C   UNL     1      -3.480  12.376  23.849  0.00  0.00    +0.000 C 
ATOM     30  C   UNL     1      -5.810  12.832  24.101  0.00  0.00    +0.000 C 
ENDBRANCH  27  28
ENDBRANCH  26  27
ENDBRANCH  25  26
ENDBRANCH   3  25
TORSDOF 7
ENDMDL
MODEL 9
REMARK VINA RESULT:      -5.4      3.874      8.343
REMARK  Name = 
REMARK  13 active torsions:
REMARK  status: ('A' for Active; 'I' for Inactive)
REMARK    1  A    between atoms: C_1  and  O_2
REMARK    2  A    between atoms: O_2  and  C_3
REMARK    3  A    between atoms: C_5  and  O_6
REMARK    4  A    between atoms: O_6  and  C_7
REMARK    5  A    between atoms: C_9  and  C_10
REMARK    6  A    between atoms: N_12  and  C_13
REMARK    7  A    between atoms: C_13  and  C_14
REMARK    8  A    between atoms: C_14  and  C_15
REMARK    9  A    between atoms: C_15  and  N_16
REMARK   10  A    between atoms: N_16  and  C_17
REMARK   11  A    between atoms: N_16  and  C_18
REMARK   12  A    between atoms: C_22  and  C_23
REMARK   13  A    between atoms: C_24  and  C_25
REMARK                            x       y       z     vdW  Elec       q    Type
REMARK                         _______ _______ _______ _____ _____    ______ ____
ROOT
ATOM      1  C   UNL     1      -4.189  14.513  21.012  0.00  0.00    +0.000 C 
ATOM      2  O   UNL     1      -4.783  15.544  20.687  0.00  0.00    +0.000 OA
ATOM      3  N   UNL     1      -3.159  14.524  21.992  0.00  0.00    +0.000 N 
ATOM      4  C   UNL     1      -2.356  13.396  22.058  0.00  0.00    +0.000 A 
ATOM      5  N   UNL     1      -1.313  13.162  21.300  0.00  0.00    +0.000 NA
ATOM      6  C   UNL     1      -0.824  11.899  21.579  0.00  0.00    +0.000 A 
ATOM      7  C   UNL     1       0.109  11.176  20.784  0.00  0.00    +0.000 A 
ATOM      8  C   UNL     1       0.698  11.781  19.535  0.00  0.00    +0.000 C 
ATOM      9  C   UNL     1       0.375   9.828  21.139  0.00  0.00    +0.000 A 
ATOM     10  C   UNL     1       1.175   8.893  20.265  0.00  0.00    +0.000 C 
ATOM     11  C   UNL     1      -0.173   9.285  22.311  0.00  0.00    +0.000 A 
ATOM     12  C   UNL     1      -1.046  10.011  23.120  0.00  0.00    +0.000 A 
ATOM     13  C   UNL     1      -1.405  11.292  22.697  0.00  0.00    +0.000 A 
ATOM     14  S   UNL     1      -2.613  12.338  23.356  0.00  0.00    +0.000 S 
ENDROOT
BRANCH   1  19
ATOM     15  C   UNL     1      -4.439  11.544  18.630  0.00  0.00    +0.000 A 
ATOM     16  C   UNL     1      -5.517  10.833  19.145  0.00  0.00    +0.000 A 
ATOM     17  C   UNL     1      -6.185  11.278  20.277  0.00  0.00    +0.000 A 
ATOM     18  C   UNL     1      -5.759  12.453  20.912  0.00  0.00    +0.000 A 
ATOM     19  C   UNL     1      -4.718  13.238  20.373  0.00  0.00    +0.000 A 
ATOM     20  C   UNL     1      -4.036  12.737  19.241  0.00  0.00    +0.000 A 
BRANCH  15  22
ATOM     21  C   UNL     1      -2.663  10.213  17.784  0.00  0.00    +0.000 C 
ATOM     22  O   UNL     1      -3.862  10.933  17.552  0.00  0.00    +0.000 OA
ENDBRANCH  15  22
BRANCH  17  23
ATOM     23  O   UNL     1      -7.202  10.450  20.664  0.00  0.00    +0.000 OA
ATOM     24  C   UNL     1      -7.229   9.163  20.076  0.00  0.00    +0.000 C 
ENDBRANCH  17  23
ENDBRANCH   1  19
BRANCH   3  25
ATOM     25  C   UNL     1      -2.455  15.778  22.314  0.00  0.00    +0.000 C 
BRANCH  25  26
ATOM     26  C   UNL     1      -2.897  16.647  23.494  0.00  0.00    +0.000 C 
BRANCH  26  27
ATOM     27  C   UNL     1      -3.888  16.045  24.498  0.00  0.00    +0.000 C 
BRANCH  27  28
ATOM     28  N   UNL     1      -5.203  16.728  24.403  0.00  0.00    +0.000 NA
ATOM     29  C   UNL     1      -5.131  17.942  23.581  0.00  0.00    +0.000 C 
ATOM     30  C   UNL     1      -6.237  15.845  23.864  0.00  0.00    +0.000 C 
ENDBRANCH  27  28
ENDBRANCH  26  27
ENDBRANCH  25  26
ENDBRANCH   3  25
TORSDOF 7
ENDMDL
