MODEL 1
REMARK VINA RESULT:      -8.3      0.000      0.000
REMARK  Name = 
REMARK  7 active torsions:
REMARK  status: ('A' for Active; 'I' for Inactive)
REMARK    1  A    between atoms: C_1  and  C_2
REMARK    2  A    between atoms: C_2  and  C_3
REMARK    3  A    between atoms: C_2  and  C_4
REMARK    4  A    between atoms: C_9  and  N_10
REMARK    5  A    between atoms: N_10  and  C_11
REMARK    6  A    between atoms: C_11  and  C_12
REMARK    7  A    between atoms: C_12  and  C_13
REMARK                            x       y       z     vdW  Elec       q    Type
REMARK                         _______ _______ _______ _____ _____    ______ ____
ROOT
ATOM      1  C   UNL     1       3.751   6.958  18.181  0.00  0.00    +0.000 C 
ENDROOT
BRANCH   1   2
ATOM      2  N   UNL     1       4.382   7.158  16.862  0.00  0.00    +0.000 N 
ATOM      3  H   UNL     1       3.694   7.299  16.123  0.00  0.00    +0.000 HD
BRANCH   2   9
ATOM      4  C   UNL     1       6.501   5.852  17.102  0.00  0.00    +0.000 A 
ATOM      5  C   UNL     1       7.268   4.730  16.686  0.00  0.00    +0.000 A 
ATOM      6  C   UNL     1       6.866   3.894  15.650  0.00  0.00    +0.000 A 
ATOM      7  C   UNL     1       5.704   4.178  14.969  0.00  0.00    +0.000 A 
ATOM      8  C   UNL     1       4.927   5.270  15.364  0.00  0.00    +0.000 A 
ATOM      9  C   UNL     1       5.261   6.101  16.465  0.00  0.00    +0.000 A 
BRANCH   4  11
ATOM     10  C   UNL     1       7.983   5.799  19.127  0.00  0.00    +0.000 C 
ATOM     11  C   UNL     1       7.162   6.693  18.188  0.00  0.00    +0.000 C 
ATOM     12  C   UNL     1       7.932   7.929  17.744  0.00  0.00    +0.000 C 
ENDBRANCH   4  11
ENDBRANCH   2   9
ENDBRANCH   1   2
BRANCH   1  13
ATOM     13  C   UNL     1       2.371   6.284  18.188  0.00  0.00    +0.000 C 
BRANCH  13  14
ATOM     14  C   UNL     1       2.427   4.785  18.675  0.00  0.00    +0.000 C 
ATOM     15  C   UNL     1       1.338   4.479  19.745  0.00  0.00    +0.000 C 
ATOM     16  C   UNL     1       1.401   3.016  20.215  0.00  0.00    +0.000 C 
ATOM     17  C   UNL     1       1.170   2.086  19.017  0.00  0.00    +0.000 C 
ATOM     18  C   UNL     1       2.247   2.339  17.948  0.00  0.00    +0.000 C 
ATOM     19  C   UNL     1       3.626   2.047  18.557  0.00  0.00    +0.000 C 
ATOM     20  C   UNL     1       3.876   2.976  19.753  0.00  0.00    +0.000 C 
ATOM     21  C   UNL     1       2.790   2.741  20.816  0.00  0.00    +0.000 C 
ATOM     22  C   UNL     1       3.817   4.442  19.286  0.00  0.00    +0.000 C 
ATOM     23  C   UNL     1       2.187   3.814  17.487  0.00  0.00    +0.000 C 
ENDBRANCH  13  14
ENDBRANCH   1  13
TORSDOF 5
ENDMDL
MODEL 2
REMARK VINA RESULT:      -8.3      0.589      1.770
REMARK  Name = 
REMARK  7 active torsions:
REMARK  status: ('A' for Active; 'I' for Inactive)
REMARK    1  A    between atoms: C_1  and  C_2
REMARK    2  A    between atoms: C_2  and  C_3
REMARK    3  A    between atoms: C_2  and  C_4
REMARK    4  A    between atoms: C_9  and  N_10
REMARK    5  A    between atoms: N_10  and  C_11
REMARK    6  A    between atoms: C_11  and  C_12
REMARK    7  A    between atoms: C_12  and  C_13
REMARK                            x       y       z     vdW  Elec       q    Type
REMARK                         _______ _______ _______ _____ _____    ______ ____
ROOT
ATOM      1  C   UNL     1       3.084   7.067  17.607  0.00  0.00    +0.000 C 
ENDROOT
BRANCH   1   2
ATOM      2  N   UNL     1       4.489   7.385  17.285  0.00  0.00    +0.000 N 
ATOM      3  H   UNL     1       4.567   8.137  16.600  0.00  0.00    +0.000 HD
BRANCH   2   9
ATOM      4  C   UNL     1       6.507   5.911  17.374  0.00  0.00    +0.000 A 
ATOM      5  C   UNL     1       7.153   4.738  16.896  0.00  0.00    +0.000 A 
ATOM      6  C   UNL     1       6.620   3.955  15.877  0.00  0.00    +0.000 A 
ATOM      7  C   UNL     1       5.445   4.343  15.276  0.00  0.00    +0.000 A 
ATOM      8  C   UNL     1       4.785   5.486  15.732  0.00  0.00    +0.000 A 
ATOM      9  C   UNL     1       5.254   6.268  16.820  0.00  0.00    +0.000 A 
BRANCH   4  11
ATOM     10  C   UNL     1       8.137   5.708  19.271  0.00  0.00    +0.000 C 
ATOM     11  C   UNL     1       7.300   6.677  18.424  0.00  0.00    +0.000 C 
ATOM     12  C   UNL     1       8.106   7.880  17.953  0.00  0.00    +0.000 C 
ENDBRANCH   4  11
ENDBRANCH   2   9
ENDBRANCH   1   2
BRANCH   1  13
ATOM     13  C   UNL     1       2.781   6.694  19.066  0.00  0.00    +0.000 C 
BRANCH  13  14
ATOM     14  C   UNL     1       2.555   5.145  19.264  0.00  0.00    +0.000 C 
ATOM     15  C   UNL     1       3.885   4.399  19.578  0.00  0.00    +0.000 C 
ATOM     16  C   UNL     1       3.655   2.890  19.769  0.00  0.00    +0.000 C 
ATOM     17  C   UNL     1       2.693   2.667  20.943  0.00  0.00    +0.000 C 
ATOM     18  C   UNL     1       1.354   3.367  20.656  0.00  0.00    +0.000 C 
ATOM     19  C   UNL     1       0.745   2.767  19.381  0.00  0.00    +0.000 C 
ATOM     20  C   UNL     1       1.693   2.990  18.195  0.00  0.00    +0.000 C 
ATOM     21  C   UNL     1       3.041   2.309  18.485  0.00  0.00    +0.000 C 
ATOM     22  C   UNL     1       1.923   4.499  17.998  0.00  0.00    +0.000 C 
ATOM     23  C   UNL     1       1.592   4.882  20.453  0.00  0.00    +0.000 C 
ENDBRANCH  13  14
ENDBRANCH   1  13
TORSDOF 5
ENDMDL
MODEL 3
REMARK VINA RESULT:      -8.3      0.598      1.530
REMARK  Name = 
REMARK  7 active torsions:
REMARK  status: ('A' for Active; 'I' for Inactive)
REMARK    1  A    between atoms: C_1  and  C_2
REMARK    2  A    between atoms: C_2  and  C_3
REMARK    3  A    between atoms: C_2  and  C_4
REMARK    4  A    between atoms: C_9  and  N_10
REMARK    5  A    between atoms: N_10  and  C_11
REMARK    6  A    between atoms: C_11  and  C_12
REMARK    7  A    between atoms: C_12  and  C_13
REMARK                            x       y       z     vdW  Elec       q    Type
REMARK                         _______ _______ _______ _____ _____    ______ ____
ROOT
ATOM      1  C   UNL     1       3.247   7.052  17.672  0.00  0.00    +0.000 C 
ENDROOT
BRANCH   1   2
ATOM      2  N   UNL     1       4.487   7.386  16.945  0.00  0.00    +0.000 N 
ATOM      3  H   UNL     1       4.305   7.940  16.108  0.00  0.00    +0.000 HD
BRANCH   2   9
ATOM      4  C   UNL     1       6.482   5.905  17.227  0.00  0.00    +0.000 A 
ATOM      5  C   UNL     1       7.151   4.714  16.836  0.00  0.00    +0.000 A 
ATOM      6  C   UNL     1       6.687   3.899  15.809  0.00  0.00    +0.000 A 
ATOM      7  C   UNL     1       5.561   4.272  15.112  0.00  0.00    +0.000 A 
ATOM      8  C   UNL     1       4.878   5.434  15.481  0.00  0.00    +0.000 A 
ATOM      9  C   UNL     1       5.274   6.250  16.573  0.00  0.00    +0.000 A 
BRANCH   4  11
ATOM     10  C   UNL     1       8.049   5.768  19.183  0.00  0.00    +0.000 C 
ATOM     11  C   UNL     1       7.204   6.702  18.306  0.00  0.00    +0.000 C 
ATOM     12  C   UNL     1       7.976   7.938  17.864  0.00  0.00    +0.000 C 
ENDBRANCH   4  11
ENDBRANCH   2   9
ENDBRANCH   1   2
BRANCH   1  13
ATOM     13  C   UNL     1       3.412   6.507  19.099  0.00  0.00    +0.000 C 
BRANCH  13  14
ATOM     14  C   UNL     1       2.945   5.006  19.235  0.00  0.00    +0.000 C 
ATOM     15  C   UNL     1       2.196   4.511  17.963  0.00  0.00    +0.000 C 
ATOM     16  C   UNL     1       1.744   3.048  18.106  0.00  0.00    +0.000 C 
ATOM     17  C   UNL     1       2.974   2.155  18.315  0.00  0.00    +0.000 C 
ATOM     18  C   UNL     1       3.726   2.595  19.582  0.00  0.00    +0.000 C 
ATOM     19  C   UNL     1       2.788   2.455  20.789  0.00  0.00    +0.000 C 
ATOM     20  C   UNL     1       1.555   3.350  20.598  0.00  0.00    +0.000 C 
ATOM     21  C   UNL     1       0.810   2.927  19.321  0.00  0.00    +0.000 C 
ATOM     22  C   UNL     1       2.002   4.817  20.458  0.00  0.00    +0.000 C 
ATOM     23  C   UNL     1       4.168   4.070  19.439  0.00  0.00    +0.000 C 
ENDBRANCH  13  14
ENDBRANCH   1  13
TORSDOF 5
ENDMDL
MODEL 4
REMARK VINA RESULT:      -8.0      0.372      1.818
REMARK  Name = 
REMARK  7 active torsions:
REMARK  status: ('A' for Active; 'I' for Inactive)
REMARK    1  A    between atoms: C_1  and  C_2
REMARK    2  A    between atoms: C_2  and  C_3
REMARK    3  A    between atoms: C_2  and  C_4
REMARK    4  A    between atoms: C_9  and  N_10
REMARK    5  A    between atoms: N_10  and  C_11
REMARK    6  A    between atoms: C_11  and  C_12
REMARK    7  A    between atoms: C_12  and  C_13
REMARK                            x       y       z     vdW  Elec       q    Type
REMARK                         _______ _______ _______ _____ _____    ______ ____
ROOT
ATOM      1  C   UNL     1       4.061   6.782  18.409  0.00  0.00    +0.000 C 
ENDROOT
BRANCH   1   2
ATOM      2  N   UNL     1       4.820   7.172  17.205  0.00  0.00    +0.000 N 
ATOM      3  H   UNL     1       4.238   7.658  16.523  0.00  0.00    +0.000 HD
BRANCH   2   9
ATOM      4  C   UNL     1       6.728   5.574  16.964  0.00  0.00    +0.000 A 
ATOM      5  C   UNL     1       7.260   4.440  16.292  0.00  0.00    +0.000 A 
ATOM      6  C   UNL     1       6.618   3.842  15.214  0.00  0.00    +0.000 A 
ATOM      7  C   UNL     1       5.442   4.382  14.747  0.00  0.00    +0.000 A 
ATOM      8  C   UNL     1       4.892   5.492  15.394  0.00  0.00    +0.000 A 
ATOM      9  C   UNL     1       5.475   6.084  16.545  0.00  0.00    +0.000 A 
BRANCH   4  11
ATOM     10  C   UNL     1       7.784   7.653  17.891  0.00  0.00    +0.000 C 
ATOM     11  C   UNL     1       7.631   6.134  18.055  0.00  0.00    +0.000 C 
ATOM     12  C   UNL     1       7.323   5.734  19.492  0.00  0.00    +0.000 C 
ENDBRANCH   4  11
ENDBRANCH   2   9
ENDBRANCH   1   2
BRANCH   1  13
ATOM     13  C   UNL     1       2.663   6.188  18.179  0.00  0.00    +0.000 C 
BRANCH  13  14
ATOM     14  C   UNL     1       2.552   4.689  18.655  0.00  0.00    +0.000 C 
ATOM     15  C   UNL     1       2.293   3.718  17.466  0.00  0.00    +0.000 C 
ATOM     16  C   UNL     1       2.185   2.258  17.939  0.00  0.00    +0.000 C 
ATOM     17  C   UNL     1       3.498   1.846  18.617  0.00  0.00    +0.000 C 
ATOM     18  C   UNL     1       3.774   2.766  19.818  0.00  0.00    +0.000 C 
ATOM     19  C   UNL     1       2.621   2.628  20.822  0.00  0.00    +0.000 C 
ATOM     20  C   UNL     1       1.300   3.046  20.161  0.00  0.00    +0.000 C 
ATOM     21  C   UNL     1       1.029   2.142  18.947  0.00  0.00    +0.000 C 
ATOM     22  C   UNL     1       1.402   4.508  19.688  0.00  0.00    +0.000 C 
ATOM     23  C   UNL     1       3.870   4.233  19.338  0.00  0.00    +0.000 C 
ENDBRANCH  13  14
ENDBRANCH   1  13
TORSDOF 5
ENDMDL
MODEL 5
REMARK VINA RESULT:      -8.0      0.372      1.804
REMARK  Name = 
REMARK  7 active torsions:
REMARK  status: ('A' for Active; 'I' for Inactive)
REMARK    1  A    between atoms: C_1  and  C_2
REMARK    2  A    between atoms: C_2  and  C_3
REMARK    3  A    between atoms: C_2  and  C_4
REMARK    4  A    between atoms: C_9  and  N_10
REMARK    5  A    between atoms: N_10  and  C_11
REMARK    6  A    between atoms: C_11  and  C_12
REMARK    7  A    between atoms: C_12  and  C_13
REMARK                            x       y       z     vdW  Elec       q    Type
REMARK                         _______ _______ _______ _____ _____    ______ ____
ROOT
ATOM      1  C   UNL     1       4.021   6.844  18.359  0.00  0.00    +0.000 C 
ENDROOT
BRANCH   1   2
ATOM      2  N   UNL     1       4.860   7.221  17.204  0.00  0.00    +0.000 N 
ATOM      3  H   UNL     1       4.337   7.748  16.505  0.00  0.00    +0.000 HD
BRANCH   2   9
ATOM      4  C   UNL     1       6.739   5.586  16.985  0.00  0.00    +0.000 A 
ATOM      5  C   UNL     1       7.254   4.438  16.323  0.00  0.00    +0.000 A 
ATOM      6  C   UNL     1       6.607   3.846  15.244  0.00  0.00    +0.000 A 
ATOM      7  C   UNL     1       5.445   4.406  14.766  0.00  0.00    +0.000 A 
ATOM      8  C   UNL     1       4.912   5.530  15.404  0.00  0.00    +0.000 A 
ATOM      9  C   UNL     1       5.498   6.117  16.555  0.00  0.00    +0.000 A 
BRANCH   4  11
ATOM     10  C   UNL     1       7.839   7.648  17.901  0.00  0.00    +0.000 C 
ATOM     11  C   UNL     1       7.645   6.136  18.079  0.00  0.00    +0.000 C 
ATOM     12  C   UNL     1       7.313   5.760  19.517  0.00  0.00    +0.000 C 
ENDBRANCH   4  11
ENDBRANCH   2   9
ENDBRANCH   1   2
BRANCH   1  13
ATOM     13  C   UNL     1       2.676   6.173  18.041  0.00  0.00    +0.000 C 
BRANCH  13  14
ATOM     14  C   UNL     1       2.594   4.690  18.571  0.00  0.00    +0.000 C 
ATOM     15  C   UNL     1       3.910   4.250  19.277  0.00  0.00    +0.000 C 
ATOM     16  C   UNL     1       3.821   2.803  19.790  0.00  0.00    +0.000 C 
ATOM     17  C   UNL     1       2.675   2.692  20.803  0.00  0.00    +0.000 C 
ATOM     18  C   UNL     1       1.350   3.091  20.133  0.00  0.00    +0.000 C 
ATOM     19  C   UNL     1       1.081   2.139  18.960  0.00  0.00    +0.000 C 
ATOM     20  C   UNL     1       2.217   2.244  17.932  0.00  0.00    +0.000 C 
ATOM     21  C   UNL     1       3.548   1.865  18.602  0.00  0.00    +0.000 C 
ATOM     22  C   UNL     1       2.307   3.691  17.413  0.00  0.00    +0.000 C 
ATOM     23  C   UNL     1       1.448   4.543  19.609  0.00  0.00    +0.000 C 
ENDBRANCH  13  14
ENDBRANCH   1  13
TORSDOF 5
ENDMDL
MODEL 6
REMARK VINA RESULT:      -7.4      0.940      2.858
REMARK  Name = 
REMARK  7 active torsions:
REMARK  status: ('A' for Active; 'I' for Inactive)
REMARK    1  A    between atoms: C_1  and  C_2
REMARK    2  A    between atoms: C_2  and  C_3
REMARK    3  A    between atoms: C_2  and  C_4
REMARK    4  A    between atoms: C_9  and  N_10
REMARK    5  A    between atoms: N_10  and  C_11
REMARK    6  A    between atoms: C_11  and  C_12
REMARK    7  A    between atoms: C_12  and  C_13
REMARK                            x       y       z     vdW  Elec       q    Type
REMARK                         _______ _______ _______ _____ _____    ______ ____
ROOT
ATOM      1  C   UNL     1       3.470   6.760  17.470  0.00  0.00    +0.000 C 
ENDROOT
BRANCH   1   2
ATOM      2  N   UNL     1       4.820   7.246  17.122  0.00  0.00    +0.000 N 
ATOM      3  H   UNL     1       4.896   7.497  16.136  0.00  0.00    +0.000 HD
BRANCH   2   9
ATOM      4  C   UNL     1       6.151   5.179  16.662  0.00  0.00    +0.000 A 
ATOM      5  C   UNL     1       7.268   4.374  17.013  0.00  0.00    +0.000 A 
ATOM      6  C   UNL     1       8.072   4.652  18.113  0.00  0.00    +0.000 A 
ATOM      7  C   UNL     1       7.760   5.720  18.922  0.00  0.00    +0.000 A 
ATOM      8  C   UNL     1       6.671   6.533  18.595  0.00  0.00    +0.000 A 
ATOM      9  C   UNL     1       5.874   6.331  17.438  0.00  0.00    +0.000 A 
BRANCH   4  11
ATOM     10  C   UNL     1       6.268   4.392  14.282  0.00  0.00    +0.000 C 
ATOM     11  C   UNL     1       5.346   4.651  15.481  0.00  0.00    +0.000 C 
ATOM     12  C   UNL     1       4.397   3.490  15.745  0.00  0.00    +0.000 C 
ENDBRANCH   4  11
ENDBRANCH   2   9
ENDBRANCH   1   2
BRANCH   1  13
ATOM     13  C   UNL     1       3.184   6.538  18.963  0.00  0.00    +0.000 C 
BRANCH  13  14
ATOM     14  C   UNL     1       2.731   5.062  19.284  0.00  0.00    +0.000 C 
ATOM     15  C   UNL     1       1.947   4.423  18.101  0.00  0.00    +0.000 C 
ATOM     16  C   UNL     1       1.509   2.984  18.423  0.00  0.00    +0.000 C 
ATOM     17  C   UNL     1       2.750   2.124  18.695  0.00  0.00    +0.000 C 
ATOM     18  C   UNL     1       3.537   2.708  19.880  0.00  0.00    +0.000 C 
ATOM     19  C   UNL     1       2.637   2.704  21.123  0.00  0.00    +0.000 C 
ATOM     20  C   UNL     1       1.393   3.568  20.869  0.00  0.00    +0.000 C 
ATOM     21  C   UNL     1       0.613   3.000  19.673  0.00  0.00    +0.000 C 
ATOM     22  C   UNL     1       1.827   5.011  20.549  0.00  0.00    +0.000 C 
ATOM     23  C   UNL     1       3.965   4.159  19.556  0.00  0.00    +0.000 C 
ENDBRANCH  13  14
ENDBRANCH   1  13
TORSDOF 5
ENDMDL
MODEL 7
REMARK VINA RESULT:      -7.4      2.408      4.254
REMARK  Name = 
REMARK  7 active torsions:
REMARK  status: ('A' for Active; 'I' for Inactive)
REMARK    1  A    between atoms: C_1  and  C_2
REMARK    2  A    between atoms: C_2  and  C_3
REMARK    3  A    between atoms: C_2  and  C_4
REMARK    4  A    between atoms: C_9  and  N_10
REMARK    5  A    between atoms: N_10  and  C_11
REMARK    6  A    between atoms: C_11  and  C_12
REMARK    7  A    between atoms: C_12  and  C_13
REMARK                            x       y       z     vdW  Elec       q    Type
REMARK                         _______ _______ _______ _____ _____    ______ ____
ROOT
ATOM      1  C   UNL     1       5.514   3.908  16.360  0.00  0.00    +0.000 C 
ENDROOT
BRANCH   1   2
ATOM      2  N   UNL     1       5.479   3.295  15.018  0.00  0.00    +0.000 N 
ATOM      3  H   UNL     1       5.727   2.306  15.041  0.00  0.00    +0.000 HD
BRANCH   2   9
ATOM      4  C   UNL     1       6.269   3.636  12.671  0.00  0.00    +0.000 A 
ATOM      5  C   UNL     1       7.075   4.394  11.779  0.00  0.00    +0.000 A 
ATOM      6  C   UNL     1       7.931   5.399  12.218  0.00  0.00    +0.000 A 
ATOM      7  C   UNL     1       8.039   5.650  13.566  0.00  0.00    +0.000 A 
ATOM      8  C   UNL     1       7.250   4.925  14.464  0.00  0.00    +0.000 A 
ATOM      9  C   UNL     1       6.308   3.947  14.052  0.00  0.00    +0.000 A 
BRANCH   4  11
ATOM     10  C   UNL     1       4.251   3.100  11.277  0.00  0.00    +0.000 C 
ATOM     11  C   UNL     1       5.475   2.522  12.001  0.00  0.00    +0.000 C 
ATOM     12  C   UNL     1       6.247   1.535  11.136  0.00  0.00    +0.000 C 
ENDBRANCH   4  11
ENDBRANCH   2   9
ENDBRANCH   1   2
BRANCH   1  13
ATOM     13  C   UNL     1       4.309   4.778  16.750  0.00  0.00    +0.000 C 
BRANCH  13  14
ATOM     14  C   UNL     1       3.441   4.138  17.900  0.00  0.00    +0.000 C 
ATOM     15  C   UNL     1       3.715   4.807  19.279  0.00  0.00    +0.000 C 
ATOM     16  C   UNL     1       2.864   4.175  20.394  0.00  0.00    +0.000 C 
ATOM     17  C   UNL     1       1.378   4.353  20.063  0.00  0.00    +0.000 C 
ATOM     18  C   UNL     1       1.061   3.677  18.718  0.00  0.00    +0.000 C 
ATOM     19  C   UNL     1       1.379   2.180  18.829  0.00  0.00    +0.000 C 
ATOM     20  C   UNL     1       2.867   1.985  19.153  0.00  0.00    +0.000 C 
ATOM     21  C   UNL     1       3.193   2.675  20.487  0.00  0.00    +0.000 C 
ATOM     22  C   UNL     1       3.722   2.613  18.037  0.00  0.00    +0.000 C 
ATOM     23  C   UNL     1       1.926   4.308  17.602  0.00  0.00    +0.000 C 
ENDBRANCH  13  14
ENDBRANCH   1  13
TORSDOF 5
ENDMDL
MODEL 8
REMARK VINA RESULT:      -7.4      0.948      2.493
REMARK  Name = 
REMARK  7 active torsions:
REMARK  status: ('A' for Active; 'I' for Inactive)
REMARK    1  A    between atoms: C_1  and  C_2
REMARK    2  A    between atoms: C_2  and  C_3
REMARK    3  A    between atoms: C_2  and  C_4
REMARK    4  A    between atoms: C_9  and  N_10
REMARK    5  A    between atoms: N_10  and  C_11
REMARK    6  A    between atoms: C_11  and  C_12
REMARK    7  A    between atoms: C_12  and  C_13
REMARK                            x       y       z     vdW  Elec       q    Type
REMARK                         _______ _______ _______ _____ _____    ______ ____
ROOT
ATOM      1  C   UNL     1       3.456   6.754  17.504  0.00  0.00    +0.000 C 
ENDROOT
BRANCH   1   2
ATOM      2  N   UNL     1       4.800   7.235  17.127  0.00  0.00    +0.000 N 
ATOM      3  H   UNL     1       4.861   7.470  16.137  0.00  0.00    +0.000 HD
BRANCH   2   9
ATOM      4  C   UNL     1       6.155   5.188  16.653  0.00  0.00    +0.000 A 
ATOM      5  C   UNL     1       7.277   4.389  17.005  0.00  0.00    +0.000 A 
ATOM      6  C   UNL     1       8.065   4.658  18.119  0.00  0.00    +0.000 A 
ATOM      7  C   UNL     1       7.733   5.712  18.939  0.00  0.00    +0.000 A 
ATOM      8  C   UNL     1       6.641   6.519  18.611  0.00  0.00    +0.000 A 
ATOM      9  C   UNL     1       5.859   6.326  17.443  0.00  0.00    +0.000 A 
BRANCH   4  11
ATOM     10  C   UNL     1       6.312   4.407  14.273  0.00  0.00    +0.000 C 
ATOM     11  C   UNL     1       5.369   4.669  15.456  0.00  0.00    +0.000 C 
ATOM     12  C   UNL     1       4.408   3.514  15.698  0.00  0.00    +0.000 C 
ENDBRANCH   4  11
ENDBRANCH   2   9
ENDBRANCH   1   2
BRANCH   1  13
ATOM     13  C   UNL     1       3.205   6.515  19.000  0.00  0.00    +0.000 C 
BRANCH  13  14
ATOM     14  C   UNL     1       2.759   5.036  19.315  0.00  0.00    +0.000 C 
ATOM     15  C   UNL     1       1.876   4.953  20.595  0.00  0.00    +0.000 C 
ATOM     16  C   UNL     1       1.447   3.506  20.894  0.00  0.00    +0.000 C 
ATOM     17  C   UNL     1       0.632   2.964  19.714  0.00  0.00    +0.000 C 
ATOM     18  C   UNL     1       1.482   3.002  18.434  0.00  0.00    +0.000 C 
ATOM     19  C   UNL     1       2.724   2.122  18.638  0.00  0.00    +0.000 C 
ATOM     20  C   UNL     1       3.556   2.658  19.811  0.00  0.00    +0.000 C 
ATOM     21  C   UNL     1       2.703   2.641  21.091  0.00  0.00    +0.000 C 
ATOM     22  C   UNL     1       3.990   4.105  19.514  0.00  0.00    +0.000 C 
ATOM     23  C   UNL     1       1.921   4.456  18.143  0.00  0.00    +0.000 C 
ENDBRANCH  13  14
ENDBRANCH   1  13
TORSDOF 5
ENDMDL
MODEL 9
REMARK VINA RESULT:      -7.3      4.075      6.706
REMARK  Name = 
REMARK  7 active torsions:
REMARK  status: ('A' for Active; 'I' for Inactive)
REMARK    1  A    between atoms: C_1  and  C_2
REMARK    2  A    between atoms: C_2  and  C_3
REMARK    3  A    between atoms: C_2  and  C_4
REMARK    4  A    between atoms: C_9  and  N_10
REMARK    5  A    between atoms: N_10  and  C_11
REMARK    6  A    between atoms: C_11  and  C_12
REMARK    7  A    between atoms: C_12  and  C_13
REMARK                            x       y       z     vdW  Elec       q    Type
REMARK                         _______ _______ _______ _____ _____    ______ ____
ROOT
ATOM      1  C   UNL     1       2.058   7.596  20.016  0.00  0.00    +0.000 C 
ENDROOT
BRANCH   1   2
ATOM      2  N   UNL     1       1.274   8.781  19.617  0.00  0.00    +0.000 N 
ATOM      3  H   UNL     1       1.843   9.472  19.127  0.00  0.00    +0.000 HD
BRANCH   2   9
ATOM      4  C   UNL     1      -0.197  10.589  20.522  0.00  0.00    +0.000 A 
ATOM      5  C   UNL     1      -0.887  11.118  21.647  0.00  0.00    +0.000 A 
ATOM      6  C   UNL     1      -0.772  10.569  22.919  0.00  0.00    +0.000 A 
ATOM      7  C   UNL     1       0.069   9.498  23.116  0.00  0.00    +0.000 A 
ATOM      8  C   UNL     1       0.752   8.952  22.026  0.00  0.00    +0.000 A 
ATOM      9  C   UNL     1       0.602   9.433  20.699  0.00  0.00    +0.000 A 
BRANCH   4  11
ATOM     10  C   UNL     1      -1.847  11.828  19.092  0.00  0.00    +0.000 C 
ATOM     11  C   UNL     1      -0.382  11.392  19.241  0.00  0.00    +0.000 C 
ATOM     12  C   UNL     1       0.591  12.534  18.984  0.00  0.00    +0.000 C 
ENDBRANCH   4  11
ENDBRANCH   2   9
ENDBRANCH   1   2
BRANCH   1  13
ATOM     13  C   UNL     1       2.577   6.701  18.881  0.00  0.00    +0.000 C 
BRANCH  13  14
ATOM     14  C   UNL     1       2.379   5.164  19.177  0.00  0.00    +0.000 C 
ATOM     15  C   UNL     1       1.797   4.405  17.949  0.00  0.00    +0.000 C 
ATOM     16  C   UNL     1       1.606   2.908  18.247  0.00  0.00    +0.000 C 
ATOM     17  C   UNL     1       2.962   2.283  18.598  0.00  0.00    +0.000 C 
ATOM     18  C   UNL     1       3.557   2.989  19.828  0.00  0.00    +0.000 C 
ATOM     19  C   UNL     1       2.597   2.812  21.012  0.00  0.00    +0.000 C 
ATOM     20  C   UNL     1       1.236   3.441  20.679  0.00  0.00    +0.000 C 
ATOM     21  C   UNL     1       0.646   2.752  19.438  0.00  0.00    +0.000 C 
ATOM     22  C   UNL     1       1.422   4.940  20.383  0.00  0.00    +0.000 C 
ATOM     23  C   UNL     1       3.736   4.496  19.527  0.00  0.00    +0.000 C 
ENDBRANCH  13  14
ENDBRANCH   1  13
TORSDOF 5
ENDMDL
