MODEL 1
REMARK VINA RESULT:      -8.0      0.000      0.000
REMARK  Name = 
REMARK  8 active torsions:
REMARK  status: ('A' for Active; 'I' for Inactive)
REMARK    1  A    between atoms: O5*_1  and  C5*_2
REMARK    2  A    between atoms: C5*_2  and  C4*_3
REMARK    3  A    between atoms: C1*_5  and  N_6
REMARK    4  A    between atoms: C_16  and  S_17
REMARK    5  A    between atoms: S_17  and  C_18
REMARK    6  A    between atoms: C_18  and  C_19
REMARK    7  A    between atoms: C2*_29  and  O2*_30
REMARK    8  A    between atoms: C3*_31  and  O3*_32
REMARK                            x       y       z     vdW  Elec       q    Type
REMARK                         _______ _______ _______ _____ _____    ______ ____
ROOT
ATOM      1  N   UNL     1       3.409   5.772  18.575  0.00  0.00    +0.000 N 
ATOM      2  C   UNL     1       4.021   6.534  17.581  0.00  0.00    +0.000 A 
ATOM      3  N   UNL     1       4.960   6.007  16.757  0.00  0.00    +0.000 N 
ATOM      4  C   UNL     1       5.063   6.480  15.369  0.00  0.00    +0.000 C 
ATOM      5  C   UNL     1       5.583   5.302  14.516  0.00  0.00    +0.000 C 
ATOM      6  O   UNL     1       6.819   4.752  15.022  0.00  0.00    +0.000 OA
ATOM      7  C   UNL     1       6.687   4.370  16.404  0.00  0.00    +0.000 C 
ATOM      8  C   UNL     1       6.270   5.578  17.255  0.00  0.00    +0.000 C 
ATOM      9  N   UNL     1       3.491   7.734  17.506  0.00  0.00    +0.000 NA
ATOM     10  C   UNL     1       2.601   7.816  18.561  0.00  0.00    +0.000 A 
ATOM     11  C   UNL     1       1.785   8.836  19.070  0.00  0.00    +0.000 A 
ATOM     12  N   UNL     1       1.030   8.603  20.177  0.00  0.00    +0.000 NA
ATOM     13  C   UNL     1       1.090   7.383  20.734  0.00  0.00    +0.000 A 
ATOM     14  N   UNL     1       1.810   6.332  20.323  0.00  0.00    +0.000 NA
ATOM     15  C   UNL     1       2.551   6.607  19.239  0.00  0.00    +0.000 A 
ENDROOT
BRANCH   1  18
ATOM     16  C4* UNL     1       2.644   2.456  19.730  0.00  0.00    +0.000 C 
ATOM     17  O4* UNL     1       2.492   3.585  18.839  0.00  0.00    +0.000 OA
ATOM     18  C1* UNL     1       3.699   4.387  18.894  0.00  0.00    +0.000 C 
ATOM     19  C2* UNL     1       4.398   4.030  20.207  0.00  0.00    +0.000 C 
ATOM     20  C3* UNL     1       4.041   2.554  20.336  0.00  0.00    +0.000 C 
BRANCH  19  21
ATOM     21  O2* UNL     1       5.818   4.191  20.131  0.00  0.00    +0.000 OA
ATOM     22  H2* UNL     1       6.026   4.333  19.186  0.00  0.00    +0.000 HD
ENDBRANCH  19  21
BRANCH  20  23
ATOM     23  O3* UNL     1       4.998   1.791  19.563  0.00  0.00    +0.000 OA
ATOM     24  H3* UNL     1       4.783   1.877  18.617  0.00  0.00    +0.000 HD
ENDBRANCH  20  23
BRANCH  16  25
ATOM     25  C5* UNL     1       1.516   2.455  20.765  0.00  0.00    +0.000 C 
BRANCH  25  26
ATOM     26  O5* UNL     1       0.645   3.562  20.581  0.00  0.00    +0.000 OA
ATOM     27  H5* UNL     1      -0.263   3.233  20.707  0.00  0.00    +0.000 HD
ENDBRANCH  25  26
ENDBRANCH  16  25
ENDBRANCH   1  18
BRANCH  11  28
ATOM     28  S   UNL     1       1.709  10.406  18.269  0.00  0.00    +0.000 S 
BRANCH  28  29
ATOM     29  C   UNL     1       0.379  11.197  19.233  0.00  0.00    +0.000 C 
BRANCH  29  30
ATOM     30  C   UNL     1      -0.964  11.007  18.566  0.00  0.00    +0.000 A 
ATOM     31  C   UNL     1      -2.073  11.766  18.968  0.00  0.00    +0.000 A 
ATOM     32  C   UNL     1      -3.320  11.578  18.367  0.00  0.00    +0.000 A 
ATOM     33  C   UNL     1      -3.470  10.627  17.358  0.00  0.00    +0.000 A 
ATOM     34  C   UNL     1      -2.378   9.862  16.955  0.00  0.00    +0.000 A 
ATOM     35  C   UNL     1      -1.131  10.048  17.556  0.00  0.00    +0.000 A 
ENDBRANCH  29  30
ENDBRANCH  28  29
ENDBRANCH  11  28
TORSDOF 8
ENDMDL
MODEL 2
REMARK VINA RESULT:      -7.5      1.042      1.259
REMARK  Name = 
REMARK  8 active torsions:
REMARK  status: ('A' for Active; 'I' for Inactive)
REMARK    1  A    between atoms: O5*_1  and  C5*_2
REMARK    2  A    between atoms: C5*_2  and  C4*_3
REMARK    3  A    between atoms: C1*_5  and  N_6
REMARK    4  A    between atoms: C_16  and  S_17
REMARK    5  A    between atoms: S_17  and  C_18
REMARK    6  A    between atoms: C_18  and  C_19
REMARK    7  A    between atoms: C2*_29  and  O2*_30
REMARK    8  A    between atoms: C3*_31  and  O3*_32
REMARK                            x       y       z     vdW  Elec       q    Type
REMARK                         _______ _______ _______ _____ _____    ______ ____
ROOT
ATOM      1  N   UNL     1       3.216   6.116  19.096  0.00  0.00    +0.000 N 
ATOM      2  C   UNL     1       3.839   6.812  18.062  0.00  0.00    +0.000 A 
ATOM      3  N   UNL     1       4.826   6.253  17.321  0.00  0.00    +0.000 N 
ATOM      4  C   UNL     1       4.966   6.608  15.902  0.00  0.00    +0.000 C 
ATOM      5  C   UNL     1       5.560   5.382  15.174  0.00  0.00    +0.000 C 
ATOM      6  O   UNL     1       6.794   4.924  15.769  0.00  0.00    +0.000 OA
ATOM      7  C   UNL     1       6.621   4.658  17.174  0.00  0.00    +0.000 C 
ATOM      8  C   UNL     1       6.130   5.919  17.900  0.00  0.00    +0.000 C 
ATOM      9  N   UNL     1       3.270   7.980  17.864  0.00  0.00    +0.000 NA
ATOM     10  C   UNL     1       2.338   8.119  18.875  0.00  0.00    +0.000 A 
ATOM     11  C   UNL     1       1.467   9.147  19.263  0.00  0.00    +0.000 A 
ATOM     12  N   UNL     1       0.679   8.982  20.359  0.00  0.00    +0.000 NA
ATOM     13  C   UNL     1       0.761   7.817  21.022  0.00  0.00    +0.000 A 
ATOM     14  N   UNL     1       1.531   6.763  20.731  0.00  0.00    +0.000 NA
ATOM     15  C   UNL     1       2.304   6.972  19.654  0.00  0.00    +0.000 A 
ENDROOT
BRANCH   1  18
ATOM     16  C4* UNL     1       3.499   2.546  18.790  0.00  0.00    +0.000 C 
ATOM     17  O4* UNL     1       3.811   3.907  18.415  0.00  0.00    +0.000 OA
ATOM     18  C1* UNL     1       3.541   4.776  19.545  0.00  0.00    +0.000 C 
ATOM     19  C2* UNL     1       2.577   4.014  20.456  0.00  0.00    +0.000 C 
ATOM     20  C3* UNL     1       3.049   2.580  20.248  0.00  0.00    +0.000 C 
BRANCH  19  21
ATOM     21  O2* UNL     1       2.717   4.385  21.831  0.00  0.00    +0.000 OA
ATOM     22  H2* UNL     1       2.185   5.198  21.949  0.00  0.00    +0.000 HD
ENDBRANCH  19  21
BRANCH  20  23
ATOM     23  O3* UNL     1       4.161   2.338  21.142  0.00  0.00    +0.000 OA
ATOM     24  H3* UNL     1       4.651   1.554  20.835  0.00  0.00    +0.000 HD
ENDBRANCH  20  23
BRANCH  16  25
ATOM     25  C5* UNL     1       2.457   1.968  17.830  0.00  0.00    +0.000 C 
BRANCH  25  26
ATOM     26  O5* UNL     1       1.329   1.466  18.532  0.00  0.00    +0.000 OA
ATOM     27  H5* UNL     1       1.609   0.639  18.965  0.00  0.00    +0.000 HD
ENDBRANCH  25  26
ENDBRANCH  16  25
ENDBRANCH   1  18
BRANCH  11  28
ATOM     28  S   UNL     1       1.368  10.638  18.326  0.00  0.00    +0.000 S 
BRANCH  28  29
ATOM     29  C   UNL     1      -0.042  11.446  19.153  0.00  0.00    +0.000 C 
BRANCH  29  30
ATOM     30  C   UNL     1      -1.339  11.137  18.442  0.00  0.00    +0.000 A 
ATOM     31  C   UNL     1      -2.515  11.827  18.774  0.00  0.00    +0.000 A 
ATOM     32  C   UNL     1      -3.720  11.529  18.132  0.00  0.00    +0.000 A 
ATOM     33  C   UNL     1      -3.761  10.536  17.154  0.00  0.00    +0.000 A 
ATOM     34  C   UNL     1      -2.602   9.839  16.822  0.00  0.00    +0.000 A 
ATOM     35  C   UNL     1      -1.398  10.135  17.463  0.00  0.00    +0.000 A 
ENDBRANCH  29  30
ENDBRANCH  28  29
ENDBRANCH  11  28
TORSDOF 8
ENDMDL
MODEL 3
REMARK VINA RESULT:      -7.3      1.626      2.341
REMARK  Name = 
REMARK  8 active torsions:
REMARK  status: ('A' for Active; 'I' for Inactive)
REMARK    1  A    between atoms: O5*_1  and  C5*_2
REMARK    2  A    between atoms: C5*_2  and  C4*_3
REMARK    3  A    between atoms: C1*_5  and  N_6
REMARK    4  A    between atoms: C_16  and  S_17
REMARK    5  A    between atoms: S_17  and  C_18
REMARK    6  A    between atoms: C_18  and  C_19
REMARK    7  A    between atoms: C2*_29  and  O2*_30
REMARK    8  A    between atoms: C3*_31  and  O3*_32
REMARK                            x       y       z     vdW  Elec       q    Type
REMARK                         _______ _______ _______ _____ _____    ______ ____
ROOT
ATOM      1  N   UNL     1       3.490   5.746  18.475  0.00  0.00    +0.000 N 
ATOM      2  C   UNL     1       4.124   6.470  17.466  0.00  0.00    +0.000 A 
ATOM      3  N   UNL     1       5.052   5.902  16.658  0.00  0.00    +0.000 N 
ATOM      4  C   UNL     1       5.171   6.340  15.260  0.00  0.00    +0.000 C 
ATOM      5  C   UNL     1       5.665   5.130  14.437  0.00  0.00    +0.000 C 
ATOM      6  O   UNL     1       6.887   4.562  14.960  0.00  0.00    +0.000 OA
ATOM      7  C   UNL     1       6.740   4.216  16.351  0.00  0.00    +0.000 C 
ATOM      8  C   UNL     1       6.350   5.454  17.171  0.00  0.00    +0.000 C 
ATOM      9  N   UNL     1       3.622   7.680  17.362  0.00  0.00    +0.000 NA
ATOM     10  C   UNL     1       2.731   7.808  18.410  0.00  0.00    +0.000 A 
ATOM     11  C   UNL     1       1.938   8.859  18.892  0.00  0.00    +0.000 A 
ATOM     12  N   UNL     1       1.174   8.670  20.002  0.00  0.00    +0.000 NA
ATOM     13  C   UNL     1       1.204   7.462  20.587  0.00  0.00    +0.000 A 
ATOM     14  N   UNL     1       1.899   6.385  20.204  0.00  0.00    +0.000 NA
ATOM     15  C   UNL     1       2.651   6.617  19.117  0.00  0.00    +0.000 A 
ENDROOT
BRANCH   1  18
ATOM     16  C4* UNL     1       2.639   2.474  19.693  0.00  0.00    +0.000 C 
ATOM     17  O4* UNL     1       2.523   3.585  18.776  0.00  0.00    +0.000 OA
ATOM     18  C1* UNL     1       3.746   4.363  18.827  0.00  0.00    +0.000 C 
ATOM     19  C2* UNL     1       4.421   4.019  20.156  0.00  0.00    +0.000 C 
ATOM     20  C3* UNL     1       4.031   2.555  20.313  0.00  0.00    +0.000 C 
BRANCH  19  21
ATOM     21  O2* UNL     1       5.846   4.148  20.094  0.00  0.00    +0.000 OA
ATOM     22  H2* UNL     1       6.155   3.458  19.473  0.00  0.00    +0.000 HD
ENDBRANCH  19  21
BRANCH  20  23
ATOM     23  O3* UNL     1       4.980   1.754  19.569  0.00  0.00    +0.000 OA
ATOM     24  H3* UNL     1       4.657   0.836  19.525  0.00  0.00    +0.000 HD
ENDBRANCH  20  23
BRANCH  16  25
ATOM     25  C5* UNL     1       1.500   2.520  20.713  0.00  0.00    +0.000 C 
BRANCH  25  26
ATOM     26  O5* UNL     1       0.649   3.635  20.488  0.00  0.00    +0.000 OA
ATOM     27  H5* UNL     1       0.383   3.970  21.363  0.00  0.00    +0.000 HD
ENDBRANCH  25  26
ENDBRANCH  16  25
ENDBRANCH   1  18
BRANCH  11  28
ATOM     28  S   UNL     1       1.902  10.411  18.055  0.00  0.00    +0.000 S 
BRANCH  28  29
ATOM     29  C   UNL     1       0.965  11.407  19.260  0.00  0.00    +0.000 C 
BRANCH  29  30
ATOM     30  C   UNL     1       1.212  12.884  19.054  0.00  0.00    +0.000 A 
ATOM     31  C   UNL     1       0.175  13.811  19.234  0.00  0.00    +0.000 A 
ATOM     32  C   UNL     1       0.395  15.175  19.024  0.00  0.00    +0.000 A 
ATOM     33  C   UNL     1       1.655  15.624  18.630  0.00  0.00    +0.000 A 
ATOM     34  C   UNL     1       2.691  14.712  18.440  0.00  0.00    +0.000 A 
ATOM     35  C   UNL     1       2.471  13.349  18.648  0.00  0.00    +0.000 A 
ENDBRANCH  29  30
ENDBRANCH  28  29
ENDBRANCH  11  28
TORSDOF 8
ENDMDL
MODEL 4
REMARK VINA RESULT:      -7.1      5.981     10.740
REMARK  Name = 
REMARK  8 active torsions:
REMARK  status: ('A' for Active; 'I' for Inactive)
REMARK    1  A    between atoms: O5*_1  and  C5*_2
REMARK    2  A    between atoms: C5*_2  and  C4*_3
REMARK    3  A    between atoms: C1*_5  and  N_6
REMARK    4  A    between atoms: C_16  and  S_17
REMARK    5  A    between atoms: S_17  and  C_18
REMARK    6  A    between atoms: C_18  and  C_19
REMARK    7  A    between atoms: C2*_29  and  O2*_30
REMARK    8  A    between atoms: C3*_31  and  O3*_32
REMARK                            x       y       z     vdW  Elec       q    Type
REMARK                         _______ _______ _______ _____ _____    ______ ____
ROOT
ATOM      1  N   UNL     1      -3.721  12.158  19.524  0.00  0.00    +0.000 N 
ATOM      2  C   UNL     1      -2.878  12.753  20.462  0.00  0.00    +0.000 A 
ATOM      3  N   UNL     1      -3.347  13.628  21.385  0.00  0.00    +0.000 N 
ATOM      4  C   UNL     1      -2.730  13.684  22.718  0.00  0.00    +0.000 C 
ATOM      5  C   UNL     1      -3.827  14.112  23.718  0.00  0.00    +0.000 C 
ATOM      6  O   UNL     1      -4.475  15.346  23.339  0.00  0.00    +0.000 OA
ATOM      7  C   UNL     1      -5.000  15.264  22.000  0.00  0.00    +0.000 C 
ATOM      8  C   UNL     1      -3.876  14.941  21.005  0.00  0.00    +0.000 C 
ATOM      9  N   UNL     1      -1.659  12.271  20.380  0.00  0.00    +0.000 NA
ATOM     10  C   UNL     1      -1.658  11.438  19.277  0.00  0.00    +0.000 A 
ATOM     11  C   UNL     1      -0.670  10.691  18.620  0.00  0.00    +0.000 A 
ATOM     12  N   UNL     1      -0.994   9.981  17.506  0.00  0.00    +0.000 NA
ATOM     13  C   UNL     1      -2.270  10.016  17.087  0.00  0.00    +0.000 A 
ATOM     14  N   UNL     1      -3.295  10.670  17.645  0.00  0.00    +0.000 NA
ATOM     15  C   UNL     1      -2.932  11.369  18.730  0.00  0.00    +0.000 A 
ENDROOT
BRANCH   1  18
ATOM     16  C4* UNL     1      -7.220  11.539  20.061  0.00  0.00    +0.000 C 
ATOM     17  O4* UNL     1      -5.880  11.865  20.497  0.00  0.00    +0.000 OA
ATOM     18  C1* UNL     1      -5.142  12.403  19.370  0.00  0.00    +0.000 C 
ATOM     19  C2* UNL     1      -5.872  11.935  18.110  0.00  0.00    +0.000 C 
ATOM     20  C3* UNL     1      -7.318  11.939  18.591  0.00  0.00    +0.000 C 
BRANCH  19  21
ATOM     21  O2* UNL     1      -5.712  12.845  17.017  0.00  0.00    +0.000 OA
ATOM     22  H2* UNL     1      -5.354  12.319  16.274  0.00  0.00    +0.000 HD
ENDBRANCH  19  21
BRANCH  20  23
ATOM     23  O3* UNL     1      -7.835  13.283  18.450  0.00  0.00    +0.000 OA
ATOM     24  H3* UNL     1      -7.953  13.481  17.504  0.00  0.00    +0.000 HD
ENDBRANCH  20  23
BRANCH  16  25
ATOM     25  C5* UNL     1      -7.508  10.060  20.324  0.00  0.00    +0.000 C 
BRANCH  25  26
ATOM     26  O5* UNL     1      -7.567   9.321  19.112  0.00  0.00    +0.000 OA
ATOM     27  H5* UNL     1      -8.461   9.443  18.748  0.00  0.00    +0.000 HD
ENDBRANCH  25  26
ENDBRANCH  16  25
ENDBRANCH   1  18
BRANCH  11  28
ATOM     28  S   UNL     1       0.979  10.643  19.244  0.00  0.00    +0.000 S 
BRANCH  28  29
ATOM     29  C   UNL     1       1.801   9.709  17.912  0.00  0.00    +0.000 C 
BRANCH  29  30
ATOM     30  C   UNL     1       2.282   8.365  18.407  0.00  0.00    +0.000 A 
ATOM     31  C   UNL     1       3.179   7.603  17.644  0.00  0.00    +0.000 A 
ATOM     32  C   UNL     1       3.609   6.351  18.090  0.00  0.00    +0.000 A 
ATOM     33  C   UNL     1       3.144   5.848  19.305  0.00  0.00    +0.000 A 
ATOM     34  C   UNL     1       2.248   6.591  20.069  0.00  0.00    +0.000 A 
ATOM     35  C   UNL     1       1.816   7.842  19.623  0.00  0.00    +0.000 A 
ENDBRANCH  29  30
ENDBRANCH  28  29
ENDBRANCH  11  28
TORSDOF 8
ENDMDL
MODEL 5
REMARK VINA RESULT:      -7.1      1.021      1.604
REMARK  Name = 
REMARK  8 active torsions:
REMARK  status: ('A' for Active; 'I' for Inactive)
REMARK    1  A    between atoms: O5*_1  and  C5*_2
REMARK    2  A    between atoms: C5*_2  and  C4*_3
REMARK    3  A    between atoms: C1*_5  and  N_6
REMARK    4  A    between atoms: C_16  and  S_17
REMARK    5  A    between atoms: S_17  and  C_18
REMARK    6  A    between atoms: C_18  and  C_19
REMARK    7  A    between atoms: C2*_29  and  O2*_30
REMARK    8  A    between atoms: C3*_31  and  O3*_32
REMARK                            x       y       z     vdW  Elec       q    Type
REMARK                         _______ _______ _______ _____ _____    ______ ____
ROOT
ATOM      1  N   UNL     1       3.401   5.762  18.610  0.00  0.00    +0.000 N 
ATOM      2  C   UNL     1       4.005   6.527  17.613  0.00  0.00    +0.000 A 
ATOM      3  N   UNL     1       4.940   6.004  16.783  0.00  0.00    +0.000 N 
ATOM      4  C   UNL     1       5.034   6.479  15.396  0.00  0.00    +0.000 C 
ATOM      5  C   UNL     1       5.553   5.303  14.539  0.00  0.00    +0.000 C 
ATOM      6  O   UNL     1       6.795   4.757  15.037  0.00  0.00    +0.000 OA
ATOM      7  C   UNL     1       6.671   4.373  16.420  0.00  0.00    +0.000 C 
ATOM      8  C   UNL     1       6.255   5.580  17.273  0.00  0.00    +0.000 C 
ATOM      9  N   UNL     1       3.469   7.725  17.543  0.00  0.00    +0.000 NA
ATOM     10  C   UNL     1       2.585   7.803  18.602  0.00  0.00    +0.000 A 
ATOM     11  C   UNL     1       1.768   8.819  19.117  0.00  0.00    +0.000 A 
ATOM     12  N   UNL     1       1.020   8.583  20.229  0.00  0.00    +0.000 NA
ATOM     13  C   UNL     1       1.089   7.361  20.784  0.00  0.00    +0.000 A 
ATOM     14  N   UNL     1       1.810   6.314  20.368  0.00  0.00    +0.000 NA
ATOM     15  C   UNL     1       2.544   6.593  19.280  0.00  0.00    +0.000 A 
ENDROOT
BRANCH   1  18
ATOM     16  C4* UNL     1       2.661   2.448  19.789  0.00  0.00    +0.000 C 
ATOM     17  O4* UNL     1       2.490   3.574  18.898  0.00  0.00    +0.000 OA
ATOM     18  C1* UNL     1       3.698   4.377  18.926  0.00  0.00    +0.000 C 
ATOM     19  C2* UNL     1       4.424   4.023  20.225  0.00  0.00    +0.000 C 
ATOM     20  C3* UNL     1       4.070   2.548  20.365  0.00  0.00    +0.000 C 
BRANCH  19  21
ATOM     21  O2* UNL     1       5.842   4.184  20.120  0.00  0.00    +0.000 OA
ATOM     22  H2* UNL     1       6.172   4.297  21.034  0.00  0.00    +0.000 HD
ENDBRANCH  19  21
BRANCH  20  23
ATOM     23  O3* UNL     1       5.011   1.783  19.574  0.00  0.00    +0.000 OA
ATOM     24  H3* UNL     1       4.537   1.059  19.128  0.00  0.00    +0.000 HD
ENDBRANCH  20  23
BRANCH  16  25
ATOM     25  C5* UNL     1       1.554   2.449  20.846  0.00  0.00    +0.000 C 
BRANCH  25  26
ATOM     26  O5* UNL     1       0.678   3.554  20.676  0.00  0.00    +0.000 OA
ATOM     27  H5* UNL     1       0.888   3.953  19.813  0.00  0.00    +0.000 HD
ENDBRANCH  25  26
ENDBRANCH  16  25
ENDBRANCH   1  18
BRANCH  11  28
ATOM     28  S   UNL     1       1.681  10.389  18.318  0.00  0.00    +0.000 S 
BRANCH  28  29
ATOM     29  C   UNL     1      -0.125  10.637  18.287  0.00  0.00    +0.000 C 
BRANCH  29  30
ATOM     30  C   UNL     1      -0.509  11.919  18.989  0.00  0.00    +0.000 A 
ATOM     31  C   UNL     1      -1.270  11.886  20.167  0.00  0.00    +0.000 A 
ATOM     32  C   UNL     1      -1.644  13.071  20.806  0.00  0.00    +0.000 A 
ATOM     33  C   UNL     1      -1.262  14.301  20.271  0.00  0.00    +0.000 A 
ATOM     34  C   UNL     1      -0.514  14.347  19.098  0.00  0.00    +0.000 A 
ATOM     35  C   UNL     1      -0.140  13.164  18.457  0.00  0.00    +0.000 A 
ENDBRANCH  29  30
ENDBRANCH  28  29
ENDBRANCH  11  28
TORSDOF 8
ENDMDL
MODEL 6
REMARK VINA RESULT:      -6.9      0.943      1.113
REMARK  Name = 
REMARK  8 active torsions:
REMARK  status: ('A' for Active; 'I' for Inactive)
REMARK    1  A    between atoms: O5*_1  and  C5*_2
REMARK    2  A    between atoms: C5*_2  and  C4*_3
REMARK    3  A    between atoms: C1*_5  and  N_6
REMARK    4  A    between atoms: C_16  and  S_17
REMARK    5  A    between atoms: S_17  and  C_18
REMARK    6  A    between atoms: C_18  and  C_19
REMARK    7  A    between atoms: C2*_29  and  O2*_30
REMARK    8  A    between atoms: C3*_31  and  O3*_32
REMARK                            x       y       z     vdW  Elec       q    Type
REMARK                         _______ _______ _______ _____ _____    ______ ____
ROOT
ATOM      1  N   UNL     1       3.251   5.197  18.443  0.00  0.00    +0.000 N 
ATOM      2  C   UNL     1       3.975   6.120  17.689  0.00  0.00    +0.000 A 
ATOM      3  N   UNL     1       4.887   5.726  16.767  0.00  0.00    +0.000 N 
ATOM      4  C   UNL     1       5.091   6.527  15.552  0.00  0.00    +0.000 C 
ATOM      5  C   UNL     1       5.524   5.559  14.428  0.00  0.00    +0.000 C 
ATOM      6  O   UNL     1       6.679   4.769  14.788  0.00  0.00    +0.000 OA
ATOM      7  C   UNL     1       6.455   4.060  16.022  0.00  0.00    +0.000 C 
ATOM      8  C   UNL     1       6.128   5.047  17.152  0.00  0.00    +0.000 C 
ATOM      9  N   UNL     1       3.570   7.348  17.923  0.00  0.00    +0.000 NA
ATOM     10  C   UNL     1       2.652   7.250  18.951  0.00  0.00    +0.000 A 
ATOM     11  C   UNL     1       1.922   8.186  19.699  0.00  0.00    +0.000 A 
ATOM     12  N   UNL     1       1.105   7.757  20.698  0.00  0.00    +0.000 NA
ATOM     13  C   UNL     1       1.022   6.435  20.919  0.00  0.00    +0.000 A 
ATOM     14  N   UNL     1       1.649   5.456  20.257  0.00  0.00    +0.000 NA
ATOM     15  C   UNL     1       2.456   5.919  19.291  0.00  0.00    +0.000 A 
ENDROOT
BRANCH   1  18
ATOM     16  C4* UNL     1       2.089   1.799  18.560  0.00  0.00    +0.000 C 
ATOM     17  O4* UNL     1       2.138   3.132  18.004  0.00  0.00    +0.000 OA
ATOM     18  C1* UNL     1       3.389   3.754  18.394  0.00  0.00    +0.000 C 
ATOM     19  C2* UNL     1       3.890   2.987  19.619  0.00  0.00    +0.000 C 
ATOM     20  C3* UNL     1       3.405   1.578  19.301  0.00  0.00    +0.000 C 
BRANCH  19  21
ATOM     21  O2* UNL     1       5.317   3.005  19.729  0.00  0.00    +0.000 OA
ATOM     22  H2* UNL     1       5.516   3.217  20.663  0.00  0.00    +0.000 HD
ENDBRANCH  19  21
BRANCH  20  23
ATOM     23  O3* UNL     1       4.386   0.947  18.444  0.00  0.00    +0.000 OA
ATOM     24  H3* UNL     1       4.551   0.042  18.764  0.00  0.00    +0.000 HD
ENDBRANCH  20  23
BRANCH  16  25
ATOM     25  C5* UNL     1       0.846   1.647  19.439  0.00  0.00    +0.000 C 
BRANCH  25  26
ATOM     26  O5* UNL     1       0.367   2.910  19.880  0.00  0.00    +0.000 OA
ATOM     27  H5* UNL     1       0.899   3.160  20.656  0.00  0.00    +0.000 HD
ENDBRANCH  25  26
ENDBRANCH  16  25
ENDBRANCH   1  18
BRANCH  11  28
ATOM     28  S   UNL     1       2.034   9.907  19.332  0.00  0.00    +0.000 S 
BRANCH  28  29
ATOM     29  C   UNL     1       0.979   9.992  17.848  0.00  0.00    +0.000 C 
BRANCH  29  30
ATOM     30  C   UNL     1      -0.382  10.559  18.180  0.00  0.00    +0.000 A 
ATOM     31  C   UNL     1      -0.518  11.561  19.152  0.00  0.00    +0.000 A 
ATOM     32  C   UNL     1      -1.777  12.073  19.475  0.00  0.00    +0.000 A 
ATOM     33  C   UNL     1      -2.913  11.587  18.828  0.00  0.00    +0.000 A 
ATOM     34  C   UNL     1      -2.792  10.587  17.866  0.00  0.00    +0.000 A 
ATOM     35  C   UNL     1      -1.534  10.073  17.544  0.00  0.00    +0.000 A 
ENDBRANCH  29  30
ENDBRANCH  28  29
ENDBRANCH  11  28
TORSDOF 8
ENDMDL
MODEL 7
REMARK VINA RESULT:      -6.8      2.056      2.989
REMARK  Name = 
REMARK  8 active torsions:
REMARK  status: ('A' for Active; 'I' for Inactive)
REMARK    1  A    between atoms: O5*_1  and  C5*_2
REMARK    2  A    between atoms: C5*_2  and  C4*_3
REMARK    3  A    between atoms: C1*_5  and  N_6
REMARK    4  A    between atoms: C_16  and  S_17
REMARK    5  A    between atoms: S_17  and  C_18
REMARK    6  A    between atoms: C_18  and  C_19
REMARK    7  A    between atoms: C2*_29  and  O2*_30
REMARK    8  A    between atoms: C3*_31  and  O3*_32
REMARK                            x       y       z     vdW  Elec       q    Type
REMARK                         _______ _______ _______ _____ _____    ______ ____
ROOT
ATOM      1  N   UNL     1       3.233   6.137  19.062  0.00  0.00    +0.000 N 
ATOM      2  C   UNL     1       3.882   6.810  18.029  0.00  0.00    +0.000 A 
ATOM      3  N   UNL     1       4.870   6.225  17.308  0.00  0.00    +0.000 N 
ATOM      4  C   UNL     1       5.036   6.561  15.888  0.00  0.00    +0.000 C 
ATOM      5  C   UNL     1       5.619   5.317  15.182  0.00  0.00    +0.000 C 
ATOM      6  O   UNL     1       6.836   4.845  15.800  0.00  0.00    +0.000 OA
ATOM      7  C   UNL     1       6.640   4.598  17.206  0.00  0.00    +0.000 C 
ATOM      8  C   UNL     1       6.160   5.875  17.910  0.00  0.00    +0.000 C 
ATOM      9  N   UNL     1       3.336   7.985  17.810  0.00  0.00    +0.000 NA
ATOM     10  C   UNL     1       2.393   8.152  18.805  0.00  0.00    +0.000 A 
ATOM     11  C   UNL     1       1.535   9.199  19.170  0.00  0.00    +0.000 A 
ATOM     12  N   UNL     1       0.728   9.060  20.257  0.00  0.00    +0.000 NA
ATOM     13  C   UNL     1       0.781   7.901  20.934  0.00  0.00    +0.000 A 
ATOM     14  N   UNL     1       1.537   6.832  20.665  0.00  0.00    +0.000 NA
ATOM     15  C   UNL     1       2.329   7.014  19.597  0.00  0.00    +0.000 A 
ENDROOT
BRANCH   1  18
ATOM     16  C4* UNL     1       3.438   2.557  18.809  0.00  0.00    +0.000 C 
ATOM     17  O4* UNL     1       3.779   3.905  18.414  0.00  0.00    +0.000 OA
ATOM     18  C1* UNL     1       3.529   4.796  19.531  0.00  0.00    +0.000 C 
ATOM     19  C2* UNL     1       2.549   4.069  20.453  0.00  0.00    +0.000 C 
ATOM     20  C3* UNL     1       2.989   2.623  20.266  0.00  0.00    +0.000 C 
BRANCH  19  21
ATOM     21  O2* UNL     1       2.697   4.458  21.823  0.00  0.00    +0.000 OA
ATOM     22  H2* UNL     1       2.488   3.665  22.356  0.00  0.00    +0.000 HD
ENDBRANCH  19  21
BRANCH  20  23
ATOM     23  O3* UNL     1       4.096   2.370  21.164  0.00  0.00    +0.000 OA
ATOM     24  H3* UNL     1       4.931   2.560  20.700  0.00  0.00    +0.000 HD
ENDBRANCH  20  23
BRANCH  16  25
ATOM     25  C5* UNL     1       2.383   1.988  17.858  0.00  0.00    +0.000 C 
BRANCH  25  26
ATOM     26  O5* UNL     1       1.236   1.539  18.566  0.00  0.00    +0.000 OA
ATOM     27  H5* UNL     1       1.197   2.048  19.396  0.00  0.00    +0.000 HD
ENDBRANCH  25  26
ENDBRANCH  16  25
ENDBRANCH   1  18
BRANCH  11  28
ATOM     28  S   UNL     1       1.474  10.680  18.214  0.00  0.00    +0.000 S 
BRANCH  28  29
ATOM     29  C   UNL     1       1.314  11.917  19.544  0.00  0.00    +0.000 C 
BRANCH  29  30
ATOM     30  C   UNL     1       1.718  13.290  19.061  0.00  0.00    +0.000 A 
ATOM     31  C   UNL     1       2.957  13.490  18.433  0.00  0.00    +0.000 A 
ATOM     32  C   UNL     1       3.341  14.762  18.004  0.00  0.00    +0.000 A 
ATOM     33  C   UNL     1       2.489  15.849  18.200  0.00  0.00    +0.000 A 
ATOM     34  C   UNL     1       1.260  15.666  18.828  0.00  0.00    +0.000 A 
ATOM     35  C   UNL     1       0.875  14.394  19.259  0.00  0.00    +0.000 A 
ENDBRANCH  29  30
ENDBRANCH  28  29
ENDBRANCH  11  28
TORSDOF 8
ENDMDL
MODEL 8
REMARK VINA RESULT:      -6.7      6.352     11.177
REMARK  Name = 
REMARK  8 active torsions:
REMARK  status: ('A' for Active; 'I' for Inactive)
REMARK    1  A    between atoms: O5*_1  and  C5*_2
REMARK    2  A    between atoms: C5*_2  and  C4*_3
REMARK    3  A    between atoms: C1*_5  and  N_6
REMARK    4  A    between atoms: C_16  and  S_17
REMARK    5  A    between atoms: S_17  and  C_18
REMARK    6  A    between atoms: C_18  and  C_19
REMARK    7  A    between atoms: C2*_29  and  O2*_30
REMARK    8  A    between atoms: C3*_31  and  O3*_32
REMARK                            x       y       z     vdW  Elec       q    Type
REMARK                         _______ _______ _______ _____ _____    ______ ____
ROOT
ATOM      1  N   UNL     1      -3.703  12.977  20.738  0.00  0.00    +0.000 N 
ATOM      2  C   UNL     1      -2.705  13.490  21.565  0.00  0.00    +0.000 A 
ATOM      3  N   UNL     1      -2.997  14.276  22.630  0.00  0.00    +0.000 N 
ATOM      4  C   UNL     1      -2.159  14.215  23.835  0.00  0.00    +0.000 C 
ATOM      5  C   UNL     1      -3.062  14.546  25.044  0.00  0.00    +0.000 C 
ATOM      6  O   UNL     1      -3.751  15.807  24.895  0.00  0.00    +0.000 OA
ATOM      7  C   UNL     1      -4.500  15.843  23.665  0.00  0.00    +0.000 C 
ATOM      8  C   UNL     1      -3.569  15.615  22.466  0.00  0.00    +0.000 C 
ATOM      9  N   UNL     1      -1.524  13.022  21.230  0.00  0.00    +0.000 NA
ATOM     10  C   UNL     1      -1.723  12.291  20.075  0.00  0.00    +0.000 A 
ATOM     11  C   UNL     1      -0.872  11.610  19.193  0.00  0.00    +0.000 A 
ATOM     12  N   UNL     1      -1.391  11.002  18.092  0.00  0.00    +0.000 NA
ATOM     13  C   UNL     1      -2.720  11.069  17.905  0.00  0.00    +0.000 A 
ATOM     14  N   UNL     1      -3.626  11.666  18.688  0.00  0.00    +0.000 NA
ATOM     15  C   UNL     1      -3.073  12.267  19.752  0.00  0.00    +0.000 A 
ENDROOT
BRANCH   1  18
ATOM     16  C4* UNL     1      -7.176  12.073  20.946  0.00  0.00    +0.000 C 
ATOM     17  O4* UNL     1      -5.808  12.078  21.415  0.00  0.00    +0.000 OA
ATOM     18  C1* UNL     1      -5.127  13.230  20.855  0.00  0.00    +0.000 C 
ATOM     19  C2* UNL     1      -5.936  13.657  19.629  0.00  0.00    +0.000 C 
ATOM     20  C3* UNL     1      -7.351  13.318  20.079  0.00  0.00    +0.000 C 
BRANCH  19  21
ATOM     21  O2* UNL     1      -5.825  15.060  19.364  0.00  0.00    +0.000 OA
ATOM     22  H2* UNL     1      -4.885  15.223  19.147  0.00  0.00    +0.000 HD
ENDBRANCH  19  21
BRANCH  20  23
ATOM     23  O3* UNL     1      -7.854  14.428  20.859  0.00  0.00    +0.000 OA
ATOM     24  H3* UNL     1      -8.251  15.085  20.258  0.00  0.00    +0.000 HD
ENDBRANCH  20  23
BRANCH  16  25
ATOM     25  C5* UNL     1      -7.472  10.761  20.217  0.00  0.00    +0.000 C 
BRANCH  25  26
ATOM     26  O5* UNL     1      -7.419   9.653  21.106  0.00  0.00    +0.000 OA
ATOM     27  H5* UNL     1      -8.269   9.185  21.026  0.00  0.00    +0.000 HD
ENDBRANCH  25  26
ENDBRANCH  16  25
ENDBRANCH   1  18
BRANCH  11  28
ATOM     28  S   UNL     1       0.859  11.514  19.515  0.00  0.00    +0.000 S 
BRANCH  28  29
ATOM     29  C   UNL     1       1.375  10.386  18.178  0.00  0.00    +0.000 C 
BRANCH  29  30
ATOM     30  C   UNL     1       1.736   9.024  18.725  0.00  0.00    +0.000 A 
ATOM     31  C   UNL     1       2.389   8.082  17.916  0.00  0.00    +0.000 A 
ATOM     32  C   UNL     1       2.705   6.815  18.412  0.00  0.00    +0.000 A 
ATOM     33  C   UNL     1       2.370   6.478  19.723  0.00  0.00    +0.000 A 
ATOM     34  C   UNL     1       1.716   7.402  20.534  0.00  0.00    +0.000 A 
ATOM     35  C   UNL     1       1.397   8.668  20.039  0.00  0.00    +0.000 A 
ENDBRANCH  29  30
ENDBRANCH  28  29
ENDBRANCH  11  28
TORSDOF 8
ENDMDL
MODEL 9
REMARK VINA RESULT:      -6.7      1.538      4.201
REMARK  Name = 
REMARK  8 active torsions:
REMARK  status: ('A' for Active; 'I' for Inactive)
REMARK    1  A    between atoms: O5*_1  and  C5*_2
REMARK    2  A    between atoms: C5*_2  and  C4*_3
REMARK    3  A    between atoms: C1*_5  and  N_6
REMARK    4  A    between atoms: C_16  and  S_17
REMARK    5  A    between atoms: S_17  and  C_18
REMARK    6  A    between atoms: C_18  and  C_19
REMARK    7  A    between atoms: C2*_29  and  O2*_30
REMARK    8  A    between atoms: C3*_31  and  O3*_32
REMARK                            x       y       z     vdW  Elec       q    Type
REMARK                         _______ _______ _______ _____ _____    ______ ____
ROOT
ATOM      1  N   UNL     1       3.415   6.544  18.384  0.00  0.00    +0.000 N 
ATOM      2  C   UNL     1       2.505   5.894  19.217  0.00  0.00    +0.000 A 
ATOM      3  N   UNL     1       2.634   4.579  19.521  0.00  0.00    +0.000 N 
ATOM      4  C   UNL     1       2.210   4.089  20.840  0.00  0.00    +0.000 C 
ATOM      5  C   UNL     1       3.104   2.880  21.193  0.00  0.00    +0.000 C 
ATOM      6  O   UNL     1       3.085   1.856  20.174  0.00  0.00    +0.000 OA
ATOM      7  C   UNL     1       3.438   2.402  18.888  0.00  0.00    +0.000 C 
ATOM      8  C   UNL     1       2.474   3.534  18.506  0.00  0.00    +0.000 C 
ATOM      9  N   UNL     1       1.629   6.737  19.715  0.00  0.00    +0.000 NA
ATOM     10  C   UNL     1       1.879   7.947  19.096  0.00  0.00    +0.000 A 
ATOM     11  C   UNL     1       1.262   9.206  19.131  0.00  0.00    +0.000 A 
ATOM     12  N   UNL     1       1.742  10.212  18.352  0.00  0.00    +0.000 NA
ATOM     13  C   UNL     1       2.812   9.954  17.581  0.00  0.00    +0.000 A 
ATOM     14  N   UNL     1       3.492   8.806  17.486  0.00  0.00    +0.000 NA
ATOM     15  C   UNL     1       2.978   7.836  18.256  0.00  0.00    +0.000 A 
ENDROOT
BRANCH   1  18
ATOM     16  C4* UNL     1       6.781   5.313  18.125  0.00  0.00    +0.000 C 
ATOM     17  O4* UNL     1       5.444   5.322  18.675  0.00  0.00    +0.000 OA
ATOM     18  C1* UNL     1       4.549   5.938  17.713  0.00  0.00    +0.000 C 
ATOM     19  C2* UNL     1       5.426   6.772  16.778  0.00  0.00    +0.000 C 
ATOM     20  C3* UNL     1       6.691   5.924  16.729  0.00  0.00    +0.000 C 
BRANCH  19  21
ATOM     21  O2* UNL     1       4.863   6.896  15.468  0.00  0.00    +0.000 OA
ATOM     22  H2* UNL     1       5.583   7.223  14.891  0.00  0.00    +0.000 HD
ENDBRANCH  19  21
BRANCH  20  23
ATOM     23  O3* UNL     1       6.508   4.899  15.723  0.00  0.00    +0.000 OA
ATOM     24  H3* UNL     1       5.884   5.224  15.049  0.00  0.00    +0.000 HD
ENDBRANCH  20  23
BRANCH  16  25
ATOM     25  C5* UNL     1       7.736   6.049  19.067  0.00  0.00    +0.000 C 
BRANCH  25  26
ATOM     26  O5* UNL     1       7.797   5.418  20.338  0.00  0.00    +0.000 OA
ATOM     27  H5* UNL     1       7.163   5.881  20.916  0.00  0.00    +0.000 HD
ENDBRANCH  25  26
ENDBRANCH  16  25
ENDBRANCH   1  18
BRANCH  11  28
ATOM     28  S   UNL     1      -0.110   9.500  20.199  0.00  0.00    +0.000 S 
BRANCH  28  29
ATOM     29  C   UNL     1      -0.671  11.116  19.567  0.00  0.00    +0.000 C 
BRANCH  29  30
ATOM     30  C   UNL     1      -1.822  10.953  18.602  0.00  0.00    +0.000 A 
ATOM     31  C   UNL     1      -1.717  10.080  17.508  0.00  0.00    +0.000 A 
ATOM     32  C   UNL     1      -2.772   9.944  16.603  0.00  0.00    +0.000 A 
ATOM     33  C   UNL     1      -3.943  10.679  16.783  0.00  0.00    +0.000 A 
ATOM     34  C   UNL     1      -4.057  11.554  17.860  0.00  0.00    +0.000 A 
ATOM     35  C   UNL     1      -3.002  11.694  18.765  0.00  0.00    +0.000 A 
ENDBRANCH  29  30
ENDBRANCH  28  29
ENDBRANCH  11  28
TORSDOF 8
ENDMDL
