MODEL 1
REMARK VINA RESULT:      -6.8      0.000      0.000
REMARK  Name = 
REMARK  11 active torsions:
REMARK  status: ('A' for Active; 'I' for Inactive)
REMARK    1  A    between atoms: C_1  and  O_2
REMARK    2  A    between atoms: O_2  and  C_3
REMARK    3  A    between atoms: C_3  and  C_4
REMARK    4  A    between atoms: C_4  and  C_5
REMARK    5  A    between atoms: C_10  and  O_11
REMARK    6  A    between atoms: O_11  and  C_12
REMARK    7  A    between atoms: C_15  and  C_16
REMARK    8  A    between atoms: N_18  and  C_19
REMARK    9  A    between atoms: N_18  and  C_20
REMARK   10  A    between atoms: C_20  and  C_21
REMARK   11  A    between atoms: C_20  and  C_22
REMARK                            x       y       z     vdW  Elec       q    Type
REMARK                         _______ _______ _______ _____ _____    ______ ____
ROOT
ATOM      1  C   UNL     1       1.999   7.318  18.676  0.00  0.00    +0.000 A 
ATOM      2  C   UNL     1       1.808   8.467  17.914  0.00  0.00    +0.000 A 
ATOM      3  C   UNL     1       1.390   9.670  18.526  0.00  0.00    +0.000 A 
ATOM      4  C   UNL     1       1.204   9.754  19.922  0.00  0.00    +0.000 A 
ATOM      5  C   UNL     1       1.499   8.613  20.653  0.00  0.00    +0.000 A 
ATOM      6  C   UNL     1       1.767   7.395  20.042  0.00  0.00    +0.000 A 
ENDROOT
BRANCH   4   7
ATOM      7  C   UNL     1       0.716  11.048  20.538  0.00  0.00    +0.000 C 
ATOM      8  O   UNL     1       1.477  11.577  21.356  0.00  0.00    +0.000 OA
ATOM      9  N   UNL     1      -0.504  11.680  20.180  0.00  0.00    +0.000 N 
ATOM     10  C   UNL     1      -1.537  11.123  19.316  0.00  0.00    +0.000 C 
BRANCH   9  11
ATOM     11  C   UNL     1      -0.852  12.922  20.916  0.00  0.00    +0.000 C 
ATOM     12  C   UNL     1      -1.094  14.150  20.018  0.00  0.00    +0.000 C 
BRANCH  11  13
ATOM     13  C   UNL     1      -2.028  12.721  21.838  0.00  0.00    +0.000 A 
ATOM     14  C   UNL     1      -2.055  11.953  23.028  0.00  0.00    +0.000 A 
ATOM     15  C   UNL     1      -3.272  12.234  23.587  0.00  0.00    +0.000 A 
ATOM     16  O   UNL     1      -3.954  13.082  22.780  0.00  0.00    +0.000 OA
ATOM     17  N   UNL     1      -3.180  13.393  21.675  0.00  0.00    +0.000 NA
ENDBRANCH  11  13
ENDBRANCH   9  11
ENDBRANCH   4   7
BRANCH   1  18
ATOM     18  O   UNL     1       2.468   6.194  18.049  0.00  0.00    +0.000 OA
BRANCH  18  24
ATOM     19  C   UNL     1       6.454   5.059  15.411  0.00  0.00    +0.000 C 
ATOM     20  O   UNL     1       7.374   5.881  15.368  0.00  0.00    +0.000 OA
ATOM     21  N   UNL     1       5.247   5.341  16.036  0.00  0.00    +0.000 N 
ATOM     22  C   UNL     1       5.043   6.674  16.579  0.00  0.00    +0.000 C 
ATOM     23  C   UNL     1       4.929   6.587  18.089  0.00  0.00    +0.000 C 
ATOM     24  C   UNL     1       3.746   5.677  18.487  0.00  0.00    +0.000 C 
ATOM     25  C   UNL     1       3.956   4.290  17.855  0.00  0.00    +0.000 C 
ATOM     26  C   UNL     1       4.180   4.383  16.343  0.00  0.00    +0.000 C 
BRANCH  19  27
ATOM     27  C   UNL     1       6.592   3.701  14.766  0.00  0.00    +0.000 C 
BRANCH  27  28
ATOM     28  C   UNL     1       6.421   3.812  13.260  0.00  0.00    +0.000 C 
BRANCH  28  30
ATOM     29  C   UNL     1       4.889   3.093  11.632  0.00  0.00    +0.000 C 
ATOM     30  O   UNL     1       5.040   3.626  12.942  0.00  0.00    +0.000 OA
ENDBRANCH  28  30
ENDBRANCH  27  28
ENDBRANCH  19  27
ENDBRANCH  18  24
ENDBRANCH   1  18
TORSDOF 8
ENDMDL
MODEL 2
REMARK VINA RESULT:      -6.8      0.792      1.211
REMARK  Name = 
REMARK  11 active torsions:
REMARK  status: ('A' for Active; 'I' for Inactive)
REMARK    1  A    between atoms: C_1  and  O_2
REMARK    2  A    between atoms: O_2  and  C_3
REMARK    3  A    between atoms: C_3  and  C_4
REMARK    4  A    between atoms: C_4  and  C_5
REMARK    5  A    between atoms: C_10  and  O_11
REMARK    6  A    between atoms: O_11  and  C_12
REMARK    7  A    between atoms: C_15  and  C_16
REMARK    8  A    between atoms: N_18  and  C_19
REMARK    9  A    between atoms: N_18  and  C_20
REMARK   10  A    between atoms: C_20  and  C_21
REMARK   11  A    between atoms: C_20  and  C_22
REMARK                            x       y       z     vdW  Elec       q    Type
REMARK                         _______ _______ _______ _____ _____    ______ ____
ROOT
ATOM      1  C   UNL     1       2.136   6.917  19.083  0.00  0.00    +0.000 A 
ATOM      2  C   UNL     1       1.762   7.057  20.417  0.00  0.00    +0.000 A 
ATOM      3  C   UNL     1       1.316   8.305  20.908  0.00  0.00    +0.000 A 
ATOM      4  C   UNL     1       1.190   9.422  20.057  0.00  0.00    +0.000 A 
ATOM      5  C   UNL     1       1.481   9.214  18.717  0.00  0.00    +0.000 A 
ATOM      6  C   UNL     1       2.056   8.034  18.263  0.00  0.00    +0.000 A 
ENDROOT
BRANCH   4   7
ATOM      7  C   UNL     1       0.748  10.754  20.626  0.00  0.00    +0.000 C 
ATOM      8  O   UNL     1       1.459  11.221  21.523  0.00  0.00    +0.000 OA
ATOM      9  N   UNL     1      -0.372  11.483  20.145  0.00  0.00    +0.000 N 
ATOM     10  C   UNL     1      -1.350  11.011  19.173  0.00  0.00    +0.000 C 
BRANCH   9  11
ATOM     11  C   UNL     1      -0.692  12.752  20.846  0.00  0.00    +0.000 C 
ATOM     12  C   UNL     1      -0.904  13.962  19.917  0.00  0.00    +0.000 C 
BRANCH  11  13
ATOM     13  C   UNL     1      -1.875  12.602  21.771  0.00  0.00    +0.000 A 
ATOM     14  C   UNL     1      -3.152  13.196  21.622  0.00  0.00    +0.000 A 
ATOM     15  C   UNL     1      -3.913  12.614  22.599  0.00  0.00    +0.000 A 
ATOM     16  O   UNL     1      -3.148  11.756  23.316  0.00  0.00    +0.000 OA
ATOM     17  N   UNL     1      -1.862  11.743  22.803  0.00  0.00    +0.000 NA
ENDBRANCH  11  13
ENDBRANCH   9  11
ENDBRANCH   4   7
BRANCH   1  18
ATOM     18  O   UNL     1       2.499   5.674  18.638  0.00  0.00    +0.000 OA
BRANCH  18  24
ATOM     19  C   UNL     1       6.468   5.157  15.789  0.00  0.00    +0.000 C 
ATOM     20  O   UNL     1       7.324   6.046  15.821  0.00  0.00    +0.000 OA
ATOM     21  N   UNL     1       5.265   5.272  16.472  0.00  0.00    +0.000 N 
ATOM     22  C   UNL     1       4.982   6.515  17.172  0.00  0.00    +0.000 C 
ATOM     23  C   UNL     1       4.925   6.247  18.664  0.00  0.00    +0.000 C 
ATOM     24  C   UNL     1       3.825   5.209  18.981  0.00  0.00    +0.000 C 
ATOM     25  C   UNL     1       4.115   3.924  18.186  0.00  0.00    +0.000 C 
ATOM     26  C   UNL     1       4.281   4.207  16.691  0.00  0.00    +0.000 C 
BRANCH  19  27
ATOM     27  C   UNL     1       6.684   3.897  14.987  0.00  0.00    +0.000 C 
BRANCH  27  28
ATOM     28  C   UNL     1       6.399   4.152  13.516  0.00  0.00    +0.000 C 
BRANCH  28  30
ATOM     29  C   UNL     1       5.150   3.171  11.787  0.00  0.00    +0.000 C 
ATOM     30  O   UNL     1       5.988   2.926  12.910  0.00  0.00    +0.000 OA
ENDBRANCH  28  30
ENDBRANCH  27  28
ENDBRANCH  19  27
ENDBRANCH  18  24
ENDBRANCH   1  18
TORSDOF 8
ENDMDL
MODEL 3
REMARK VINA RESULT:      -6.8      2.566      3.461
REMARK  Name = 
REMARK  11 active torsions:
REMARK  status: ('A' for Active; 'I' for Inactive)
REMARK    1  A    between atoms: C_1  and  O_2
REMARK    2  A    between atoms: O_2  and  C_3
REMARK    3  A    between atoms: C_3  and  C_4
REMARK    4  A    between atoms: C_4  and  C_5
REMARK    5  A    between atoms: C_10  and  O_11
REMARK    6  A    between atoms: O_11  and  C_12
REMARK    7  A    between atoms: C_15  and  C_16
REMARK    8  A    between atoms: N_18  and  C_19
REMARK    9  A    between atoms: N_18  and  C_20
REMARK   10  A    between atoms: C_20  and  C_21
REMARK   11  A    between atoms: C_20  and  C_22
REMARK                            x       y       z     vdW  Elec       q    Type
REMARK                         _______ _______ _______ _____ _____    ______ ____
ROOT
ATOM      1  C   UNL     1       1.346   8.917  19.073  0.00  0.00    +0.000 A 
ATOM      2  C   UNL     1       0.675   9.280  20.238  0.00  0.00    +0.000 A 
ATOM      3  C   UNL     1      -0.464  10.113  20.178  0.00  0.00    +0.000 A 
ATOM      4  C   UNL     1      -0.982  10.556  18.943  0.00  0.00    +0.000 A 
ATOM      5  C   UNL     1      -0.342  10.091  17.804  0.00  0.00    +0.000 A 
ATOM      6  C   UNL     1       0.859   9.396  17.865  0.00  0.00    +0.000 A 
ENDROOT
BRANCH   4   7
ATOM      7  C   UNL     1      -2.181  11.480  18.919  0.00  0.00    +0.000 C 
ATOM      8  O   UNL     1      -2.018  12.590  19.435  0.00  0.00    +0.000 OA
ATOM      9  N   UNL     1      -3.415  11.153  18.296  0.00  0.00    +0.000 N 
ATOM     10  C   UNL     1      -3.780   9.854  17.743  0.00  0.00    +0.000 C 
BRANCH   9  11
ATOM     11  C   UNL     1      -4.503  12.157  18.403  0.00  0.00    +0.000 C 
ATOM     12  C   UNL     1      -5.493  12.157  17.223  0.00  0.00    +0.000 C 
BRANCH  11  13
ATOM     13  C   UNL     1      -5.255  12.037  19.704  0.00  0.00    +0.000 A 
ATOM     14  C   UNL     1      -5.105  12.852  20.853  0.00  0.00    +0.000 A 
ATOM     15  C   UNL     1      -6.124  12.464  21.680  0.00  0.00    +0.000 A 
ATOM     16  O   UNL     1      -6.822  11.460  21.097  0.00  0.00    +0.000 OA
ATOM     17  N   UNL     1      -6.282  11.183  19.853  0.00  0.00    +0.000 NA
ENDBRANCH  11  13
ENDBRANCH   9  11
ENDBRANCH   4   7
BRANCH   1  18
ATOM     18  O   UNL     1       2.406   8.056  19.175  0.00  0.00    +0.000 OA
BRANCH  18  24
ATOM     19  C   UNL     1       5.876   4.630  18.580  0.00  0.00    +0.000 C 
ATOM     20  O   UNL     1       5.648   3.494  19.004  0.00  0.00    +0.000 OA
ATOM     21  N   UNL     1       5.004   5.686  18.804  0.00  0.00    +0.000 N 
ATOM     22  C   UNL     1       3.832   5.453  19.634  0.00  0.00    +0.000 C 
ATOM     23  C   UNL     1       2.583   5.601  18.787  0.00  0.00    +0.000 C 
ATOM     24  C   UNL     1       2.512   7.017  18.175  0.00  0.00    +0.000 C 
ATOM     25  C   UNL     1       3.787   7.261  17.348  0.00  0.00    +0.000 C 
ATOM     26  C   UNL     1       5.054   7.009  18.171  0.00  0.00    +0.000 C 
BRANCH  19  27
ATOM     27  C   UNL     1       7.135   4.933  17.804  0.00  0.00    +0.000 C 
BRANCH  27  28
ATOM     28  C   UNL     1       7.054   4.332  16.411  0.00  0.00    +0.000 C 
BRANCH  28  30
ATOM     29  C   UNL     1       5.631   5.348  14.843  0.00  0.00    +0.000 C 
ATOM     30  O   UNL     1       6.910   5.391  15.463  0.00  0.00    +0.000 OA
ENDBRANCH  28  30
ENDBRANCH  27  28
ENDBRANCH  19  27
ENDBRANCH  18  24
ENDBRANCH   1  18
TORSDOF 8
ENDMDL
MODEL 4
REMARK VINA RESULT:      -6.7      2.231     11.004
REMARK  Name = 
REMARK  11 active torsions:
REMARK  status: ('A' for Active; 'I' for Inactive)
REMARK    1  A    between atoms: C_1  and  O_2
REMARK    2  A    between atoms: O_2  and  C_3
REMARK    3  A    between atoms: C_3  and  C_4
REMARK    4  A    between atoms: C_4  and  C_5
REMARK    5  A    between atoms: C_10  and  O_11
REMARK    6  A    between atoms: O_11  and  C_12
REMARK    7  A    between atoms: C_15  and  C_16
REMARK    8  A    between atoms: N_18  and  C_19
REMARK    9  A    between atoms: N_18  and  C_20
REMARK   10  A    between atoms: C_20  and  C_21
REMARK   11  A    between atoms: C_20  and  C_22
REMARK                            x       y       z     vdW  Elec       q    Type
REMARK                         _______ _______ _______ _____ _____    ______ ____
ROOT
ATOM      1  C   UNL     1       1.073   9.761  19.629  0.00  0.00    +0.000 A 
ATOM      2  C   UNL     1       1.416   8.697  20.459  0.00  0.00    +0.000 A 
ATOM      3  C   UNL     1       1.943   7.505  19.913  0.00  0.00    +0.000 A 
ATOM      4  C   UNL     1       2.184   7.379  18.529  0.00  0.00    +0.000 A 
ATOM      5  C   UNL     1       1.920   8.497  17.752  0.00  0.00    +0.000 A 
ATOM      6  C   UNL     1       1.268   9.612  18.263  0.00  0.00    +0.000 A 
ENDROOT
BRANCH   4   7
ATOM      7  C   UNL     1       2.712   6.073  17.974  0.00  0.00    +0.000 C 
ATOM      8  O   UNL     1       1.891   5.153  17.884  0.00  0.00    +0.000 OA
ATOM      9  N   UNL     1       4.044   5.893  17.516  0.00  0.00    +0.000 N 
ATOM     10  C   UNL     1       5.136   6.849  17.656  0.00  0.00    +0.000 C 
BRANCH   9  11
ATOM     11  C   UNL     1       4.409   4.534  17.043  0.00  0.00    +0.000 C 
ATOM     12  C   UNL     1       5.764   4.451  16.315  0.00  0.00    +0.000 C 
BRANCH  11  13
ATOM     13  C   UNL     1       4.362   3.518  18.156  0.00  0.00    +0.000 A 
ATOM     14  C   UNL     1       3.665   2.284  18.154  0.00  0.00    +0.000 A 
ATOM     15  C   UNL     1       4.083   1.657  19.297  0.00  0.00    +0.000 A 
ATOM     16  O   UNL     1       4.941   2.462  19.967  0.00  0.00    +0.000 OA
ATOM     17  N   UNL     1       5.123   3.637  19.257  0.00  0.00    +0.000 NA
ENDBRANCH  11  13
ENDBRANCH   9  11
ENDBRANCH   4   7
BRANCH   1  18
ATOM     18  O   UNL     1       0.628  10.919  20.209  0.00  0.00    +0.000 OA
BRANCH  18  24
ATOM     19  C   UNL     1      -2.096  14.719  21.719  0.00  0.00    +0.000 C 
ATOM     20  O   UNL     1      -2.885  15.221  20.916  0.00  0.00    +0.000 OA
ATOM     21  N   UNL     1      -1.208  13.719  21.348  0.00  0.00    +0.000 N 
ATOM     22  C   UNL     1      -1.159  13.320  19.950  0.00  0.00    +0.000 C 
ATOM     23  C   UNL     1      -1.637  11.886  19.823  0.00  0.00    +0.000 C 
ATOM     24  C   UNL     1      -0.745  10.945  20.663  0.00  0.00    +0.000 C 
ATOM     25  C   UNL     1      -0.768  11.421  22.126  0.00  0.00    +0.000 C 
ATOM     26  C   UNL     1      -0.390  12.899  22.249  0.00  0.00    +0.000 C 
BRANCH  19  27
ATOM     27  C   UNL     1      -2.046  15.181  23.156  0.00  0.00    +0.000 C 
BRANCH  27  28
ATOM     28  C   UNL     1      -3.258  14.670  23.917  0.00  0.00    +0.000 C 
BRANCH  28  30
ATOM     29  C   UNL     1      -4.191  12.587  24.470  0.00  0.00    +0.000 C 
ATOM     30  O   UNL     1      -3.574  13.359  23.447  0.00  0.00    +0.000 OA
ENDBRANCH  28  30
ENDBRANCH  27  28
ENDBRANCH  19  27
ENDBRANCH  18  24
ENDBRANCH   1  18
TORSDOF 8
ENDMDL
MODEL 5
REMARK VINA RESULT:      -6.7      3.185     10.301
REMARK  Name = 
REMARK  11 active torsions:
REMARK  status: ('A' for Active; 'I' for Inactive)
REMARK    1  A    between atoms: C_1  and  O_2
REMARK    2  A    between atoms: O_2  and  C_3
REMARK    3  A    between atoms: C_3  and  C_4
REMARK    4  A    between atoms: C_4  and  C_5
REMARK    5  A    between atoms: C_10  and  O_11
REMARK    6  A    between atoms: O_11  and  C_12
REMARK    7  A    between atoms: C_15  and  C_16
REMARK    8  A    between atoms: N_18  and  C_19
REMARK    9  A    between atoms: N_18  and  C_20
REMARK   10  A    between atoms: C_20  and  C_21
REMARK   11  A    between atoms: C_20  and  C_22
REMARK                            x       y       z     vdW  Elec       q    Type
REMARK                         _______ _______ _______ _____ _____    ______ ____
ROOT
ATOM      1  C   UNL     1       0.653  10.315  19.394  0.00  0.00    +0.000 A 
ATOM      2  C   UNL     1       0.851   9.558  20.546  0.00  0.00    +0.000 A 
ATOM      3  C   UNL     1       1.487   8.299  20.475  0.00  0.00    +0.000 A 
ATOM      4  C   UNL     1       1.982   7.798  19.253  0.00  0.00    +0.000 A 
ATOM      5  C   UNL     1       1.850   8.626  18.148  0.00  0.00    +0.000 A 
ATOM      6  C   UNL     1       1.099   9.793  18.187  0.00  0.00    +0.000 A 
ENDROOT
BRANCH   4   7
ATOM      7  C   UNL     1       2.622   6.427  19.207  0.00  0.00    +0.000 C 
ATOM      8  O   UNL     1       2.208   5.609  20.036  0.00  0.00    +0.000 OA
ATOM      9  N   UNL     1       3.596   6.044  18.247  0.00  0.00    +0.000 N 
ATOM     10  C   UNL     1       4.246   6.926  17.285  0.00  0.00    +0.000 C 
BRANCH   9  11
ATOM     11  C   UNL     1       4.154   4.674  18.372  0.00  0.00    +0.000 C 
ATOM     12  C   UNL     1       3.695   3.693  17.276  0.00  0.00    +0.000 C 
BRANCH  11  13
ATOM     13  C   UNL     1       5.659   4.683  18.456  0.00  0.00    +0.000 A 
ATOM     14  C   UNL     1       6.572   4.419  17.405  0.00  0.00    +0.000 A 
ATOM     15  C   UNL     1       7.796   4.730  17.932  0.00  0.00    +0.000 A 
ATOM     16  O   UNL     1       7.647   5.119  19.221  0.00  0.00    +0.000 OA
ATOM     17  N   UNL     1       6.305   5.091  19.561  0.00  0.00    +0.000 NA
ENDBRANCH  11  13
ENDBRANCH   9  11
ENDBRANCH   4   7
BRANCH   1  18
ATOM     18  O   UNL     1       0.091  11.557  19.521  0.00  0.00    +0.000 OA
BRANCH  18  24
ATOM     19  C   UNL     1       1.405  16.219  18.699  0.00  0.00    +0.000 C 
ATOM     20  O   UNL     1       0.672  17.112  19.131  0.00  0.00    +0.000 OA
ATOM     21  N   UNL     1       1.057  14.878  18.785  0.00  0.00    +0.000 N 
ATOM     22  C   UNL     1      -0.249  14.535  19.326  0.00  0.00    +0.000 C 
ATOM     23  C   UNL     1      -0.067  13.783  20.631  0.00  0.00    +0.000 C 
ATOM     24  C   UNL     1       0.754  12.496  20.400  0.00  0.00    +0.000 C 
ATOM     25  C   UNL     1       2.107  12.879  19.775  0.00  0.00    +0.000 C 
ATOM     26  C   UNL     1       1.930  13.731  18.515  0.00  0.00    +0.000 C 
BRANCH  19  27
ATOM     27  C   UNL     1       2.722  16.544  18.036  0.00  0.00    +0.000 C 
BRANCH  27  28
ATOM     28  C   UNL     1       3.868  16.352  19.016  0.00  0.00    +0.000 C 
BRANCH  28  30
ATOM     29  C   UNL     1       4.456  17.884  20.697  0.00  0.00    +0.000 C 
ATOM     30  O   UNL     1       4.447  17.627  19.298  0.00  0.00    +0.000 OA
ENDBRANCH  28  30
ENDBRANCH  27  28
ENDBRANCH  19  27
ENDBRANCH  18  24
ENDBRANCH   1  18
TORSDOF 8
ENDMDL
MODEL 6
REMARK VINA RESULT:      -6.7      2.630     10.751
REMARK  Name = 
REMARK  11 active torsions:
REMARK  status: ('A' for Active; 'I' for Inactive)
REMARK    1  A    between atoms: C_1  and  O_2
REMARK    2  A    between atoms: O_2  and  C_3
REMARK    3  A    between atoms: C_3  and  C_4
REMARK    4  A    between atoms: C_4  and  C_5
REMARK    5  A    between atoms: C_10  and  O_11
REMARK    6  A    between atoms: O_11  and  C_12
REMARK    7  A    between atoms: C_15  and  C_16
REMARK    8  A    between atoms: N_18  and  C_19
REMARK    9  A    between atoms: N_18  and  C_20
REMARK   10  A    between atoms: C_20  and  C_21
REMARK   11  A    between atoms: C_20  and  C_22
REMARK                            x       y       z     vdW  Elec       q    Type
REMARK                         _______ _______ _______ _____ _____    ______ ____
ROOT
ATOM      1  C   UNL     1       0.619   9.917  19.116  0.00  0.00    +0.000 A 
ATOM      2  C   UNL     1       0.969   9.205  20.261  0.00  0.00    +0.000 A 
ATOM      3  C   UNL     1       1.740   8.025  20.162  0.00  0.00    +0.000 A 
ATOM      4  C   UNL     1       2.217   7.566  18.916  0.00  0.00    +0.000 A 
ATOM      5  C   UNL     1       1.928   8.357  17.815  0.00  0.00    +0.000 A 
ATOM      6  C   UNL     1       1.051   9.432  17.889  0.00  0.00    +0.000 A 
ENDROOT
BRANCH   4   7
ATOM      7  C   UNL     1       3.006   6.276  18.844  0.00  0.00    +0.000 C 
ATOM      8  O   UNL     1       2.702   5.409  19.670  0.00  0.00    +0.000 OA
ATOM      9  N   UNL     1       3.999   6.015  17.863  0.00  0.00    +0.000 N 
ATOM     10  C   UNL     1       4.528   6.974  16.901  0.00  0.00    +0.000 C 
BRANCH   9  11
ATOM     11  C   UNL     1       4.709   4.715  17.963  0.00  0.00    +0.000 C 
ATOM     12  C   UNL     1       4.814   3.939  16.636  0.00  0.00    +0.000 C 
BRANCH  11  13
ATOM     13  C   UNL     1       6.078   4.865  18.578  0.00  0.00    +0.000 A 
ATOM     14  C   UNL     1       7.321   4.870  17.900  0.00  0.00    +0.000 A 
ATOM     15  C   UNL     1       8.231   5.216  18.861  0.00  0.00    +0.000 A 
ATOM     16  O   UNL     1       7.597   5.374  20.048  0.00  0.00    +0.000 OA
ATOM     17  N   UNL     1       6.240   5.153  19.881  0.00  0.00    +0.000 NA
ENDBRANCH  11  13
ENDBRANCH   9  11
ENDBRANCH   4   7
BRANCH   1  18
ATOM     18  O   UNL     1      -0.073  11.089  19.267  0.00  0.00    +0.000 OA
BRANCH  18  24
ATOM     19  C   UNL     1      -1.565  15.614  20.463  0.00  0.00    +0.000 C 
ATOM     20  O   UNL     1      -2.547  15.724  21.201  0.00  0.00    +0.000 OA
ATOM     21  N   UNL     1      -1.142  14.383  19.983  0.00  0.00    +0.000 N 
ATOM     22  C   UNL     1      -1.937  13.206  20.297  0.00  0.00    +0.000 C 
ATOM     23  C   UNL     1      -1.129  12.279  21.185  0.00  0.00    +0.000 C 
ATOM     24  C   UNL     1       0.172  11.851  20.471  0.00  0.00    +0.000 C 
ATOM     25  C   UNL     1       0.969  13.114  20.099  0.00  0.00    +0.000 C 
ATOM     26  C   UNL     1       0.122  14.102  19.293  0.00  0.00    +0.000 C 
BRANCH  19  27
ATOM     27  C   UNL     1      -0.776  16.827  20.030  0.00  0.00    +0.000 C 
BRANCH  27  28
ATOM     28  C   UNL     1      -1.527  17.587  18.950  0.00  0.00    +0.000 C 
BRANCH  28  30
ATOM     29  C   UNL     1       0.592  17.580  17.938  0.00  0.00    +0.000 C 
ATOM     30  O   UNL     1      -0.809  17.466  17.721  0.00  0.00    +0.000 OA
ENDBRANCH  28  30
ENDBRANCH  27  28
ENDBRANCH  19  27
ENDBRANCH  18  24
ENDBRANCH   1  18
TORSDOF 8
ENDMDL
MODEL 7
REMARK VINA RESULT:      -6.7      2.913     10.251
REMARK  Name = 
REMARK  11 active torsions:
REMARK  status: ('A' for Active; 'I' for Inactive)
REMARK    1  A    between atoms: C_1  and  O_2
REMARK    2  A    between atoms: O_2  and  C_3
REMARK    3  A    between atoms: C_3  and  C_4
REMARK    4  A    between atoms: C_4  and  C_5
REMARK    5  A    between atoms: C_10  and  O_11
REMARK    6  A    between atoms: O_11  and  C_12
REMARK    7  A    between atoms: C_15  and  C_16
REMARK    8  A    between atoms: N_18  and  C_19
REMARK    9  A    between atoms: N_18  and  C_20
REMARK   10  A    between atoms: C_20  and  C_21
REMARK   11  A    between atoms: C_20  and  C_22
REMARK                            x       y       z     vdW  Elec       q    Type
REMARK                         _______ _______ _______ _____ _____    ______ ____
ROOT
ATOM      1  C   UNL     1       0.401   9.960  19.757  0.00  0.00    +0.000 A 
ATOM      2  C   UNL     1       0.719   9.108  20.812  0.00  0.00    +0.000 A 
ATOM      3  C   UNL     1       1.544   7.982  20.598  0.00  0.00    +0.000 A 
ATOM      4  C   UNL     1       2.107   7.717  19.332  0.00  0.00    +0.000 A 
ATOM      5  C   UNL     1       1.844   8.643  18.334  0.00  0.00    +0.000 A 
ATOM      6  C   UNL     1       0.919   9.666  18.503  0.00  0.00    +0.000 A 
ENDROOT
BRANCH   4   7
ATOM      7  C   UNL     1       2.954   6.478  19.130  0.00  0.00    +0.000 C 
ATOM      8  O   UNL     1       2.818   5.587  19.976  0.00  0.00    +0.000 OA
ATOM      9  N   UNL     1       3.816   6.286  18.018  0.00  0.00    +0.000 N 
ATOM     10  C   UNL     1       4.149   7.283  17.009  0.00  0.00    +0.000 C 
BRANCH   9  11
ATOM     11  C   UNL     1       4.609   5.031  17.998  0.00  0.00    +0.000 C 
ATOM     12  C   UNL     1       4.733   4.375  16.611  0.00  0.00    +0.000 C 
BRANCH  11  13
ATOM     13  C   UNL     1       5.978   5.219  18.602  0.00  0.00    +0.000 A 
ATOM     14  C   UNL     1       7.101   5.828  17.991  0.00  0.00    +0.000 A 
ATOM     15  C   UNL     1       8.026   5.919  18.996  0.00  0.00    +0.000 A 
ATOM     16  O   UNL     1       7.520   5.373  20.127  0.00  0.00    +0.000 OA
ATOM     17  N   UNL     1       6.230   4.928  19.889  0.00  0.00    +0.000 NA
ENDBRANCH  11  13
ENDBRANCH   9  11
ENDBRANCH   4   7
BRANCH   1  18
ATOM     18  O   UNL     1      -0.348  11.074  20.025  0.00  0.00    +0.000 OA
BRANCH  18  24
ATOM     19  C   UNL     1       0.280  15.944  19.845  0.00  0.00    +0.000 C 
ATOM     20  O   UNL     1      -0.585  16.659  20.355  0.00  0.00    +0.000 OA
ATOM     21  N   UNL     1       0.133  14.567  19.749  0.00  0.00    +0.000 N 
ATOM     22  C   UNL     1      -1.120  13.973  20.190  0.00  0.00    +0.000 C 
ATOM     23  C   UNL     1      -0.857  13.092  21.397  0.00  0.00    +0.000 C 
ATOM     24  C   UNL     1       0.150  11.977  21.040  0.00  0.00    +0.000 C 
ATOM     25  C   UNL     1       1.445  12.629  20.523  0.00  0.00    +0.000 C 
ATOM     26  C   UNL     1       1.171  13.602  19.373  0.00  0.00    +0.000 C 
BRANCH  19  27
ATOM     27  C   UNL     1       1.549  16.538  19.281  0.00  0.00    +0.000 C 
BRANCH  27  28
ATOM     28  C   UNL     1       1.223  17.505  18.155  0.00  0.00    +0.000 C 
BRANCH  28  30
ATOM     29  C   UNL     1       3.179  16.460  17.382  0.00  0.00    +0.000 C 
ATOM     30  O   UNL     1       2.369  17.627  17.311  0.00  0.00    +0.000 OA
ENDBRANCH  28  30
ENDBRANCH  27  28
ENDBRANCH  19  27
ENDBRANCH  18  24
ENDBRANCH   1  18
TORSDOF 8
ENDMDL
MODEL 8
REMARK VINA RESULT:      -6.6      1.542      2.346
REMARK  Name = 
REMARK  11 active torsions:
REMARK  status: ('A' for Active; 'I' for Inactive)
REMARK    1  A    between atoms: C_1  and  O_2
REMARK    2  A    between atoms: O_2  and  C_3
REMARK    3  A    between atoms: C_3  and  C_4
REMARK    4  A    between atoms: C_4  and  C_5
REMARK    5  A    between atoms: C_10  and  O_11
REMARK    6  A    between atoms: O_11  and  C_12
REMARK    7  A    between atoms: C_15  and  C_16
REMARK    8  A    between atoms: N_18  and  C_19
REMARK    9  A    between atoms: N_18  and  C_20
REMARK   10  A    between atoms: C_20  and  C_21
REMARK   11  A    between atoms: C_20  and  C_22
REMARK                            x       y       z     vdW  Elec       q    Type
REMARK                         _______ _______ _______ _____ _____    ______ ____
ROOT
ATOM      1  C   UNL     1       1.638   8.327  20.209  0.00  0.00    +0.000 A 
ATOM      2  C   UNL     1       1.060   8.254  21.474  0.00  0.00    +0.000 A 
ATOM      3  C   UNL     1       0.294   9.331  21.973  0.00  0.00    +0.000 A 
ATOM      4  C   UNL     1       0.053  10.481  21.192  0.00  0.00    +0.000 A 
ATOM      5  C   UNL     1       0.566  10.470  19.904  0.00  0.00    +0.000 A 
ATOM      6  C   UNL     1       1.437   9.481  19.466  0.00  0.00    +0.000 A 
ENDROOT
BRANCH   4   7
ATOM      7  C   UNL     1      -0.738  11.633  21.775  0.00  0.00    +0.000 C 
ATOM      8  O   UNL     1      -0.409  11.995  22.910  0.00  0.00    +0.000 OA
ATOM      9  N   UNL     1      -1.759  12.323  21.070  0.00  0.00    +0.000 N 
ATOM     10  C   UNL     1      -2.317  11.944  19.778  0.00  0.00    +0.000 C 
BRANCH   9  11
ATOM     11  C   UNL     1      -2.466  13.401  21.807  0.00  0.00    +0.000 C 
ATOM     12  C   UNL     1      -3.045  14.514  20.913  0.00  0.00    +0.000 C 
BRANCH  11  13
ATOM     13  C   UNL     1      -3.543  12.855  22.709  0.00  0.00    +0.000 A 
ATOM     14  C   UNL     1      -3.513  12.781  24.124  0.00  0.00    +0.000 A 
ATOM     15  C   UNL     1      -4.777  12.390  24.471  0.00  0.00    +0.000 A 
ATOM     16  O   UNL     1      -5.516  12.202  23.351  0.00  0.00    +0.000 OA
ATOM     17  N   UNL     1      -4.747  12.492  22.236  0.00  0.00    +0.000 NA
ENDBRANCH  11  13
ENDBRANCH   9  11
ENDBRANCH   4   7
BRANCH   1  18
ATOM     18  O   UNL     1       2.316   7.232  19.742  0.00  0.00    +0.000 OA
BRANCH  18  24
ATOM     19  C   UNL     1       5.056   4.344  16.862  0.00  0.00    +0.000 C 
ATOM     20  O   UNL     1       4.669   3.190  16.664  0.00  0.00    +0.000 OA
ATOM     21  N   UNL     1       4.408   5.193  17.749  0.00  0.00    +0.000 N 
ATOM     22  C   UNL     1       3.294   4.667  18.523  0.00  0.00    +0.000 C 
ATOM     23  C   UNL     1       2.019   5.375  18.106  0.00  0.00    +0.000 C 
ATOM     24  C   UNL     1       2.146   6.896  18.345  0.00  0.00    +0.000 C 
ATOM     25  C   UNL     1       3.363   7.418  17.563  0.00  0.00    +0.000 C 
ATOM     26  C   UNL     1       4.634   6.635  17.901  0.00  0.00    +0.000 C 
BRANCH  19  27
ATOM     27  C   UNL     1       6.273   4.891  16.155  0.00  0.00    +0.000 C 
BRANCH  27  28
ATOM     28  C   UNL     1       6.615   4.029  14.951  0.00  0.00    +0.000 C 
BRANCH  28  30
ATOM     29  C   UNL     1       5.951   3.517  12.757  0.00  0.00    +0.000 C 
ATOM     30  O   UNL     1       5.681   4.309  13.908  0.00  0.00    +0.000 OA
ENDBRANCH  28  30
ENDBRANCH  27  28
ENDBRANCH  19  27
ENDBRANCH  18  24
ENDBRANCH   1  18
TORSDOF 8
ENDMDL
MODEL 9
REMARK VINA RESULT:      -6.6      3.130     10.505
REMARK  Name = 
REMARK  11 active torsions:
REMARK  status: ('A' for Active; 'I' for Inactive)
REMARK    1  A    between atoms: C_1  and  O_2
REMARK    2  A    between atoms: O_2  and  C_3
REMARK    3  A    between atoms: C_3  and  C_4
REMARK    4  A    between atoms: C_4  and  C_5
REMARK    5  A    between atoms: C_10  and  O_11
REMARK    6  A    between atoms: O_11  and  C_12
REMARK    7  A    between atoms: C_15  and  C_16
REMARK    8  A    between atoms: N_18  and  C_19
REMARK    9  A    between atoms: N_18  and  C_20
REMARK   10  A    between atoms: C_20  and  C_21
REMARK   11  A    between atoms: C_20  and  C_22
REMARK                            x       y       z     vdW  Elec       q    Type
REMARK                         _______ _______ _______ _____ _____    ______ ____
ROOT
ATOM      1  C   UNL     1       0.923  10.360  19.581  0.00  0.00    +0.000 A 
ATOM      2  C   UNL     1       1.356   9.835  18.366  0.00  0.00    +0.000 A 
ATOM      3  C   UNL     1       1.919   8.541  18.306  0.00  0.00    +0.000 A 
ATOM      4  C   UNL     1       2.013   7.730  19.456  0.00  0.00    +0.000 A 
ATOM      5  C   UNL     1       1.481   8.254  20.625  0.00  0.00    +0.000 A 
ATOM      6  C   UNL     1       1.063   9.575  20.717  0.00  0.00    +0.000 A 
ENDROOT
BRANCH   4   7
ATOM      7  C   UNL     1       2.659   6.364  19.363  0.00  0.00    +0.000 C 
ATOM      8  O   UNL     1       2.292   5.534  20.202  0.00  0.00    +0.000 OA
ATOM      9  N   UNL     1       3.586   5.999  18.351  0.00  0.00    +0.000 N 
ATOM     10  C   UNL     1       4.181   6.897  17.368  0.00  0.00    +0.000 C 
BRANCH   9  11
ATOM     11  C   UNL     1       4.158   4.632  18.432  0.00  0.00    +0.000 C 
ATOM     12  C   UNL     1       3.692   3.675  17.318  0.00  0.00    +0.000 C 
BRANCH  11  13
ATOM     13  C   UNL     1       5.665   4.653  18.493  0.00  0.00    +0.000 A 
ATOM     14  C   UNL     1       6.564   4.415  17.424  0.00  0.00    +0.000 A 
ATOM     15  C   UNL     1       7.793   4.729  17.938  0.00  0.00    +0.000 A 
ATOM     16  O   UNL     1       7.660   5.095  19.235  0.00  0.00    +0.000 OA
ATOM     17  N   UNL     1       6.324   5.049  19.595  0.00  0.00    +0.000 NA
ENDBRANCH  11  13
ENDBRANCH   9  11
ENDBRANCH   4   7
BRANCH   1  18
ATOM     18  O   UNL     1       0.324  11.591  19.579  0.00  0.00    +0.000 OA
BRANCH  18  24
ATOM     19  C   UNL     1       1.294  16.380  20.096  0.00  0.00    +0.000 C 
ATOM     20  O   UNL     1       2.471  16.721  20.236  0.00  0.00    +0.000 OA
ATOM     21  N   UNL     1       0.916  15.045  20.057  0.00  0.00    +0.000 N 
ATOM     22  C   UNL     1       1.936  14.030  20.271  0.00  0.00    +0.000 C 
ATOM     23  C   UNL     1       2.114  13.225  18.998  0.00  0.00    +0.000 C 
ATOM     24  C   UNL     1       0.785  12.549  18.598  0.00  0.00    +0.000 C 
ATOM     25  C   UNL     1      -0.291  13.637  18.432  0.00  0.00    +0.000 C 
ATOM     26  C   UNL     1      -0.401  14.522  19.677  0.00  0.00    +0.000 C 
BRANCH  19  27
ATOM     27  C   UNL     1       0.194  17.407  19.976  0.00  0.00    +0.000 C 
BRANCH  27  28
ATOM     28  C   UNL     1       0.506  18.386  18.856  0.00  0.00    +0.000 C 
BRANCH  28  30
ATOM     29  C   UNL     1       0.778  18.552  16.529  0.00  0.00    +0.000 C 
ATOM     30  O   UNL     1       0.527  17.673  17.618  0.00  0.00    +0.000 OA
ENDBRANCH  28  30
ENDBRANCH  27  28
ENDBRANCH  19  27
ENDBRANCH  18  24
ENDBRANCH   1  18
TORSDOF 8
ENDMDL
