MODEL 1
REMARK VINA RESULT:      -6.4      0.000      0.000
REMARK  Name = 
REMARK  4 active torsions:
REMARK  status: ('A' for Active; 'I' for Inactive)
REMARK    1  A    between atoms: N_1  and  N_2
REMARK    2  A    between atoms: C_3  and  C_5
REMARK    3  A    between atoms: C_5  and  N_6
REMARK    4  A    between atoms: N_6  and  C_7
REMARK                            x       y       z     vdW  Elec       q    Type
REMARK                         _______ _______ _______ _____ _____    ______ ____
ROOT
ATOM      1  N   UNL     1       5.513   3.662  18.742  0.00  0.00    +0.000 N 
ATOM      2  H   UNL     1       5.863   3.182  19.569  0.00  0.00    +0.000 HD
ENDROOT
BRANCH   1   3
ATOM      3  C   UNL     1       4.113   3.714  18.753  0.00  0.00    +0.000 A 
ATOM      4  C   UNL     1       3.336   4.003  17.622  0.00  0.00    +0.000 A 
ATOM      5  C   UNL     1       1.936   3.952  17.664  0.00  0.00    +0.000 A 
ATOM      6  C   UNL     1       1.290   3.577  18.836  0.00  0.00    +0.000 A 
ATOM      7  C   UNL     1       2.044   3.239  19.954  0.00  0.00    +0.000 A 
ATOM      8 CL   UNL     1       1.253   2.740  21.399  0.00  0.00    +0.000 Cl
ATOM      9  C   UNL     1       3.439   3.292  19.910  0.00  0.00    +0.000 A 
ENDBRANCH   1   3
BRANCH   1  10
ATOM     10  C   UNL     1       6.298   4.894  18.498  0.00  0.00    +0.000 C 
BRANCH  10  12
ATOM     11  N   UNL     1       6.714   5.275  16.120  0.00  0.00    +0.000 N 
ATOM     12  C   UNL     1       7.227   4.719  17.289  0.00  0.00    +0.000 C 
ATOM     13  O   UNL     1       8.319   4.154  17.361  0.00  0.00    +0.000 OA
ATOM     14  H   UNL     1       5.911   5.899  16.243  0.00  0.00    +0.000 HD
BRANCH  11  15
ATOM     15  N   UNL     1       7.517   5.366  14.968  0.00  0.00    +0.000 NA
ATOM     16  H   UNL     1       7.846   4.431  14.723  0.00  0.00    +0.000 HD
ATOM     17  H   UNL     1       8.361   5.897  15.225  0.00  0.00    +0.000 HD
ENDBRANCH  11  15
ENDBRANCH  10  12
ENDBRANCH   1  10
TORSDOF 4
ENDMDL
MODEL 2
REMARK VINA RESULT:      -6.3      1.867      2.215
REMARK  Name = 
REMARK  4 active torsions:
REMARK  status: ('A' for Active; 'I' for Inactive)
REMARK    1  A    between atoms: N_1  and  N_2
REMARK    2  A    between atoms: C_3  and  C_5
REMARK    3  A    between atoms: C_5  and  N_6
REMARK    4  A    between atoms: N_6  and  C_7
REMARK                            x       y       z     vdW  Elec       q    Type
REMARK                         _______ _______ _______ _____ _____    ______ ____
ROOT
ATOM      1  N   UNL     1       5.155   3.392  17.535  0.00  0.00    +0.000 N 
ATOM      2  H   UNL     1       5.739   2.750  18.069  0.00  0.00    +0.000 HD
ENDROOT
BRANCH   1   3
ATOM      3  C   UNL     1       3.844   3.395  18.028  0.00  0.00    +0.000 A 
ATOM      4  C   UNL     1       2.930   2.354  17.814  0.00  0.00    +0.000 A 
ATOM      5  C   UNL     1       1.660   2.362  18.406  0.00  0.00    +0.000 A 
ATOM      6  C   UNL     1       1.295   3.402  19.252  0.00  0.00    +0.000 A 
ATOM      7  C   UNL     1       2.206   4.419  19.517  0.00  0.00    +0.000 A 
ATOM      8 CL   UNL     1       1.776   5.693  20.592  0.00  0.00    +0.000 Cl
ATOM      9  C   UNL     1       3.471   4.409  18.924  0.00  0.00    +0.000 A 
ENDBRANCH   1   3
BRANCH   1  10
ATOM     10  C   UNL     1       5.869   4.671  17.320  0.00  0.00    +0.000 C 
BRANCH  10  12
ATOM     11  N   UNL     1       7.033   5.382  19.348  0.00  0.00    +0.000 N 
ATOM     12  C   UNL     1       7.169   4.715  18.134  0.00  0.00    +0.000 C 
ATOM     13  O   UNL     1       8.218   4.196  17.748  0.00  0.00    +0.000 OA
ATOM     14  H   UNL     1       6.070   5.570  19.643  0.00  0.00    +0.000 HD
BRANCH  11  15
ATOM     15  N   UNL     1       8.074   5.352  20.293  0.00  0.00    +0.000 NA
ATOM     16  H   UNL     1       7.727   5.731  21.176  0.00  0.00    +0.000 HD
ATOM     17  H   UNL     1       8.796   6.013  19.975  0.00  0.00    +0.000 HD
ENDBRANCH  11  15
ENDBRANCH  10  12
ENDBRANCH   1  10
TORSDOF 4
ENDMDL
MODEL 3
REMARK VINA RESULT:      -6.2      1.684      1.932
REMARK  Name = 
REMARK  4 active torsions:
REMARK  status: ('A' for Active; 'I' for Inactive)
REMARK    1  A    between atoms: N_1  and  N_2
REMARK    2  A    between atoms: C_3  and  C_5
REMARK    3  A    between atoms: C_5  and  N_6
REMARK    4  A    between atoms: N_6  and  C_7
REMARK                            x       y       z     vdW  Elec       q    Type
REMARK                         _______ _______ _______ _____ _____    ______ ____
ROOT
ATOM      1  N   UNL     1       5.138   3.630  18.268  0.00  0.00    +0.000 N 
ATOM      2  H   UNL     1       5.706   3.480  19.100  0.00  0.00    +0.000 HD
ENDROOT
BRANCH   1   3
ATOM      3  C   UNL     1       3.776   3.657  18.595  0.00  0.00    +0.000 A 
ATOM      4  C   UNL     1       2.763   3.973  17.679  0.00  0.00    +0.000 A 
ATOM      5  C   UNL     1       1.409   3.895  18.032  0.00  0.00    +0.000 A 
ATOM      6  C   UNL     1       1.045   3.468  19.303  0.00  0.00    +0.000 A 
ATOM      7  C   UNL     1       2.035   3.103  20.210  0.00  0.00    +0.000 A 
ATOM      8 CL   UNL     1       1.593   2.539  21.775  0.00  0.00    +0.000 Cl
ATOM      9  C   UNL     1       3.384   3.182  19.856  0.00  0.00    +0.000 A 
ENDBRANCH   1   3
BRANCH   1  10
ATOM     10  C   UNL     1       5.723   4.709  17.440  0.00  0.00    +0.000 C 
BRANCH  10  12
ATOM     11  N   UNL     1       6.933   5.131  19.520  0.00  0.00    +0.000 N 
ATOM     12  C   UNL     1       6.926   5.348  18.145  0.00  0.00    +0.000 C 
ATOM     13  O   UNL     1       7.799   5.976  17.543  0.00  0.00    +0.000 OA
ATOM     14  H   UNL     1       6.280   4.418  19.858  0.00  0.00    +0.000 HD
BRANCH  11  15
ATOM     15  N   UNL     1       8.058   5.488  20.287  0.00  0.00    +0.000 NA
ATOM     16  H   UNL     1       8.429   6.371  19.934  0.00  0.00    +0.000 HD
ATOM     17  H   UNL     1       8.790   4.788  20.102  0.00  0.00    +0.000 HD
ENDBRANCH  11  15
ENDBRANCH  10  12
ENDBRANCH   1  10
TORSDOF 4
ENDMDL
MODEL 4
REMARK VINA RESULT:      -6.1      1.200      1.208
REMARK  Name = 
REMARK  4 active torsions:
REMARK  status: ('A' for Active; 'I' for Inactive)
REMARK    1  A    between atoms: N_1  and  N_2
REMARK    2  A    between atoms: C_3  and  C_5
REMARK    3  A    between atoms: C_5  and  N_6
REMARK    4  A    between atoms: N_6  and  C_7
REMARK                            x       y       z     vdW  Elec       q    Type
REMARK                         _______ _______ _______ _____ _____    ______ ____
ROOT
ATOM      1  N   UNL     1       5.575   3.564  19.094  0.00  0.00    +0.000 N 
ATOM      2  H   UNL     1       6.041   3.047  19.839  0.00  0.00    +0.000 HD
ENDROOT
BRANCH   1   3
ATOM      3  C   UNL     1       4.229   3.188  18.997  0.00  0.00    +0.000 A 
ATOM      4  C   UNL     1       3.640   2.706  17.820  0.00  0.00    +0.000 A 
ATOM      5  C   UNL     1       2.313   2.256  17.797  0.00  0.00    +0.000 A 
ATOM      6  C   UNL     1       1.561   2.252  18.966  0.00  0.00    +0.000 A 
ATOM      7  C   UNL     1       2.143   2.681  20.154  0.00  0.00    +0.000 A 
ATOM      8 CL   UNL     1       1.232   2.646  21.613  0.00  0.00    +0.000 Cl
ATOM      9  C   UNL     1       3.466   3.130  20.173  0.00  0.00    +0.000 A 
ENDBRANCH   1   3
BRANCH   1  10
ATOM     10  C   UNL     1       5.942   4.997  19.163  0.00  0.00    +0.000 C 
BRANCH  10  12
ATOM     11  N   UNL     1       7.028   4.367  17.066  0.00  0.00    +0.000 N 
ATOM     12  C   UNL     1       6.894   5.372  18.020  0.00  0.00    +0.000 C 
ATOM     13  O   UNL     1       7.466   6.461  17.957  0.00  0.00    +0.000 OA
ATOM     14  H   UNL     1       6.338   3.611  17.122  0.00  0.00    +0.000 HD
BRANCH  11  15
ATOM     15  N   UNL     1       7.715   4.618  15.864  0.00  0.00    +0.000 NA
ATOM     16  H   UNL     1       8.657   4.943  16.087  0.00  0.00    +0.000 HD
ATOM     17  H   UNL     1       7.249   5.415  15.407  0.00  0.00    +0.000 HD
ENDBRANCH  11  15
ENDBRANCH  10  12
ENDBRANCH   1  10
TORSDOF 4
ENDMDL
MODEL 5
REMARK VINA RESULT:      -6.1      2.359      3.069
REMARK  Name = 
REMARK  4 active torsions:
REMARK  status: ('A' for Active; 'I' for Inactive)
REMARK    1  A    between atoms: N_1  and  N_2
REMARK    2  A    between atoms: C_3  and  C_5
REMARK    3  A    between atoms: C_5  and  N_6
REMARK    4  A    between atoms: N_6  and  C_7
REMARK                            x       y       z     vdW  Elec       q    Type
REMARK                         _______ _______ _______ _____ _____    ______ ____
ROOT
ATOM      1  N   UNL     1       5.918   6.022  16.484  0.00  0.00    +0.000 N 
ATOM      2  H   UNL     1       6.242   5.209  15.962  0.00  0.00    +0.000 HD
ENDROOT
BRANCH   1   3
ATOM      3  C   UNL     1       4.692   5.753  17.108  0.00  0.00    +0.000 A 
ATOM      4  C   UNL     1       3.844   6.747  17.615  0.00  0.00    +0.000 A 
ATOM      5  C   UNL     1       2.586   6.434  18.146  0.00  0.00    +0.000 A 
ATOM      6  C   UNL     1       2.142   5.117  18.149  0.00  0.00    +0.000 A 
ATOM      7  C   UNL     1       2.949   4.123  17.606  0.00  0.00    +0.000 A 
ATOM      8 CL   UNL     1       2.393   2.494  17.574  0.00  0.00    +0.000 Cl
ATOM      9  C   UNL     1       4.203   4.438  17.078  0.00  0.00    +0.000 A 
ENDBRANCH   1   3
BRANCH   1  10
ATOM     10  C   UNL     1       7.033   6.606  17.264  0.00  0.00    +0.000 C 
BRANCH  10  12
ATOM     11  N   UNL     1       7.904   6.141  19.499  0.00  0.00    +0.000 N 
ATOM     12  C   UNL     1       7.596   5.585  18.261  0.00  0.00    +0.000 C 
ATOM     13  O   UNL     1       7.744   4.393  17.986  0.00  0.00    +0.000 OA
ATOM     14  H   UNL     1       7.533   7.081  19.665  0.00  0.00    +0.000 HD
BRANCH  11  15
ATOM     15  N   UNL     1       8.254   5.312  20.581  0.00  0.00    +0.000 NA
ATOM     16  H   UNL     1       7.753   5.630  21.412  0.00  0.00    +0.000 HD
ATOM     17  H   UNL     1       9.250   5.474  20.781  0.00  0.00    +0.000 HD
ENDBRANCH  11  15
ENDBRANCH  10  12
ENDBRANCH   1  10
TORSDOF 4
ENDMDL
MODEL 6
REMARK VINA RESULT:      -6.1      2.388      2.655
REMARK  Name = 
REMARK  4 active torsions:
REMARK  status: ('A' for Active; 'I' for Inactive)
REMARK    1  A    between atoms: N_1  and  N_2
REMARK    2  A    between atoms: C_3  and  C_5
REMARK    3  A    between atoms: C_5  and  N_6
REMARK    4  A    between atoms: N_6  and  C_7
REMARK                            x       y       z     vdW  Elec       q    Type
REMARK                         _______ _______ _______ _____ _____    ______ ____
ROOT
ATOM      1  N   UNL     1       5.607   3.431  16.796  0.00  0.00    +0.000 N 
ATOM      2  H   UNL     1       6.017   2.765  17.450  0.00  0.00    +0.000 HD
ENDROOT
BRANCH   1   3
ATOM      3  C   UNL     1       4.298   3.757  17.177  0.00  0.00    +0.000 A 
ATOM      4  C   UNL     1       3.316   2.803  17.477  0.00  0.00    +0.000 A 
ATOM      5  C   UNL     1       2.049   3.181  17.943  0.00  0.00    +0.000 A 
ATOM      6  C   UNL     1       1.756   4.523  18.148  0.00  0.00    +0.000 A 
ATOM      7  C   UNL     1       2.734   5.481  17.903  0.00  0.00    +0.000 A 
ATOM      8 CL   UNL     1       2.392   7.144  18.187  0.00  0.00    +0.000 Cl
ATOM      9  C   UNL     1       3.996   5.103  17.437  0.00  0.00    +0.000 A 
ENDBRANCH   1   3
BRANCH   1  10
ATOM     10  C   UNL     1       6.578   4.504  16.487  0.00  0.00    +0.000 C 
BRANCH  10  12
ATOM     11  N   UNL     1       7.787   5.547  14.637  0.00  0.00    +0.000 N 
ATOM     12  C   UNL     1       6.835   4.590  14.977  0.00  0.00    +0.000 C 
ATOM     13  O   UNL     1       6.260   3.870  14.158  0.00  0.00    +0.000 OA
ATOM     14  H   UNL     1       8.340   5.916  15.417  0.00  0.00    +0.000 HD
BRANCH  11  15
ATOM     15  N   UNL     1       8.274   5.625  13.319  0.00  0.00    +0.000 NA
ATOM     16  H   UNL     1       7.481   5.699  12.681  0.00  0.00    +0.000 HD
ATOM     17  H   UNL     1       8.718   4.722  13.103  0.00  0.00    +0.000 HD
ENDBRANCH  11  15
ENDBRANCH  10  12
ENDBRANCH   1  10
TORSDOF 4
ENDMDL
MODEL 7
REMARK VINA RESULT:      -6.0      1.044      1.044
REMARK  Name = 
REMARK  4 active torsions:
REMARK  status: ('A' for Active; 'I' for Inactive)
REMARK    1  A    between atoms: N_1  and  N_2
REMARK    2  A    between atoms: C_3  and  C_5
REMARK    3  A    between atoms: C_5  and  N_6
REMARK    4  A    between atoms: N_6  and  C_7
REMARK                            x       y       z     vdW  Elec       q    Type
REMARK                         _______ _______ _______ _____ _____    ______ ____
ROOT
ATOM      1  N   UNL     1       5.756   3.999  18.088  0.00  0.00    +0.000 N 
ATOM      2  H   UNL     1       6.226   3.187  18.485  0.00  0.00    +0.000 HD
ENDROOT
BRANCH   1   3
ATOM      3  C   UNL     1       4.383   3.964  18.368  0.00  0.00    +0.000 A 
ATOM      4  C   UNL     1       3.389   4.228  17.416  0.00  0.00    +0.000 A 
ATOM      5  C   UNL     1       2.028   4.089  17.721  0.00  0.00    +0.000 A 
ATOM      6  C   UNL     1       1.641   3.649  18.981  0.00  0.00    +0.000 A 
ATOM      7  C   UNL     1       2.614   3.334  19.924  0.00  0.00    +0.000 A 
ATOM      8 CL   UNL     1       2.145   2.755  21.475  0.00  0.00    +0.000 Cl
ATOM      9  C   UNL     1       3.970   3.475  19.617  0.00  0.00    +0.000 A 
ENDBRANCH   1   3
BRANCH   1  10
ATOM     10  C   UNL     1       6.537   5.226  18.366  0.00  0.00    +0.000 C 
BRANCH  10  12
ATOM     11  N   UNL     1       7.264   4.889  16.057  0.00  0.00    +0.000 N 
ATOM     12  C   UNL     1       7.083   5.832  17.066  0.00  0.00    +0.000 C 
ATOM     13  O   UNL     1       7.321   7.033  16.936  0.00  0.00    +0.000 OA
ATOM     14  H   UNL     1       6.826   3.978  16.221  0.00  0.00    +0.000 HD
BRANCH  11  15
ATOM     15  N   UNL     1       7.580   5.304  14.750  0.00  0.00    +0.000 NA
ATOM     16  H   UNL     1       8.596   5.320  14.648  0.00  0.00    +0.000 HD
ATOM     17  H   UNL     1       7.279   6.284  14.658  0.00  0.00    +0.000 HD
ENDBRANCH  11  15
ENDBRANCH  10  12
ENDBRANCH   1  10
TORSDOF 4
ENDMDL
MODEL 8
REMARK VINA RESULT:      -6.0      1.987      2.398
REMARK  Name = 
REMARK  4 active torsions:
REMARK  status: ('A' for Active; 'I' for Inactive)
REMARK    1  A    between atoms: N_1  and  N_2
REMARK    2  A    between atoms: C_3  and  C_5
REMARK    3  A    between atoms: C_5  and  N_6
REMARK    4  A    between atoms: N_6  and  C_7
REMARK                            x       y       z     vdW  Elec       q    Type
REMARK                         _______ _______ _______ _____ _____    ______ ____
ROOT
ATOM      1  N   UNL     1       5.493   3.709  16.330  0.00  0.00    +0.000 N 
ATOM      2  H   UNL     1       6.365   3.808  16.848  0.00  0.00    +0.000 HD
ENDROOT
BRANCH   1   3
ATOM      3  C   UNL     1       4.408   4.154  17.097  0.00  0.00    +0.000 A 
ATOM      4  C   UNL     1       4.167   5.502  17.395  0.00  0.00    +0.000 A 
ATOM      5  C   UNL     1       3.017   5.904  18.087  0.00  0.00    +0.000 A 
ATOM      6  C   UNL     1       2.069   4.961  18.466  0.00  0.00    +0.000 A 
ATOM      7  C   UNL     1       2.267   3.624  18.136  0.00  0.00    +0.000 A 
ATOM      8 CL   UNL     1       1.082   2.454  18.570  0.00  0.00    +0.000 Cl
ATOM      9  C   UNL     1       3.415   3.226  17.447  0.00  0.00    +0.000 A 
ENDBRANCH   1   3
BRANCH   1  10
ATOM     10  C   UNL     1       5.667   4.194  14.942  0.00  0.00    +0.000 C 
BRANCH  10  12
ATOM     11  N   UNL     1       7.498   4.990  13.532  0.00  0.00    +0.000 N 
ATOM     12  C   UNL     1       6.948   5.028  14.811  0.00  0.00    +0.000 C 
ATOM     13  O   UNL     1       7.426   5.672  15.747  0.00  0.00    +0.000 OA
ATOM     14  H   UNL     1       6.892   4.603  12.803  0.00  0.00    +0.000 HD
BRANCH  11  15
ATOM     15  N   UNL     1       8.564   5.844  13.194  0.00  0.00    +0.000 NA
ATOM     16  H   UNL     1       8.206   6.796  13.107  0.00  0.00    +0.000 HD
ATOM     17  H   UNL     1       8.880   5.580  12.251  0.00  0.00    +0.000 HD
ENDBRANCH  11  15
ENDBRANCH  10  12
ENDBRANCH   1  10
TORSDOF 4
ENDMDL
MODEL 9
REMARK VINA RESULT:      -6.0      2.171      2.486
REMARK  Name = 
REMARK  4 active torsions:
REMARK  status: ('A' for Active; 'I' for Inactive)
REMARK    1  A    between atoms: N_1  and  N_2
REMARK    2  A    between atoms: C_3  and  C_5
REMARK    3  A    between atoms: C_5  and  N_6
REMARK    4  A    between atoms: N_6  and  C_7
REMARK                            x       y       z     vdW  Elec       q    Type
REMARK                         _______ _______ _______ _____ _____    ______ ____
ROOT
ATOM      1  N   UNL     1       5.918   3.899  17.047  0.00  0.00    +0.000 N 
ATOM      2  H   UNL     1       6.269   3.243  17.743  0.00  0.00    +0.000 HD
ENDROOT
BRANCH   1   3
ATOM      3  C   UNL     1       4.745   4.518  17.497  0.00  0.00    +0.000 A 
ATOM      4  C   UNL     1       4.578   5.908  17.567  0.00  0.00    +0.000 A 
ATOM      5  C   UNL     1       3.353   6.480  17.936  0.00  0.00    +0.000 A 
ATOM      6  C   UNL     1       2.261   5.665  18.210  0.00  0.00    +0.000 A 
ATOM      7  C   UNL     1       2.393   4.285  18.098  0.00  0.00    +0.000 A 
ATOM      8 CL   UNL     1       1.037   3.270  18.401  0.00  0.00    +0.000 Cl
ATOM      9  C   UNL     1       3.616   3.718  17.731  0.00  0.00    +0.000 A 
ENDBRANCH   1   3
BRANCH   1  10
ATOM     10  C   UNL     1       7.030   4.717  16.512  0.00  0.00    +0.000 C 
BRANCH  10  12
ATOM     11  N   UNL     1       6.368   3.557  14.465  0.00  0.00    +0.000 N 
ATOM     12  C   UNL     1       7.079   4.638  14.981  0.00  0.00    +0.000 C 
ATOM     13  O   UNL     1       7.680   5.460  14.287  0.00  0.00    +0.000 OA
ATOM     14  H   UNL     1       5.741   3.087  15.125  0.00  0.00    +0.000 HD
BRANCH  11  15
ATOM     15  N   UNL     1       6.157   3.445  13.078  0.00  0.00    +0.000 NA
ATOM     16  H   UNL     1       5.424   2.755  12.913  0.00  0.00    +0.000 HD
ATOM     17  H   UNL     1       7.012   3.042  12.671  0.00  0.00    +0.000 HD
ENDBRANCH  11  15
ENDBRANCH  10  12
ENDBRANCH   1  10
TORSDOF 4
ENDMDL
