MODEL 1
REMARK VINA RESULT:      -8.1      0.000      0.000
REMARK  Name = 
REMARK  3 active torsions:
REMARK  status: ('A' for Active; 'I' for Inactive)
REMARK    1  A    between atoms: C_4  and  C_5
REMARK    2  A    between atoms: C_5  and  C_6
REMARK    3  A    between atoms: C_10  and  N_11
REMARK                            x       y       z     vdW  Elec       q    Type
REMARK                         _______ _______ _______ _____ _____    ______ ____
ROOT
ATOM      1  C   UNL     1       2.415   6.504  19.769  0.00  0.00    +0.000 A 
ATOM      2  N   UNL     1       1.565   5.470  19.703  0.00  0.00    +0.000 NA
ATOM      3  C   UNL     1       1.926   4.446  18.910  0.00  0.00    +0.000 A 
ATOM      4  C   UNL     1       3.123   4.424  18.195  0.00  0.00    +0.000 A 
ATOM      5  C   UNL     1       3.974   5.524  18.353  0.00  0.00    +0.000 A 
ATOM      6  N   UNL     1       3.601   6.567  19.121  0.00  0.00    +0.000 NA
ATOM      7  C   UNL     1       3.398   3.223  17.332  0.00  0.00    +0.000 C 
ATOM      8  C   UNL     1       3.697   1.991  18.198  0.00  0.00    +0.000 C 
ATOM      9  N   UNL     1       2.495   1.256  18.606  0.00  0.00    +0.000 NA
ATOM     10  C   UNL     1       1.610   2.020  19.500  0.00  0.00    +0.000 C 
ATOM     11  C   UNL     1       0.982   3.271  18.872  0.00  0.00    +0.000 C 
ATOM     12  H   UNL     1       2.788   0.411  19.098  0.00  0.00    +0.000 HD
ENDROOT
BRANCH   5  13
ATOM     13  N   UNL     1       5.178   5.629  17.690  0.00  0.00    +0.000 N 
ATOM     14  C   UNL     1       5.236   6.233  16.353  0.00  0.00    +0.000 C 
ATOM     15  C   UNL     1       6.238   5.407  15.512  0.00  0.00    +0.000 C 
ATOM     16  O   UNL     1       7.528   5.270  16.150  0.00  0.00    +0.000 OA
ATOM     17  C   UNL     1       7.390   4.708  17.468  0.00  0.00    +0.000 C 
ATOM     18  C   UNL     1       6.493   5.611  18.334  0.00  0.00    +0.000 C 
ENDBRANCH   5  13
BRANCH   1  19
ATOM     19  C   UNL     1       2.020   7.652  20.668  0.00  0.00    +0.000 C 
BRANCH  19  23
ATOM     20  C   UNL     1      -0.351  10.696  18.733  0.00  0.00    +0.000 A 
ATOM     21  C   UNL     1       0.674  10.063  18.031  0.00  0.00    +0.000 A 
ATOM     22  C   UNL     1       1.443   9.078  18.656  0.00  0.00    +0.000 A 
ATOM     23  C   UNL     1       1.190   8.716  19.987  0.00  0.00    +0.000 A 
ATOM     24  C   UNL     1       0.162   9.366  20.684  0.00  0.00    +0.000 A 
ATOM     25  C   UNL     1      -0.605  10.348  20.058  0.00  0.00    +0.000 A 
ENDBRANCH  19  23
ENDBRANCH   1  19
TORSDOF 3
ENDMDL
MODEL 2
REMARK VINA RESULT:      -8.1      0.189      1.002
REMARK  Name = 
REMARK  3 active torsions:
REMARK  status: ('A' for Active; 'I' for Inactive)
REMARK    1  A    between atoms: C_4  and  C_5
REMARK    2  A    between atoms: C_5  and  C_6
REMARK    3  A    between atoms: C_10  and  N_11
REMARK                            x       y       z     vdW  Elec       q    Type
REMARK                         _______ _______ _______ _____ _____    ______ ____
ROOT
ATOM      1  C   UNL     1       2.490   6.567  19.617  0.00  0.00    +0.000 A 
ATOM      2  N   UNL     1       1.624   5.544  19.604  0.00  0.00    +0.000 NA
ATOM      3  C   UNL     1       1.943   4.497  18.825  0.00  0.00    +0.000 A 
ATOM      4  C   UNL     1       3.115   4.440  18.070  0.00  0.00    +0.000 A 
ATOM      5  C   UNL     1       3.986   5.531  18.173  0.00  0.00    +0.000 A 
ATOM      6  N   UNL     1       3.653   6.597  18.927  0.00  0.00    +0.000 NA
ATOM      7  C   UNL     1       3.343   3.216  17.227  0.00  0.00    +0.000 C 
ATOM      8  C   UNL     1       3.654   1.999  18.113  0.00  0.00    +0.000 C 
ATOM      9  N   UNL     1       2.456   1.293  18.578  0.00  0.00    +0.000 NA
ATOM     10  C   UNL     1       1.614   2.090  19.483  0.00  0.00    +0.000 C 
ATOM     11  C   UNL     1       0.982   3.335  18.846  0.00  0.00    +0.000 C 
ATOM     12  H   UNL     1       2.754   0.455  19.081  0.00  0.00    +0.000 HD
ENDROOT
BRANCH   5  13
ATOM     13  N   UNL     1       5.168   5.602  17.468  0.00  0.00    +0.000 N 
ATOM     14  C   UNL     1       5.190   6.177  16.117  0.00  0.00    +0.000 C 
ATOM     15  C   UNL     1       6.150   5.318  15.260  0.00  0.00    +0.000 C 
ATOM     16  O   UNL     1       7.458   5.174  15.857  0.00  0.00    +0.000 OA
ATOM     17  C   UNL     1       7.356   4.641  17.190  0.00  0.00    +0.000 C 
ATOM     18  C   UNL     1       6.504   5.576  18.066  0.00  0.00    +0.000 C 
ENDBRANCH   5  13
BRANCH   1  19
ATOM     19  C   UNL     1       2.142   7.742  20.501  0.00  0.00    +0.000 C 
BRANCH  19  23
ATOM     20  C   UNL     1      -0.516  10.602  18.660  0.00  0.00    +0.000 A 
ATOM     21  C   UNL     1      -0.649  10.302  20.014  0.00  0.00    +0.000 A 
ATOM     22  C   UNL     1       0.210   9.376  20.612  0.00  0.00    +0.000 A 
ATOM     23  C   UNL     1       1.211   8.745  19.860  0.00  0.00    +0.000 A 
ATOM     24  C   UNL     1       1.329   9.050  18.497  0.00  0.00    +0.000 A 
ATOM     25  C   UNL     1       0.472   9.976  17.902  0.00  0.00    +0.000 A 
ENDBRANCH  19  23
ENDBRANCH   1  19
TORSDOF 3
ENDMDL
MODEL 3
REMARK VINA RESULT:      -8.1      1.189      1.691
REMARK  Name = 
REMARK  3 active torsions:
REMARK  status: ('A' for Active; 'I' for Inactive)
REMARK    1  A    between atoms: C_4  and  C_5
REMARK    2  A    between atoms: C_5  and  C_6
REMARK    3  A    between atoms: C_10  and  N_11
REMARK                            x       y       z     vdW  Elec       q    Type
REMARK                         _______ _______ _______ _____ _____    ______ ____
ROOT
ATOM      1  C   UNL     1       2.540   7.293  18.208  0.00  0.00    +0.000 A 
ATOM      2  N   UNL     1       1.773   6.367  18.799  0.00  0.00    +0.000 NA
ATOM      3  C   UNL     1       2.253   5.112  18.818  0.00  0.00    +0.000 A 
ATOM      4  C   UNL     1       3.489   4.763  18.274  0.00  0.00    +0.000 A 
ATOM      5  C   UNL     1       4.247   5.798  17.713  0.00  0.00    +0.000 A 
ATOM      6  N   UNL     1       3.754   7.051  17.663  0.00  0.00    +0.000 NA
ATOM      7  C   UNL     1       3.901   3.319  18.347  0.00  0.00    +0.000 C 
ATOM      8  C   UNL     1       4.237   2.924  19.794  0.00  0.00    +0.000 C 
ATOM      9  N   UNL     1       3.069   2.493  20.568  0.00  0.00    +0.000 NA
ATOM     10  C   UNL     1       2.080   3.559  20.790  0.00  0.00    +0.000 C 
ATOM     11  C   UNL     1       1.401   4.084  19.519  0.00  0.00    +0.000 C 
ATOM     12  H   UNL     1       3.393   2.167  21.481  0.00  0.00    +0.000 HD
ENDROOT
BRANCH   5  13
ATOM     13  N   UNL     1       5.478   5.581  17.131  0.00  0.00    +0.000 N 
ATOM     14  C   UNL     1       5.617   5.589  15.669  0.00  0.00    +0.000 C 
ATOM     15  C   UNL     1       6.601   4.458  15.289  0.00  0.00    +0.000 C 
ATOM     16  O   UNL     1       7.857   4.545  15.997  0.00  0.00    +0.000 OA
ATOM     17  C   UNL     1       7.642   4.570  17.420  0.00  0.00    +0.000 C 
ATOM     18  C   UNL     1       6.767   5.778  17.798  0.00  0.00    +0.000 C 
ENDBRANCH   5  13
BRANCH   1  19
ATOM     19  C   UNL     1       2.010   8.708  18.195  0.00  0.00    +0.000 C 
BRANCH  19  23
ATOM     20  C   UNL     1      -0.173   9.815  21.750  0.00  0.00    +0.000 A 
ATOM     21  C   UNL     1       0.855   8.878  21.830  0.00  0.00    +0.000 A 
ATOM     22  C   UNL     1       1.562   8.518  20.680  0.00  0.00    +0.000 A 
ATOM     23  C   UNL     1       1.249   9.096  19.442  0.00  0.00    +0.000 A 
ATOM     24  C   UNL     1       0.207  10.031  19.374  0.00  0.00    +0.000 A 
ATOM     25  C   UNL     1      -0.497  10.390  20.523  0.00  0.00    +0.000 A 
ENDBRANCH  19  23
ENDBRANCH   1  19
TORSDOF 3
ENDMDL
MODEL 4
REMARK VINA RESULT:      -7.8      1.282      1.682
REMARK  Name = 
REMARK  3 active torsions:
REMARK  status: ('A' for Active; 'I' for Inactive)
REMARK    1  A    between atoms: C_4  and  C_5
REMARK    2  A    between atoms: C_5  and  C_6
REMARK    3  A    between atoms: C_10  and  N_11
REMARK                            x       y       z     vdW  Elec       q    Type
REMARK                         _______ _______ _______ _____ _____    ______ ____
ROOT
ATOM      1  C   UNL     1       2.759   7.638  17.936  0.00  0.00    +0.000 A 
ATOM      2  N   UNL     1       1.922   6.805  18.571  0.00  0.00    +0.000 NA
ATOM      3  C   UNL     1       2.317   5.525  18.679  0.00  0.00    +0.000 A 
ATOM      4  C   UNL     1       3.536   5.061  18.183  0.00  0.00    +0.000 A 
ATOM      5  C   UNL     1       4.369   6.005  17.571  0.00  0.00    +0.000 A 
ATOM      6  N   UNL     1       3.962   7.282  17.432  0.00  0.00    +0.000 NA
ATOM      7  C   UNL     1       3.848   3.600  18.356  0.00  0.00    +0.000 C 
ATOM      8  C   UNL     1       4.135   3.279  19.831  0.00  0.00    +0.000 C 
ATOM      9  N   UNL     1       2.929   2.976  20.608  0.00  0.00    +0.000 NA
ATOM     10  C   UNL     1       2.010   4.118  20.743  0.00  0.00    +0.000 C 
ATOM     11  C   UNL     1       1.388   4.603  19.427  0.00  0.00    +0.000 C 
ATOM     12  H   UNL     1       3.217   2.690  21.546  0.00  0.00    +0.000 HD
ENDROOT
BRANCH   5  13
ATOM     13  N   UNL     1       5.592   5.670  17.029  0.00  0.00    +0.000 N 
ATOM     14  C   UNL     1       5.749   5.557  15.573  0.00  0.00    +0.000 C 
ATOM     15  C   UNL     1       6.666   4.343  15.296  0.00  0.00    +0.000 C 
ATOM     16  O   UNL     1       7.916   4.408  16.017  0.00  0.00    +0.000 OA
ATOM     17  C   UNL     1       7.686   4.555  17.430  0.00  0.00    +0.000 C 
ATOM     18  C   UNL     1       6.881   5.839  17.701  0.00  0.00    +0.000 C 
ENDBRANCH   5  13
BRANCH   1  19
ATOM     19  C   UNL     1       2.325   9.081  17.823  0.00  0.00    +0.000 C 
BRANCH  19  23
ATOM     20  C   UNL     1      -0.878  10.181  20.499  0.00  0.00    +0.000 A 
ATOM     21  C   UNL     1      -1.040  10.330  19.124  0.00  0.00    +0.000 A 
ATOM     22  C   UNL     1      -0.005   9.975  18.256  0.00  0.00    +0.000 A 
ATOM     23  C   UNL     1       1.201   9.465  18.757  0.00  0.00    +0.000 A 
ATOM     24  C   UNL     1       1.354   9.327  20.144  0.00  0.00    +0.000 A 
ATOM     25  C   UNL     1       0.318   9.681  21.009  0.00  0.00    +0.000 A 
ENDBRANCH  19  23
ENDBRANCH   1  19
TORSDOF 3
ENDMDL
MODEL 5
REMARK VINA RESULT:      -7.8      1.308      1.997
REMARK  Name = 
REMARK  3 active torsions:
REMARK  status: ('A' for Active; 'I' for Inactive)
REMARK    1  A    between atoms: C_4  and  C_5
REMARK    2  A    between atoms: C_5  and  C_6
REMARK    3  A    between atoms: C_10  and  N_11
REMARK                            x       y       z     vdW  Elec       q    Type
REMARK                         _______ _______ _______ _____ _____    ______ ____
ROOT
ATOM      1  C   UNL     1       2.613   6.903  18.342  0.00  0.00    +0.000 A 
ATOM      2  N   UNL     1       1.762   6.158  19.060  0.00  0.00    +0.000 NA
ATOM      3  C   UNL     1       2.086   4.863  19.222  0.00  0.00    +0.000 A 
ATOM      4  C   UNL     1       3.250   4.301  18.698  0.00  0.00    +0.000 A 
ATOM      5  C   UNL     1       4.106   5.158  17.997  0.00  0.00    +0.000 A 
ATOM      6  N   UNL     1       3.768   6.448  17.805  0.00  0.00    +0.000 NA
ATOM      7  C   UNL     1       3.485   2.835  18.938  0.00  0.00    +0.000 C 
ATOM      8  C   UNL     1       3.824   2.576  20.414  0.00  0.00    +0.000 C 
ATOM      9  N   UNL     1       2.642   2.389  21.261  0.00  0.00    +0.000 NA
ATOM     10  C   UNL     1       1.799   3.590  21.373  0.00  0.00    +0.000 C 
ATOM     11  C   UNL     1       1.142   4.041  20.062  0.00  0.00    +0.000 C 
ATOM     12  H   UNL     1       2.958   2.136  22.200  0.00  0.00    +0.000 HD
ENDROOT
BRANCH   5  13
ATOM     13  N   UNL     1       5.280   4.722  17.419  0.00  0.00    +0.000 N 
ATOM     14  C   UNL     1       6.451   4.430  18.255  0.00  0.00    +0.000 C 
ATOM     15  C   UNL     1       7.701   4.943  17.500  0.00  0.00    +0.000 C 
ATOM     16  O   UNL     1       7.796   4.424  16.155  0.00  0.00    +0.000 OA
ATOM     17  C   UNL     1       6.600   4.713  15.408  0.00  0.00    +0.000 C 
ATOM     18  C   UNL     1       5.380   4.085  16.104  0.00  0.00    +0.000 C 
ENDBRANCH   5  13
BRANCH   1  19
ATOM     19  C   UNL     1       2.259   8.362  18.168  0.00  0.00    +0.000 C 
BRANCH  19  23
ATOM     20  C   UNL     1      -0.250   9.962  21.295  0.00  0.00    +0.000 A 
ATOM     21  C   UNL     1       0.729   9.020  21.604  0.00  0.00    +0.000 A 
ATOM     22  C   UNL     1       1.542   8.500  20.593  0.00  0.00    +0.000 A 
ATOM     23  C   UNL     1       1.384   8.922  19.266  0.00  0.00    +0.000 A 
ATOM     24  C   UNL     1       0.389   9.864  18.967  0.00  0.00    +0.000 A 
ATOM     25  C   UNL     1      -0.420  10.382  19.978  0.00  0.00    +0.000 A 
ENDBRANCH  19  23
ENDBRANCH   1  19
TORSDOF 3
ENDMDL
MODEL 6
REMARK VINA RESULT:      -7.7      2.264      4.308
REMARK  Name = 
REMARK  3 active torsions:
REMARK  status: ('A' for Active; 'I' for Inactive)
REMARK    1  A    between atoms: C_4  and  C_5
REMARK    2  A    between atoms: C_5  and  C_6
REMARK    3  A    between atoms: C_10  and  N_11
REMARK                            x       y       z     vdW  Elec       q    Type
REMARK                         _______ _______ _______ _____ _____    ______ ____
ROOT
ATOM      1  C   UNL     1       2.538   7.828  18.052  0.00  0.00    +0.000 A 
ATOM      2  N   UNL     1       3.696   7.782  17.380  0.00  0.00    +0.000 NA
ATOM      3  C   UNL     1       4.366   6.617  17.417  0.00  0.00    +0.000 A 
ATOM      4  C   UNL     1       3.896   5.492  18.096  0.00  0.00    +0.000 A 
ATOM      5  C   UNL     1       2.657   5.612  18.736  0.00  0.00    +0.000 A 
ATOM      6  N   UNL     1       1.999   6.788  18.728  0.00  0.00    +0.000 NA
ATOM      7  C   UNL     1       4.752   4.256  18.072  0.00  0.00    +0.000 C 
ATOM      8  C   UNL     1       4.747   3.622  16.673  0.00  0.00    +0.000 C 
ATOM      9  N   UNL     1       5.763   4.181  15.774  0.00  0.00    +0.000 NA
ATOM     10  C   UNL     1       5.542   5.596  15.441  0.00  0.00    +0.000 C 
ATOM     11  C   UNL     1       5.649   6.562  16.628  0.00  0.00    +0.000 C 
ATOM     12  H   UNL     1       5.748   3.645  14.904  0.00  0.00    +0.000 HD
ENDROOT
BRANCH   5  13
ATOM     13  N   UNL     1       2.092   4.578  19.452  0.00  0.00    +0.000 N 
ATOM     14  C   UNL     1       1.848   4.723  20.893  0.00  0.00    +0.000 C 
ATOM     15  C   UNL     1       2.197   3.372  21.562  0.00  0.00    +0.000 C 
ATOM     16  O   UNL     1       1.508   2.253  20.960  0.00  0.00    +0.000 OA
ATOM     17  C   UNL     1       1.763   2.197  19.545  0.00  0.00    +0.000 C 
ATOM     18  C   UNL     1       1.291   3.498  18.873  0.00  0.00    +0.000 C 
ENDBRANCH   5  13
BRANCH   1  19
ATOM     19  C   UNL     1       1.775   9.132  18.003  0.00  0.00    +0.000 C 
BRANCH  19  23
ATOM     20  C   UNL     1      -0.350  10.068  21.641  0.00  0.00    +0.000 A 
ATOM     21  C   UNL     1      -0.702  10.699  20.449  0.00  0.00    +0.000 A 
ATOM     22  C   UNL     1      -0.015  10.398  19.270  0.00  0.00    +0.000 A 
ATOM     23  C   UNL     1       1.027   9.460  19.274  0.00  0.00    +0.000 A 
ATOM     24  C   UNL     1       1.376   8.839  20.481  0.00  0.00    +0.000 A 
ATOM     25  C   UNL     1       0.689   9.140  21.657  0.00  0.00    +0.000 A 
ENDBRANCH  19  23
ENDBRANCH   1  19
TORSDOF 3
ENDMDL
MODEL 7
REMARK VINA RESULT:      -7.7      1.144      1.899
REMARK  Name = 
REMARK  3 active torsions:
REMARK  status: ('A' for Active; 'I' for Inactive)
REMARK    1  A    between atoms: C_4  and  C_5
REMARK    2  A    between atoms: C_5  and  C_6
REMARK    3  A    between atoms: C_10  and  N_11
REMARK                            x       y       z     vdW  Elec       q    Type
REMARK                         _______ _______ _______ _____ _____    ______ ____
ROOT
ATOM      1  C   UNL     1       2.594   6.735  17.856  0.00  0.00    +0.000 A 
ATOM      2  N   UNL     1       1.559   5.918  18.093  0.00  0.00    +0.000 NA
ATOM      3  C   UNL     1       1.800   4.599  18.000  0.00  0.00    +0.000 A 
ATOM      4  C   UNL     1       3.057   4.077  17.692  0.00  0.00    +0.000 A 
ATOM      5  C   UNL     1       4.094   4.997  17.501  0.00  0.00    +0.000 A 
ATOM      6  N   UNL     1       3.848   6.320  17.562  0.00  0.00    +0.000 NA
ATOM      7  C   UNL     1       3.188   2.581  17.604  0.00  0.00    +0.000 C 
ATOM      8  C   UNL     1       3.078   1.945  18.997  0.00  0.00    +0.000 C 
ATOM      9  N   UNL     1       1.697   1.666  19.406  0.00  0.00    +0.000 NA
ATOM     10  C   UNL     1       0.879   2.875  19.584  0.00  0.00    +0.000 C 
ATOM     11  C   UNL     1       0.639   3.687  18.305  0.00  0.00    +0.000 C 
ATOM     12  H   UNL     1       1.722   1.167  20.297  0.00  0.00    +0.000 HD
ENDROOT
BRANCH   5  13
ATOM     13  N   UNL     1       5.377   4.609  17.179  0.00  0.00    +0.000 N 
ATOM     14  C   UNL     1       6.345   4.304  18.240  0.00  0.00    +0.000 C 
ATOM     15  C   UNL     1       7.715   4.873  17.800  0.00  0.00    +0.000 C 
ATOM     16  O   UNL     1       8.117   4.415  16.489  0.00  0.00    +0.000 OA
ATOM     17  C   UNL     1       7.106   4.714  15.510  0.00  0.00    +0.000 C 
ATOM     18  C   UNL     1       5.781   4.033  15.896  0.00  0.00    +0.000 C 
ENDBRANCH   5  13
BRANCH   1  19
ATOM     19  C   UNL     1       2.330   8.218  17.972  0.00  0.00    +0.000 C 
BRANCH  19  23
ATOM     20  C   UNL     1       0.099   9.345  21.491  0.00  0.00    +0.000 A 
ATOM     21  C   UNL     1      -0.120  10.011  20.287  0.00  0.00    +0.000 A 
ATOM     22  C   UNL     1       0.601   9.648  19.146  0.00  0.00    +0.000 A 
ATOM     23  C   UNL     1       1.545   8.613  19.202  0.00  0.00    +0.000 A 
ATOM     24  C   UNL     1       1.762   7.957  20.421  0.00  0.00    +0.000 A 
ATOM     25  C   UNL     1       1.040   8.319  21.558  0.00  0.00    +0.000 A 
ENDBRANCH  19  23
ENDBRANCH   1  19
TORSDOF 3
ENDMDL
MODEL 8
REMARK VINA RESULT:      -7.7      1.283      1.880
REMARK  Name = 
REMARK  3 active torsions:
REMARK  status: ('A' for Active; 'I' for Inactive)
REMARK    1  A    between atoms: C_4  and  C_5
REMARK    2  A    between atoms: C_5  and  C_6
REMARK    3  A    between atoms: C_10  and  N_11
REMARK                            x       y       z     vdW  Elec       q    Type
REMARK                         _______ _______ _______ _____ _____    ______ ____
ROOT
ATOM      1  C   UNL     1       2.789   7.184  18.152  0.00  0.00    +0.000 A 
ATOM      2  N   UNL     1       1.905   6.502  18.892  0.00  0.00    +0.000 NA
ATOM      3  C   UNL     1       2.139   5.188  19.048  0.00  0.00    +0.000 A 
ATOM      4  C   UNL     1       3.245   4.542  18.495  0.00  0.00    +0.000 A 
ATOM      5  C   UNL     1       4.143   5.335  17.771  0.00  0.00    +0.000 A 
ATOM      6  N   UNL     1       3.894   6.647  17.586  0.00  0.00    +0.000 NA
ATOM      7  C   UNL     1       3.380   3.063  18.733  0.00  0.00    +0.000 C 
ATOM      8  C   UNL     1       3.737   2.781  20.200  0.00  0.00    +0.000 C 
ATOM      9  N   UNL     1       2.567   2.680  21.078  0.00  0.00    +0.000 NA
ATOM     10  C   UNL     1       1.816   3.939  21.209  0.00  0.00    +0.000 C 
ATOM     11  C   UNL     1       1.160   4.436  19.914  0.00  0.00    +0.000 C 
ATOM     12  H   UNL     1       2.888   2.405  22.008  0.00  0.00    +0.000 HD
ENDROOT
BRANCH   5  13
ATOM     13  N   UNL     1       5.266   4.815  17.164  0.00  0.00    +0.000 N 
ATOM     14  C   UNL     1       6.413   4.388  17.975  0.00  0.00    +0.000 C 
ATOM     15  C   UNL     1       7.698   4.811  17.224  0.00  0.00    +0.000 C 
ATOM     16  O   UNL     1       7.734   4.335  15.860  0.00  0.00    +0.000 OA
ATOM     17  C   UNL     1       6.563   4.760  15.139  0.00  0.00    +0.000 C 
ATOM     18  C   UNL     1       5.296   4.221  15.826  0.00  0.00    +0.000 C 
ENDBRANCH   5  13
BRANCH   1  19
ATOM     19  C   UNL     1       2.537   8.665  17.984  0.00  0.00    +0.000 C 
BRANCH  19  23
ATOM     20  C   UNL     1      -0.852  10.146  20.209  0.00  0.00    +0.000 A 
ATOM     21  C   UNL     1      -0.832  10.254  18.820  0.00  0.00    +0.000 A 
ATOM     22  C   UNL     1       0.264   9.776  18.098  0.00  0.00    +0.000 A 
ATOM     23  C   UNL     1       1.348   9.182  18.760  0.00  0.00    +0.000 A 
ATOM     24  C   UNL     1       1.319   9.087  20.158  0.00  0.00    +0.000 A 
ATOM     25  C   UNL     1       0.223   9.564  20.877  0.00  0.00    +0.000 A 
ENDBRANCH  19  23
ENDBRANCH   1  19
TORSDOF 3
ENDMDL
MODEL 9
REMARK VINA RESULT:      -7.6      0.716      1.249
REMARK  Name = 
REMARK  3 active torsions:
REMARK  status: ('A' for Active; 'I' for Inactive)
REMARK    1  A    between atoms: C_4  and  C_5
REMARK    2  A    between atoms: C_5  and  C_6
REMARK    3  A    between atoms: C_10  and  N_11
REMARK                            x       y       z     vdW  Elec       q    Type
REMARK                         _______ _______ _______ _____ _____    ______ ____
ROOT
ATOM      1  C   UNL     1       2.248   6.453  19.949  0.00  0.00    +0.000 A 
ATOM      2  N   UNL     1       1.432   5.423  19.688  0.00  0.00    +0.000 NA
ATOM      3  C   UNL     1       1.908   4.473  18.865  0.00  0.00    +0.000 A 
ATOM      4  C   UNL     1       3.188   4.519  18.311  0.00  0.00    +0.000 A 
ATOM      5  C   UNL     1       3.992   5.608  18.669  0.00  0.00    +0.000 A 
ATOM      6  N   UNL     1       3.506   6.578  19.467  0.00  0.00    +0.000 NA
ATOM      7  C   UNL     1       3.591   3.399  17.393  0.00  0.00    +0.000 C 
ATOM      8  C   UNL     1       3.799   2.098  18.185  0.00  0.00    +0.000 C 
ATOM      9  N   UNL     1       2.567   1.324  18.370  0.00  0.00    +0.000 NA
ATOM     10  C   UNL     1       1.562   2.003  19.204  0.00  0.00    +0.000 C 
ATOM     11  C   UNL     1       0.998   3.299  18.607  0.00  0.00    +0.000 C 
ATOM     12  H   UNL     1       2.809   0.441  18.824  0.00  0.00    +0.000 HD
ENDROOT
BRANCH   5  13
ATOM     13  N   UNL     1       5.269   5.776  18.178  0.00  0.00    +0.000 N 
ATOM     14  C   UNL     1       6.364   4.925  18.660  0.00  0.00    +0.000 C 
ATOM     15  C   UNL     1       7.618   5.819  18.811  0.00  0.00    +0.000 C 
ATOM     16  O   UNL     1       7.932   6.552  17.606  0.00  0.00    +0.000 OA
ATOM     17  C   UNL     1       6.803   7.333  17.173  0.00  0.00    +0.000 C 
ATOM     18  C   UNL     1       5.600   6.413  16.902  0.00  0.00    +0.000 C 
ENDBRANCH   5  13
BRANCH   1  19
ATOM     19  C   UNL     1       1.721   7.518  20.883  0.00  0.00    +0.000 C 
BRANCH  19  23
ATOM     20  C   UNL     1      -0.154  10.859  18.896  0.00  0.00    +0.000 A 
ATOM     21  C   UNL     1       0.845  10.136  18.247  0.00  0.00    +0.000 A 
ATOM     22  C   UNL     1       1.453   9.055  18.888  0.00  0.00    +0.000 A 
ATOM     23  C   UNL     1       1.065   8.686  20.184  0.00  0.00    +0.000 A 
ATOM     24  C   UNL     1       0.065   9.427  20.829  0.00  0.00    +0.000 A 
ATOM     25  C   UNL     1      -0.542  10.505  20.186  0.00  0.00    +0.000 A 
ENDBRANCH  19  23
ENDBRANCH   1  19
TORSDOF 3
ENDMDL
