MODEL 1
REMARK VINA RESULT:      -8.0      0.000      0.000
REMARK  Name = 
REMARK  7 active torsions:
REMARK  status: ('A' for Active; 'I' for Inactive)
REMARK    1  A    between atoms: C_2  and  C_21
REMARK    2  A    between atoms: N_3  and  C_4
REMARK    3  A    between atoms: C_9  and  C_10
REMARK    4  A    between atoms: N_12  and  C_13
REMARK    5  A    between atoms: C_13  and  C_14
REMARK    6  A    between atoms: C_14  and  C_15
REMARK    7  A    between atoms: C_15  and  N_16
REMARK                            x       y       z     vdW  Elec       q    Type
REMARK                         _______ _______ _______ _____ _____    ______ ____
ROOT
ATOM      1  C   UNL     1       3.476   3.576  19.332  0.00  0.00    +0.000 A 
ATOM      2  C   UNL     1       3.757   2.498  20.189  0.00  0.00    +0.000 A 
ATOM      3  C   UNL     1       3.050   2.313  21.377  0.00  0.00    +0.000 A 
ATOM      4  C   UNL     1       2.037   3.198  21.721  0.00  0.00    +0.000 A 
ATOM      5  C   UNL     1       1.757   4.288  20.894  0.00  0.00    +0.000 A 
ATOM      6  C   UNL     1       2.492   4.510  19.715  0.00  0.00    +0.000 A 
ENDROOT
BRANCH   1   9
ATOM      7  O   UNL     1       5.904   5.016  18.974  0.00  0.00    +0.000 OA
ATOM      8  C   UNL     1       5.351   4.480  18.012  0.00  0.00    +0.000 C 
ATOM      9  N   UNL     1       4.202   3.717  18.121  0.00  0.00    +0.000 N 
ATOM     10  H   UNL     1       4.080   2.972  17.433  0.00  0.00    +0.000 HD
BRANCH   8  11
ATOM     11  C   UNL     1       5.976   4.670  16.663  0.00  0.00    +0.000 A 
ATOM     12  C   UNL     1       5.540   3.760  15.675  0.00  0.00    +0.000 A 
ATOM     13  C   UNL     1       6.051   3.789  14.375  0.00  0.00    +0.000 A 
ATOM     14  C   UNL     1       7.005   4.736  14.039  0.00  0.00    +0.000 A 
ATOM     15 CL   UNL     1       7.648   4.780  12.445  0.00  0.00    +0.000 Cl
ATOM     16  C   UNL     1       7.446   5.651  14.991  0.00  0.00    +0.000 A 
ATOM     17  C   UNL     1       6.939   5.621  16.300  0.00  0.00    +0.000 A 
ATOM     18 CL   UNL     1       7.580   6.821  17.362  0.00  0.00    +0.000 Cl
ENDBRANCH   8  11
ENDBRANCH   1   9
BRANCH   6  19
ATOM     19  C   UNL     1       2.133   5.674  18.847  0.00  0.00    +0.000 C 
ATOM     20  O   UNL     1       1.568   5.515  17.769  0.00  0.00    +0.000 OA
ATOM     21  N   UNL     1       2.502   6.923  19.316  0.00  0.00    +0.000 N 
ATOM     22  H   UNL     1       3.110   6.983  20.122  0.00  0.00    +0.000 HD
BRANCH  21  23
ATOM     23  C   UNL     1       2.205   8.150  18.600  0.00  0.00    +0.000 C 
BRANCH  23  24
ATOM     24  C   UNL     1       1.339   9.118  19.404  0.00  0.00    +0.000 C 
BRANCH  24  25
ATOM     25  C   UNL     1       1.196   8.696  20.865  0.00  0.00    +0.000 C 
BRANCH  25  26
ATOM     26  N   UNL     1       0.489   9.672  21.668  0.00  0.00    +0.000 N 
ATOM     27  C   UNL     1       0.025  10.886  21.240  0.00  0.00    +0.000 A 
ATOM     28  C   UNL     1      -0.639  11.411  22.322  0.00  0.00    +0.000 A 
ATOM     29  N   UNL     1      -0.585  10.553  23.392  0.00  0.00    +0.000 NA
ATOM     30  C   UNL     1       0.102   9.516  22.968  0.00  0.00    +0.000 A 
ENDBRANCH  25  26
ENDBRANCH  24  25
ENDBRANCH  23  24
ENDBRANCH  21  23
ENDBRANCH   6  19
TORSDOF 7
ENDMDL
MODEL 2
REMARK VINA RESULT:      -7.9      1.690      1.988
REMARK  Name = 
REMARK  7 active torsions:
REMARK  status: ('A' for Active; 'I' for Inactive)
REMARK    1  A    between atoms: C_2  and  C_21
REMARK    2  A    between atoms: N_3  and  C_4
REMARK    3  A    between atoms: C_9  and  C_10
REMARK    4  A    between atoms: N_12  and  C_13
REMARK    5  A    between atoms: C_13  and  C_14
REMARK    6  A    between atoms: C_14  and  C_15
REMARK    7  A    between atoms: C_15  and  N_16
REMARK                            x       y       z     vdW  Elec       q    Type
REMARK                         _______ _______ _______ _____ _____    ______ ____
ROOT
ATOM      1  C   UNL     1       3.354   3.829  19.383  0.00  0.00    +0.000 A 
ATOM      2  C   UNL     1       3.495   2.620  20.085  0.00  0.00    +0.000 A 
ATOM      3  C   UNL     1       2.821   2.397  21.287  0.00  0.00    +0.000 A 
ATOM      4  C   UNL     1       1.983   3.378  21.800  0.00  0.00    +0.000 A 
ATOM      5  C   UNL     1       1.847   4.595  21.129  0.00  0.00    +0.000 A 
ATOM      6  C   UNL     1       2.554   4.849  19.938  0.00  0.00    +0.000 A 
ENDROOT
BRANCH   1   9
ATOM      7  O   UNL     1       6.146   4.269  19.049  0.00  0.00    +0.000 OA
ATOM      8  C   UNL     1       5.394   4.273  18.072  0.00  0.00    +0.000 C 
ATOM      9  N   UNL     1       4.037   4.010  18.153  0.00  0.00    +0.000 N 
ATOM     10  H   UNL     1       3.604   3.589  17.330  0.00  0.00    +0.000 HD
BRANCH   8  11
ATOM     11  C   UNL     1       6.001   4.573  16.736  0.00  0.00    +0.000 A 
ATOM     12  C   UNL     1       5.629   3.683  15.703  0.00  0.00    +0.000 A 
ATOM     13  C   UNL     1       6.134   3.812  14.407  0.00  0.00    +0.000 A 
ATOM     14  C   UNL     1       7.017   4.840  14.119  0.00  0.00    +0.000 A 
ATOM     15 CL   UNL     1       7.652   5.008  12.530  0.00  0.00    +0.000 Cl
ATOM     16  C   UNL     1       7.393   5.738  15.115  0.00  0.00    +0.000 A 
ATOM     17  C   UNL     1       6.893   5.607  16.421  0.00  0.00    +0.000 A 
ATOM     18 CL   UNL     1       7.448   6.797  17.541  0.00  0.00    +0.000 Cl
ENDBRANCH   8  11
ENDBRANCH   1   9
BRANCH   6  19
ATOM     19  C   UNL     1       2.351   6.156  19.241  0.00  0.00    +0.000 C 
ATOM     20  O   UNL     1       2.386   6.238  18.018  0.00  0.00    +0.000 OA
ATOM     21  N   UNL     1       2.154   7.259  20.055  0.00  0.00    +0.000 N 
ATOM     22  H   UNL     1       2.302   7.165  21.050  0.00  0.00    +0.000 HD
BRANCH  21  23
ATOM     23  C   UNL     1       1.921   8.592  19.529  0.00  0.00    +0.000 C 
BRANCH  23  24
ATOM     24  C   UNL     1       0.673   9.254  20.109  0.00  0.00    +0.000 C 
BRANCH  24  25
ATOM     25  C   UNL     1       0.478  10.680  19.597  0.00  0.00    +0.000 C 
BRANCH  25  26
ATOM     26  N   UNL     1      -0.818  10.886  18.984  0.00  0.00    +0.000 N 
ATOM     27  C   UNL     1      -1.303  10.238  17.882  0.00  0.00    +0.000 A 
ATOM     28  C   UNL     1      -2.586  10.707  17.732  0.00  0.00    +0.000 A 
ATOM     29  N   UNL     1      -2.887  11.623  18.708  0.00  0.00    +0.000 NA
ATOM     30  C   UNL     1      -1.803  11.712  19.445  0.00  0.00    +0.000 A 
ENDBRANCH  25  26
ENDBRANCH  24  25
ENDBRANCH  23  24
ENDBRANCH  21  23
ENDBRANCH   6  19
TORSDOF 7
ENDMDL
MODEL 3
REMARK VINA RESULT:      -7.7      4.803      7.681
REMARK  Name = 
REMARK  7 active torsions:
REMARK  status: ('A' for Active; 'I' for Inactive)
REMARK    1  A    between atoms: C_2  and  C_21
REMARK    2  A    between atoms: N_3  and  C_4
REMARK    3  A    between atoms: C_9  and  C_10
REMARK    4  A    between atoms: N_12  and  C_13
REMARK    5  A    between atoms: C_13  and  C_14
REMARK    6  A    between atoms: C_14  and  C_15
REMARK    7  A    between atoms: C_15  and  N_16
REMARK                            x       y       z     vdW  Elec       q    Type
REMARK                         _______ _______ _______ _____ _____    ______ ____
ROOT
ATOM      1  C   UNL     1       5.954   4.069  15.164  0.00  0.00    +0.000 A 
ATOM      2  C   UNL     1       5.650   3.618  13.868  0.00  0.00    +0.000 A 
ATOM      3  C   UNL     1       6.415   4.006  12.768  0.00  0.00    +0.000 A 
ATOM      4  C   UNL     1       7.508   4.842  12.949  0.00  0.00    +0.000 A 
ATOM      5  C   UNL     1       7.814   5.319  14.225  0.00  0.00    +0.000 A 
ATOM      6  C   UNL     1       7.025   4.971  15.337  0.00  0.00    +0.000 A 
ENDROOT
BRANCH   1   9
ATOM      7  O   UNL     1       4.120   5.650  16.659  0.00  0.00    +0.000 OA
ATOM      8  C   UNL     1       4.333   4.478  16.976  0.00  0.00    +0.000 C 
ATOM      9  N   UNL     1       5.166   3.635  16.261  0.00  0.00    +0.000 N 
ATOM     10  H   UNL     1       4.942   2.639  16.289  0.00  0.00    +0.000 HD
BRANCH   8  11
ATOM     11  C   UNL     1       3.637   3.955  18.196  0.00  0.00    +0.000 A 
ATOM     12  C   UNL     1       4.490   3.369  19.158  0.00  0.00    +0.000 A 
ATOM     13  C   UNL     1       3.990   2.809  20.336  0.00  0.00    +0.000 A 
ATOM     14  C   UNL     1       2.625   2.833  20.576  0.00  0.00    +0.000 A 
ATOM     15 CL   UNL     1       1.994   2.143  22.019  0.00  0.00    +0.000 Cl
ATOM     16  C   UNL     1       1.763   3.414  19.649  0.00  0.00    +0.000 A 
ATOM     17  C   UNL     1       2.262   3.971  18.461  0.00  0.00    +0.000 A 
ATOM     18 CL   UNL     1       1.070   4.656  17.416  0.00  0.00    +0.000 Cl
ENDBRANCH   8  11
ENDBRANCH   1   9
BRANCH   6  19
ATOM     19  C   UNL     1       7.411   5.482  16.688  0.00  0.00    +0.000 C 
ATOM     20  O   UNL     1       7.567   4.721  17.637  0.00  0.00    +0.000 OA
ATOM     21  N   UNL     1       7.551   6.855  16.805  0.00  0.00    +0.000 N 
ATOM     22  H   UNL     1       7.249   7.444  16.041  0.00  0.00    +0.000 HD
BRANCH  21  23
ATOM     23  C   UNL     1       7.942   7.502  18.044  0.00  0.00    +0.000 C 
BRANCH  23  24
ATOM     24  C   UNL     1       8.155   9.006  17.891  0.00  0.00    +0.000 C 
BRANCH  24  25
ATOM     25  C   UNL     1       8.951   9.603  19.050  0.00  0.00    +0.000 C 
BRANCH  25  26
ATOM     26  N   UNL     1       9.478  10.920  18.753  0.00  0.00    +0.000 N 
ATOM     27  C   UNL     1       9.270  12.056  19.486  0.00  0.00    +0.000 A 
ATOM     28  C   UNL     1      10.027  13.020  18.864  0.00  0.00    +0.000 A 
ATOM     29  N   UNL     1      10.679  12.501  17.774  0.00  0.00    +0.000 NA
ATOM     30  C   UNL     1      10.328  11.235  17.732  0.00  0.00    +0.000 A 
ENDBRANCH  25  26
ENDBRANCH  24  25
ENDBRANCH  23  24
ENDBRANCH  21  23
ENDBRANCH   6  19
TORSDOF 7
ENDMDL
MODEL 4
REMARK VINA RESULT:      -7.6      1.033      1.033
REMARK  Name = 
REMARK  7 active torsions:
REMARK  status: ('A' for Active; 'I' for Inactive)
REMARK    1  A    between atoms: C_2  and  C_21
REMARK    2  A    between atoms: N_3  and  C_4
REMARK    3  A    between atoms: C_9  and  C_10
REMARK    4  A    between atoms: N_12  and  C_13
REMARK    5  A    between atoms: C_13  and  C_14
REMARK    6  A    between atoms: C_14  and  C_15
REMARK    7  A    between atoms: C_15  and  N_16
REMARK                            x       y       z     vdW  Elec       q    Type
REMARK                         _______ _______ _______ _____ _____    ______ ____
ROOT
ATOM      1  C   UNL     1       2.743   3.835  18.571  0.00  0.00    +0.000 A 
ATOM      2  C   UNL     1       2.311   2.536  18.889  0.00  0.00    +0.000 A 
ATOM      3  C   UNL     1       1.477   2.298  19.982  0.00  0.00    +0.000 A 
ATOM      4  C   UNL     1       1.050   3.359  20.768  0.00  0.00    +0.000 A 
ATOM      5  C   UNL     1       1.486   4.654  20.482  0.00  0.00    +0.000 A 
ATOM      6  C   UNL     1       2.361   4.904  19.408  0.00  0.00    +0.000 A 
ENDROOT
BRANCH   1   9
ATOM      7  O   UNL     1       5.588   3.796  18.527  0.00  0.00    +0.000 OA
ATOM      8  C   UNL     1       4.954   4.060  17.504  0.00  0.00    +0.000 C 
ATOM      9  N   UNL     1       3.571   4.041  17.437  0.00  0.00    +0.000 N 
ATOM     10  H   UNL     1       3.160   3.813  16.531  0.00  0.00    +0.000 HD
BRANCH   8  11
ATOM     11  C   UNL     1       5.739   4.409  16.277  0.00  0.00    +0.000 A 
ATOM     12  C   UNL     1       5.314   3.759  15.097  0.00  0.00    +0.000 A 
ATOM     13  C   UNL     1       5.964   3.957  13.876  0.00  0.00    +0.000 A 
ATOM     14  C   UNL     1       7.048   4.818  13.813  0.00  0.00    +0.000 A 
ATOM     15 CL   UNL     1       7.862   5.068  12.319  0.00  0.00    +0.000 Cl
ATOM     16  C   UNL     1       7.482   5.480  14.959  0.00  0.00    +0.000 A 
ATOM     17  C   UNL     1       6.836   5.277  16.189  0.00  0.00    +0.000 A 
ATOM     18 CL   UNL     1       7.487   6.171  17.514  0.00  0.00    +0.000 Cl
ENDBRANCH   8  11
ENDBRANCH   1   9
BRANCH   6  19
ATOM     19  C   UNL     1       2.774   6.312  19.124  0.00  0.00    +0.000 C 
ATOM     20  O   UNL     1       3.929   6.686  19.305  0.00  0.00    +0.000 OA
ATOM     21  N   UNL     1       1.778   7.164  18.678  0.00  0.00    +0.000 N 
ATOM     22  H   UNL     1       0.817   6.850  18.707  0.00  0.00    +0.000 HD
BRANCH  21  23
ATOM     23  C   UNL     1       2.025   8.553  18.339  0.00  0.00    +0.000 C 
BRANCH  23  24
ATOM     24  C   UNL     1       1.246   9.530  19.217  0.00  0.00    +0.000 C 
BRANCH  24  25
ATOM     25  C   UNL     1       0.734   8.880  20.500  0.00  0.00    +0.000 C 
BRANCH  25  26
ATOM     26  N   UNL     1       0.150   9.834  21.422  0.00  0.00    +0.000 N 
ATOM     27  C   UNL     1      -0.534  10.968  21.084  0.00  0.00    +0.000 A 
ATOM     28  C   UNL     1      -0.957  11.495  22.280  0.00  0.00    +0.000 A 
ATOM     29  N   UNL     1      -0.543  10.715  23.330  0.00  0.00    +0.000 NA
ATOM     30  C   UNL     1       0.122   9.724  22.783  0.00  0.00    +0.000 A 
ENDBRANCH  25  26
ENDBRANCH  24  25
ENDBRANCH  23  24
ENDBRANCH  21  23
ENDBRANCH   6  19
TORSDOF 7
ENDMDL
MODEL 5
REMARK VINA RESULT:      -7.5      3.590      7.887
REMARK  Name = 
REMARK  7 active torsions:
REMARK  status: ('A' for Active; 'I' for Inactive)
REMARK    1  A    between atoms: C_2  and  C_21
REMARK    2  A    between atoms: N_3  and  C_4
REMARK    3  A    between atoms: C_9  and  C_10
REMARK    4  A    between atoms: N_12  and  C_13
REMARK    5  A    between atoms: C_13  and  C_14
REMARK    6  A    between atoms: C_14  and  C_15
REMARK    7  A    between atoms: C_15  and  N_16
REMARK                            x       y       z     vdW  Elec       q    Type
REMARK                         _______ _______ _______ _____ _____    ______ ____
ROOT
ATOM      1  C   UNL     1       2.385   4.386  18.618  0.00  0.00    +0.000 A 
ATOM      2  C   UNL     1       1.216   3.605  18.646  0.00  0.00    +0.000 A 
ATOM      3  C   UNL     1       1.276   2.215  18.751  0.00  0.00    +0.000 A 
ATOM      4  C   UNL     1       2.508   1.583  18.843  0.00  0.00    +0.000 A 
ATOM      5  C   UNL     1       3.681   2.339  18.794  0.00  0.00    +0.000 A 
ATOM      6  C   UNL     1       3.637   3.738  18.646  0.00  0.00    +0.000 A 
ENDROOT
BRANCH   1   9
ATOM      7  O   UNL     1       1.787   6.167  20.755  0.00  0.00    +0.000 OA
ATOM      8  C   UNL     1       1.934   6.597  19.609  0.00  0.00    +0.000 C 
ATOM      9  N   UNL     1       2.282   5.799  18.534  0.00  0.00    +0.000 N 
ATOM     10  H   UNL     1       2.814   6.246  17.785  0.00  0.00    +0.000 HD
BRANCH   8  11
ATOM     11  C   UNL     1       1.729   8.065  19.392  0.00  0.00    +0.000 A 
ATOM     12  C   UNL     1       2.301   8.574  18.204  0.00  0.00    +0.000 A 
ATOM     13  C   UNL     1       2.222   9.929  17.874  0.00  0.00    +0.000 A 
ATOM     14  C   UNL     1       1.561  10.800  18.725  0.00  0.00    +0.000 A 
ATOM     15 CL   UNL     1       1.459  12.471  18.335  0.00  0.00    +0.000 Cl
ATOM     16  C   UNL     1       0.979  10.324  19.897  0.00  0.00    +0.000 A 
ATOM     17  C   UNL     1       1.063   8.964  20.236  0.00  0.00    +0.000 A 
ATOM     18 CL   UNL     1       0.290   8.529  21.717  0.00  0.00    +0.000 Cl
ENDBRANCH   8  11
ENDBRANCH   1   9
BRANCH   6  19
ATOM     19  C   UNL     1       4.920   4.505  18.630  0.00  0.00    +0.000 C 
ATOM     20  O   UNL     1       5.112   5.442  19.399  0.00  0.00    +0.000 OA
ATOM     21  N   UNL     1       5.853   4.117  17.684  0.00  0.00    +0.000 N 
ATOM     22  H   UNL     1       5.580   3.456  16.970  0.00  0.00    +0.000 HD
BRANCH  21  23
ATOM     23  C   UNL     1       7.154   4.749  17.557  0.00  0.00    +0.000 C 
BRANCH  23  24
ATOM     24  C   UNL     1       7.346   5.458  16.218  0.00  0.00    +0.000 C 
BRANCH  24  25
ATOM     25  C   UNL     1       6.085   5.427  15.356  0.00  0.00    +0.000 C 
BRANCH  25  26
ATOM     26  N   UNL     1       6.281   4.741  14.095  0.00  0.00    +0.000 N 
ATOM     27  C   UNL     1       7.302   4.952  13.211  0.00  0.00    +0.000 A 
ATOM     28  C   UNL     1       7.108   4.022  12.218  0.00  0.00    +0.000 A 
ATOM     29  N   UNL     1       5.995   3.261  12.474  0.00  0.00    +0.000 NA
ATOM     30  C   UNL     1       5.517   3.718  13.609  0.00  0.00    +0.000 A 
ENDBRANCH  25  26
ENDBRANCH  24  25
ENDBRANCH  23  24
ENDBRANCH  21  23
ENDBRANCH   6  19
TORSDOF 7
ENDMDL
MODEL 6
REMARK VINA RESULT:      -7.5      1.735      2.074
REMARK  Name = 
REMARK  7 active torsions:
REMARK  status: ('A' for Active; 'I' for Inactive)
REMARK    1  A    between atoms: C_2  and  C_21
REMARK    2  A    between atoms: N_3  and  C_4
REMARK    3  A    between atoms: C_9  and  C_10
REMARK    4  A    between atoms: N_12  and  C_13
REMARK    5  A    between atoms: C_13  and  C_14
REMARK    6  A    between atoms: C_14  and  C_15
REMARK    7  A    between atoms: C_15  and  N_16
REMARK                            x       y       z     vdW  Elec       q    Type
REMARK                         _______ _______ _______ _____ _____    ______ ____
ROOT
ATOM      1  C   UNL     1       3.562   4.064  19.648  0.00  0.00    +0.000 A 
ATOM      2  C   UNL     1       3.743   2.797  20.229  0.00  0.00    +0.000 A 
ATOM      3  C   UNL     1       2.925   2.353  21.268  0.00  0.00    +0.000 A 
ATOM      4  C   UNL     1       1.901   3.165  21.735  0.00  0.00    +0.000 A 
ATOM      5  C   UNL     1       1.718   4.436  21.186  0.00  0.00    +0.000 A 
ATOM      6  C   UNL     1       2.564   4.914  20.167  0.00  0.00    +0.000 A 
ENDROOT
BRANCH   1   9
ATOM      7  O   UNL     1       3.606   2.963  17.024  0.00  0.00    +0.000 OA
ATOM      8  C   UNL     1       4.401   3.850  17.340  0.00  0.00    +0.000 C 
ATOM      9  N   UNL     1       4.400   4.471  18.577  0.00  0.00    +0.000 N 
ATOM     10  H   UNL     1       4.730   5.436  18.605  0.00  0.00    +0.000 HD
BRANCH   8  11
ATOM     11  C   UNL     1       5.410   4.270  16.315  0.00  0.00    +0.000 A 
ATOM     12  C   UNL     1       4.950   4.231  14.980  0.00  0.00    +0.000 A 
ATOM     13  C   UNL     1       5.780   4.565  13.907  0.00  0.00    +0.000 A 
ATOM     14  C   UNL     1       7.089   4.951  14.153  0.00  0.00    +0.000 A 
ATOM     15 CL   UNL     1       8.125   5.359  12.844  0.00  0.00    +0.000 Cl
ATOM     16  C   UNL     1       7.566   5.007  15.460  0.00  0.00    +0.000 A 
ATOM     17  C   UNL     1       6.735   4.665  16.540  0.00  0.00    +0.000 A 
ATOM     18 CL   UNL     1       7.470   4.789  18.097  0.00  0.00    +0.000 Cl
ENDBRANCH   8  11
ENDBRANCH   1   9
BRANCH   6  19
ATOM     19  C   UNL     1       2.308   6.269  19.590  0.00  0.00    +0.000 C 
ATOM     20  O   UNL     1       2.416   6.481  18.387  0.00  0.00    +0.000 OA
ATOM     21  N   UNL     1       1.974   7.265  20.493  0.00  0.00    +0.000 N 
ATOM     22  H   UNL     1       2.063   7.077  21.482  0.00  0.00    +0.000 HD
BRANCH  21  23
ATOM     23  C   UNL     1       1.676   8.626  20.087  0.00  0.00    +0.000 C 
BRANCH  23  24
ATOM     24  C   UNL     1       0.379   9.159  20.690  0.00  0.00    +0.000 C 
BRANCH  24  25
ATOM     25  C   UNL     1       0.429  10.664  20.945  0.00  0.00    +0.000 C 
BRANCH  25  26
ATOM     26  N   UNL     1      -0.190  11.437  19.887  0.00  0.00    +0.000 N 
ATOM     27  C   UNL     1       0.341  12.539  19.276  0.00  0.00    +0.000 A 
ATOM     28  C   UNL     1      -0.565  12.869  18.296  0.00  0.00    +0.000 A 
ATOM     29  N   UNL     1      -1.629  12.003  18.304  0.00  0.00    +0.000 NA
ATOM     30  C   UNL     1      -1.376  11.153  19.273  0.00  0.00    +0.000 A 
ENDBRANCH  25  26
ENDBRANCH  24  25
ENDBRANCH  23  24
ENDBRANCH  21  23
ENDBRANCH   6  19
TORSDOF 7
ENDMDL
MODEL 7
REMARK VINA RESULT:      -7.5      2.931      7.759
REMARK  Name = 
REMARK  7 active torsions:
REMARK  status: ('A' for Active; 'I' for Inactive)
REMARK    1  A    between atoms: C_2  and  C_21
REMARK    2  A    between atoms: N_3  and  C_4
REMARK    3  A    between atoms: C_9  and  C_10
REMARK    4  A    between atoms: N_12  and  C_13
REMARK    5  A    between atoms: C_13  and  C_14
REMARK    6  A    between atoms: C_14  and  C_15
REMARK    7  A    between atoms: C_15  and  N_16
REMARK                            x       y       z     vdW  Elec       q    Type
REMARK                         _______ _______ _______ _____ _____    ______ ____
ROOT
ATOM      1  C   UNL     1       2.192   4.550  18.795  0.00  0.00    +0.000 A 
ATOM      2  C   UNL     1       1.169   3.587  18.794  0.00  0.00    +0.000 A 
ATOM      3  C   UNL     1       1.455   2.227  18.668  0.00  0.00    +0.000 A 
ATOM      4  C   UNL     1       2.773   1.807  18.556  0.00  0.00    +0.000 A 
ATOM      5  C   UNL     1       3.802   2.750  18.532  0.00  0.00    +0.000 A 
ATOM      6  C   UNL     1       3.525   4.127  18.615  0.00  0.00    +0.000 A 
ENDROOT
BRANCH   1   9
ATOM      7  O   UNL     1       2.220   6.035  21.222  0.00  0.00    +0.000 OA
ATOM      8  C   UNL     1       1.848   6.565  20.173  0.00  0.00    +0.000 C 
ATOM      9  N   UNL     1       1.863   5.922  18.947  0.00  0.00    +0.000 N 
ATOM     10  H   UNL     1       1.993   6.511  18.124  0.00  0.00    +0.000 HD
BRANCH   8  11
ATOM     11  C   UNL     1       1.366   7.981  20.249  0.00  0.00    +0.000 A 
ATOM     12  C   UNL     1       0.723   8.325  21.459  0.00  0.00    +0.000 A 
ATOM     13  C   UNL     1       0.191   9.600  21.671  0.00  0.00    +0.000 A 
ATOM     14  C   UNL     1       0.301  10.558  20.676  0.00  0.00    +0.000 A 
ATOM     15 CL   UNL     1      -0.353  12.128  20.919  0.00  0.00    +0.000 Cl
ATOM     16  C   UNL     1       0.939  10.249  19.477  0.00  0.00    +0.000 A 
ATOM     17  C   UNL     1       1.468   8.967  19.258  0.00  0.00    +0.000 A 
ATOM     18 CL   UNL     1       2.230   8.741  17.726  0.00  0.00    +0.000 Cl
ENDBRANCH   8  11
ENDBRANCH   1   9
BRANCH   6  19
ATOM     19  C   UNL     1       4.664   5.096  18.617  0.00  0.00    +0.000 C 
ATOM     20  O   UNL     1       4.614   6.141  17.975  0.00  0.00    +0.000 OA
ATOM     21  N   UNL     1       5.777   4.730  19.355  0.00  0.00    +0.000 N 
ATOM     22  H   UNL     1       5.832   3.790  19.723  0.00  0.00    +0.000 HD
BRANCH  21  23
ATOM     23  C   UNL     1       6.953   5.572  19.473  0.00  0.00    +0.000 C 
BRANCH  23  24
ATOM     24  C   UNL     1       7.738   5.688  18.168  0.00  0.00    +0.000 C 
BRANCH  24  25
ATOM     25  C   UNL     1       7.762   4.377  17.383  0.00  0.00    +0.000 C 
BRANCH  25  26
ATOM     26  N   UNL     1       7.104   4.479  16.096  0.00  0.00    +0.000 N 
ATOM     27  C   UNL     1       6.060   3.712  15.660  0.00  0.00    +0.000 A 
ATOM     28  C   UNL     1       5.733   4.227  14.429  0.00  0.00    +0.000 A 
ATOM     29  N   UNL     1       6.554   5.278  14.106  0.00  0.00    +0.000 NA
ATOM     30  C   UNL     1       7.370   5.405  15.128  0.00  0.00    +0.000 A 
ENDBRANCH  25  26
ENDBRANCH  24  25
ENDBRANCH  23  24
ENDBRANCH  21  23
ENDBRANCH   6  19
TORSDOF 7
ENDMDL
MODEL 8
REMARK VINA RESULT:      -7.5      5.029      7.996
REMARK  Name = 
REMARK  7 active torsions:
REMARK  status: ('A' for Active; 'I' for Inactive)
REMARK    1  A    between atoms: C_2  and  C_21
REMARK    2  A    between atoms: N_3  and  C_4
REMARK    3  A    between atoms: C_9  and  C_10
REMARK    4  A    between atoms: N_12  and  C_13
REMARK    5  A    between atoms: C_13  and  C_14
REMARK    6  A    between atoms: C_14  and  C_15
REMARK    7  A    between atoms: C_15  and  N_16
REMARK                            x       y       z     vdW  Elec       q    Type
REMARK                         _______ _______ _______ _____ _____    ______ ____
ROOT
ATOM      1  C   UNL     1       5.390   6.044  16.396  0.00  0.00    +0.000 A 
ATOM      2  C   UNL     1       4.831   5.397  15.281  0.00  0.00    +0.000 A 
ATOM      3  C   UNL     1       5.604   4.577  14.457  0.00  0.00    +0.000 A 
ATOM      4  C   UNL     1       6.947   4.379  14.745  0.00  0.00    +0.000 A 
ATOM      5  C   UNL     1       7.526   5.031  15.836  0.00  0.00    +0.000 A 
ATOM      6  C   UNL     1       6.769   5.895  16.649  0.00  0.00    +0.000 A 
ENDROOT
BRANCH   1   9
ATOM      7  O   UNL     1       3.113   5.184  17.871  0.00  0.00    +0.000 OA
ATOM      8  C   UNL     1       3.441   6.372  17.869  0.00  0.00    +0.000 C 
ATOM      9  N   UNL     1       4.567   6.852  17.223  0.00  0.00    +0.000 N 
ATOM     10  H   UNL     1       5.007   7.680  17.626  0.00  0.00    +0.000 HD
BRANCH   8  11
ATOM     11  C   UNL     1       2.565   7.330  18.618  0.00  0.00    +0.000 A 
ATOM     12  C   UNL     1       2.279   8.532  17.932  0.00  0.00    +0.000 A 
ATOM     13  C   UNL     1       1.501   9.538  18.509  0.00  0.00    +0.000 A 
ATOM     14  C   UNL     1       0.988   9.357  19.784  0.00  0.00    +0.000 A 
ATOM     15 CL   UNL     1       0.034  10.589  20.509  0.00  0.00    +0.000 Cl
ATOM     16  C   UNL     1       1.247   8.179  20.479  0.00  0.00    +0.000 A 
ATOM     17  C   UNL     1       2.035   7.168  19.905  0.00  0.00    +0.000 A 
ATOM     18 CL   UNL     1       2.261   5.768  20.889  0.00  0.00    +0.000 Cl
ENDBRANCH   8  11
ENDBRANCH   1   9
BRANCH   6  19
ATOM     19  C   UNL     1       7.427   6.545  17.824  0.00  0.00    +0.000 C 
ATOM     20  O   UNL     1       7.542   5.959  18.896  0.00  0.00    +0.000 OA
ATOM     21  N   UNL     1       7.867   7.845  17.636  0.00  0.00    +0.000 N 
ATOM     22  H   UNL     1       7.599   8.335  16.794  0.00  0.00    +0.000 HD
BRANCH  21  23
ATOM     23  C   UNL     1       8.544   8.602  18.673  0.00  0.00    +0.000 C 
BRANCH  23  24
ATOM     24  C   UNL     1       8.797  10.057  18.282  0.00  0.00    +0.000 C 
BRANCH  24  25
ATOM     25  C   UNL     1       9.532  10.834  19.372  0.00  0.00    +0.000 C 
BRANCH  25  26
ATOM     26  N   UNL     1      10.089  12.084  18.896  0.00  0.00    +0.000 N 
ATOM     27  C   UNL     1       9.943  12.607  17.641  0.00  0.00    +0.000 A 
ATOM     28  C   UNL     1      10.573  13.827  17.691  0.00  0.00    +0.000 A 
ATOM     29  N   UNL     1      11.100  14.053  18.938  0.00  0.00    +0.000 NA
ATOM     30  C   UNL     1      10.794  12.985  19.641  0.00  0.00    +0.000 A 
ENDBRANCH  25  26
ENDBRANCH  24  25
ENDBRANCH  23  24
ENDBRANCH  21  23
ENDBRANCH   6  19
TORSDOF 7
ENDMDL
MODEL 9
REMARK VINA RESULT:      -7.5      1.295      1.512
REMARK  Name = 
REMARK  7 active torsions:
REMARK  status: ('A' for Active; 'I' for Inactive)
REMARK    1  A    between atoms: C_2  and  C_21
REMARK    2  A    between atoms: N_3  and  C_4
REMARK    3  A    between atoms: C_9  and  C_10
REMARK    4  A    between atoms: N_12  and  C_13
REMARK    5  A    between atoms: C_13  and  C_14
REMARK    6  A    between atoms: C_14  and  C_15
REMARK    7  A    between atoms: C_15  and  N_16
REMARK                            x       y       z     vdW  Elec       q    Type
REMARK                         _______ _______ _______ _____ _____    ______ ____
ROOT
ATOM      1  C   UNL     1       2.915   3.651  19.085  0.00  0.00    +0.000 A 
ATOM      2  C   UNL     1       2.854   2.354  19.622  0.00  0.00    +0.000 A 
ATOM      3  C   UNL     1       2.069   2.069  20.740  0.00  0.00    +0.000 A 
ATOM      4  C   UNL     1       1.320   3.077  21.332  0.00  0.00    +0.000 A 
ATOM      5  C   UNL     1       1.385   4.377  20.827  0.00  0.00    +0.000 A 
ATOM      6  C   UNL     1       2.206   4.687  19.726  0.00  0.00    +0.000 A 
ENDROOT
BRANCH   1   9
ATOM      7  O   UNL     1       5.739   3.996  19.018  0.00  0.00    +0.000 OA
ATOM      8  C   UNL     1       5.074   4.107  17.986  0.00  0.00    +0.000 C 
ATOM      9  N   UNL     1       3.707   3.897  17.934  0.00  0.00    +0.000 N 
ATOM     10  H   UNL     1       3.330   3.559  17.047  0.00  0.00    +0.000 HD
BRANCH   8  11
ATOM     11  C   UNL     1       5.803   4.483  16.732  0.00  0.00    +0.000 A 
ATOM     12  C   UNL     1       5.431   3.745  15.586  0.00  0.00    +0.000 A 
ATOM     13  C   UNL     1       6.041   3.957  14.347  0.00  0.00    +0.000 A 
ATOM     14  C   UNL     1       7.031   4.920  14.231  0.00  0.00    +0.000 A 
ATOM     15 CL   UNL     1       7.794   5.188  12.715  0.00  0.00    +0.000 Cl
ATOM     16  C   UNL     1       7.411   5.669  15.342  0.00  0.00    +0.000 A 
ATOM     17  C   UNL     1       6.805   5.453  16.591  0.00  0.00    +0.000 A 
ATOM     18 CL   UNL     1       7.380   6.462  17.868  0.00  0.00    +0.000 Cl
ENDBRANCH   8  11
ENDBRANCH   1   9
BRANCH   6  19
ATOM     19  C   UNL     1       2.217   6.088  19.204  0.00  0.00    +0.000 C 
ATOM     20  O   UNL     1       2.455   6.326  18.024  0.00  0.00    +0.000 OA
ATOM     21  N   UNL     1       1.975   7.088  20.130  0.00  0.00    +0.000 N 
ATOM     22  H   UNL     1       1.952   6.851  21.112  0.00  0.00    +0.000 HD
BRANCH  21  23
ATOM     23  C   UNL     1       1.931   8.495  19.774  0.00  0.00    +0.000 C 
BRANCH  23  24
ATOM     24  C   UNL     1       0.793   9.250  20.458  0.00  0.00    +0.000 C 
BRANCH  24  25
ATOM     25  C   UNL     1       0.032  10.157  19.494  0.00  0.00    +0.000 C 
BRANCH  25  26
ATOM     26  N   UNL     1      -0.543  11.317  20.145  0.00  0.00    +0.000 N 
ATOM     27  C   UNL     1       0.020  12.031  21.166  0.00  0.00    +0.000 A 
ATOM     28  C   UNL     1      -0.849  13.072  21.389  0.00  0.00    +0.000 A 
ATOM     29  N   UNL     1      -1.922  13.003  20.536  0.00  0.00    +0.000 NA
ATOM     30  C   UNL     1      -1.711  11.935  19.801  0.00  0.00    +0.000 A 
ENDBRANCH  25  26
ENDBRANCH  24  25
ENDBRANCH  23  24
ENDBRANCH  21  23
ENDBRANCH   6  19
TORSDOF 7
ENDMDL
