MODEL 1
REMARK VINA RESULT:      -6.0      0.000      0.000
REMARK  Name = 
REMARK  10 active torsions:
REMARK  status: ('A' for Active; 'I' for Inactive)
REMARK    1  A    between atoms: C_2  and  O_3
REMARK    2  A    between atoms: C_2  and  C_4
REMARK    3  A    between atoms: C_4  and  C_5
REMARK    4  A    between atoms: C_5  and  C_6
REMARK    5  A    between atoms: C_6  and  C_7
REMARK    6  A    between atoms: C_7  and  C_8
REMARK    7  A    between atoms: C_8  and  C_9
REMARK    8  A    between atoms: C_9  and  C_10
REMARK    9  A    between atoms: C_10  and  N_11
REMARK   10  A    between atoms: C_12  and  C_14
REMARK                            x       y       z     vdW  Elec       q    Type
REMARK                         _______ _______ _______ _____ _____    ______ ____
ROOT
ATOM      1  C   UNL     1       2.728   6.537  19.538  0.00  0.00    +0.000 C 
ENDROOT
BRANCH   1   2
ATOM      2  N   UNL     1       3.740   5.884  18.744  0.00  0.00    +0.000 N 
ATOM      3  C   UNL     1       4.322   6.520  17.672  0.00  0.00    +0.000 C 
ATOM      4  O   UNL     1       4.137   7.709  17.422  0.00  0.00    +0.000 OA
ATOM      5  H   UNL     1       3.775   4.872  18.769  0.00  0.00    +0.000 HD
BRANCH   3   6
ATOM      6  C   UNL     1       5.272   5.726  16.847  0.00  0.00    +0.000 A 
ATOM      7  C   UNL     1       4.785   5.360  15.577  0.00  0.00    +0.000 A 
ATOM      8  C   UNL     1       5.572   4.632  14.684  0.00  0.00    +0.000 A 
ATOM      9  C   UNL     1       6.858   4.255  15.049  0.00  0.00    +0.000 A 
ATOM     10  C   UNL     1       7.354   4.600  16.307  0.00  0.00    +0.000 A 
ATOM     11  C   UNL     1       6.569   5.329  17.214  0.00  0.00    +0.000 A 
ATOM     12  I   UNL     1       7.469   5.663  19.088  0.00  0.00    +0.000 I 
ENDBRANCH   3   6
ENDBRANCH   1   2
BRANCH   1  13
ATOM     13  C   UNL     1       1.733   5.521  20.089  0.00  0.00    +0.000 C 
BRANCH  13  14
ATOM     14  C   UNL     1       2.374   4.576  21.104  0.00  0.00    +0.000 C 
BRANCH  14  15
ATOM     15  C   UNL     1       1.724   3.195  21.090  0.00  0.00    +0.000 C 
BRANCH  15  16
ATOM     16  C   UNL     1       0.602   3.103  20.061  0.00  0.00    +0.000 C 
BRANCH  16  17
ATOM     17  C   UNL     1       0.963   2.076  18.987  0.00  0.00    +0.000 C 
BRANCH  17  18
ATOM     18  C   UNL     1       2.472   1.893  18.869  0.00  0.00    +0.000 C 
BRANCH  18  20
ATOM     19  O   UNL     1       2.387   3.413  16.974  0.00  0.00    +0.000 OA
ATOM     20  C   UNL     1       3.026   2.664  17.695  0.00  0.00    +0.000 C 
BRANCH  20  21
ATOM     21  O   UNL     1       4.350   2.442  17.509  0.00  0.00    +0.000 OA
ATOM     22  H   UNL     1       4.847   3.235  17.236  0.00  0.00    +0.000 HD
ENDBRANCH  20  21
ENDBRANCH  18  20
ENDBRANCH  17  18
ENDBRANCH  16  17
ENDBRANCH  15  16
ENDBRANCH  14  15
ENDBRANCH  13  14
ENDBRANCH   1  13
TORSDOF 10
ENDMDL
MODEL 2
REMARK VINA RESULT:      -6.0      4.140      7.747
REMARK  Name = 
REMARK  10 active torsions:
REMARK  status: ('A' for Active; 'I' for Inactive)
REMARK    1  A    between atoms: C_2  and  O_3
REMARK    2  A    between atoms: C_2  and  C_4
REMARK    3  A    between atoms: C_4  and  C_5
REMARK    4  A    between atoms: C_5  and  C_6
REMARK    5  A    between atoms: C_6  and  C_7
REMARK    6  A    between atoms: C_7  and  C_8
REMARK    7  A    between atoms: C_8  and  C_9
REMARK    8  A    between atoms: C_9  and  C_10
REMARK    9  A    between atoms: C_10  and  N_11
REMARK   10  A    between atoms: C_12  and  C_14
REMARK                            x       y       z     vdW  Elec       q    Type
REMARK                         _______ _______ _______ _____ _____    ______ ____
ROOT
ATOM      1  C   UNL     1       7.295   4.441  17.779  0.00  0.00    +0.000 C 
ENDROOT
BRANCH   1   2
ATOM      2  N   UNL     1       6.000   3.988  18.223  0.00  0.00    +0.000 N 
ATOM      3  C   UNL     1       4.918   3.987  17.375  0.00  0.00    +0.000 C 
ATOM      4  O   UNL     1       5.015   4.217  16.172  0.00  0.00    +0.000 OA
ATOM      5  H   UNL     1       5.819   3.992  19.220  0.00  0.00    +0.000 HD
BRANCH   3   6
ATOM      6  C   UNL     1       3.602   3.609  17.955  0.00  0.00    +0.000 A 
ATOM      7  C   UNL     1       3.352   2.223  17.995  0.00  0.00    +0.000 A 
ATOM      8  C   UNL     1       2.168   1.718  18.533  0.00  0.00    +0.000 A 
ATOM      9  C   UNL     1       1.212   2.591  19.035  0.00  0.00    +0.000 A 
ATOM     10  C   UNL     1       1.436   3.968  18.994  0.00  0.00    +0.000 A 
ATOM     11  C   UNL     1       2.623   4.486  18.452  0.00  0.00    +0.000 A 
ATOM     12  I   UNL     1       2.723   6.589  18.399  0.00  0.00    +0.000 I 
ENDBRANCH   3   6
ENDBRANCH   1   2
BRANCH   1  13
ATOM     13  C   UNL     1       7.688   5.735  18.485  0.00  0.00    +0.000 C 
BRANCH  13  14
ATOM     14  C   UNL     1       6.927   6.944  17.943  0.00  0.00    +0.000 C 
BRANCH  14  15
ATOM     15  C   UNL     1       7.867   8.004  17.375  0.00  0.00    +0.000 C 
BRANCH  15  16
ATOM     16  C   UNL     1       8.503   8.850  18.473  0.00  0.00    +0.000 C 
BRANCH  16  17
ATOM     17  C   UNL     1       8.447  10.329  18.091  0.00  0.00    +0.000 C 
BRANCH  17  18
ATOM     18  C   UNL     1       9.831  10.967  18.111  0.00  0.00    +0.000 C 
BRANCH  18  20
ATOM     19  O   UNL     1       9.940  13.052  19.357  0.00  0.00    +0.000 OA
ATOM     20  C   UNL     1       9.741  12.462  18.308  0.00  0.00    +0.000 C 
BRANCH  20  21
ATOM     21  O   UNL     1       9.407  13.114  17.168  0.00  0.00    +0.000 OA
ATOM     22  H   UNL     1       8.446  13.185  17.023  0.00  0.00    +0.000 HD
ENDBRANCH  20  21
ENDBRANCH  18  20
ENDBRANCH  17  18
ENDBRANCH  16  17
ENDBRANCH  15  16
ENDBRANCH  14  15
ENDBRANCH  13  14
ENDBRANCH   1  13
TORSDOF 10
ENDMDL
MODEL 3
REMARK VINA RESULT:      -5.9      1.867      3.801
REMARK  Name = 
REMARK  10 active torsions:
REMARK  status: ('A' for Active; 'I' for Inactive)
REMARK    1  A    between atoms: C_2  and  O_3
REMARK    2  A    between atoms: C_2  and  C_4
REMARK    3  A    between atoms: C_4  and  C_5
REMARK    4  A    between atoms: C_5  and  C_6
REMARK    5  A    between atoms: C_6  and  C_7
REMARK    6  A    between atoms: C_7  and  C_8
REMARK    7  A    between atoms: C_8  and  C_9
REMARK    8  A    between atoms: C_9  and  C_10
REMARK    9  A    between atoms: C_10  and  N_11
REMARK   10  A    between atoms: C_12  and  C_14
REMARK                            x       y       z     vdW  Elec       q    Type
REMARK                         _______ _______ _______ _____ _____    ______ ____
ROOT
ATOM      1  C   UNL     1       3.122   1.545  18.371  0.00  0.00    +0.000 C 
ENDROOT
BRANCH   1   2
ATOM      2  N   UNL     1       4.212   2.480  18.491  0.00  0.00    +0.000 N 
ATOM      3  C   UNL     1       4.294   3.585  17.676  0.00  0.00    +0.000 C 
ATOM      4  O   UNL     1       3.387   3.923  16.919  0.00  0.00    +0.000 OA
ATOM      5  H   UNL     1       5.065   2.153  18.930  0.00  0.00    +0.000 HD
BRANCH   3   6
ATOM      6  C   UNL     1       5.512   4.430  17.799  0.00  0.00    +0.000 A 
ATOM      7  C   UNL     1       5.797   4.866  19.109  0.00  0.00    +0.000 A 
ATOM      8  C   UNL     1       6.920   5.647  19.382  0.00  0.00    +0.000 A 
ATOM      9  C   UNL     1       7.774   6.010  18.348  0.00  0.00    +0.000 A 
ATOM     10  C   UNL     1       7.503   5.598  17.043  0.00  0.00    +0.000 A 
ATOM     11  C   UNL     1       6.374   4.814  16.757  0.00  0.00    +0.000 A 
ATOM     12  I   UNL     1       6.096   4.379  14.716  0.00  0.00    +0.000 I 
ENDBRANCH   3   6
ENDBRANCH   1   2
BRANCH   1  13
ATOM     13  C   UNL     1       2.197   1.632  19.580  0.00  0.00    +0.000 C 
BRANCH  13  14
ATOM     14  C   UNL     1       1.244   2.824  19.494  0.00  0.00    +0.000 C 
BRANCH  14  15
ATOM     15  C   UNL     1       1.258   3.662  20.769  0.00  0.00    +0.000 C 
BRANCH  15  16
ATOM     16  C   UNL     1       1.099   5.150  20.475  0.00  0.00    +0.000 C 
BRANCH  16  17
ATOM     17  C   UNL     1       2.358   5.684  19.792  0.00  0.00    +0.000 C 
BRANCH  17  18
ATOM     18  C   UNL     1       2.335   7.205  19.682  0.00  0.00    +0.000 C 
BRANCH  18  20
ATOM     19  O   UNL     1       1.720   8.469  17.699  0.00  0.00    +0.000 OA
ATOM     20  C   UNL     1       2.442   7.650  18.242  0.00  0.00    +0.000 C 
BRANCH  20  21
ATOM     21  O   UNL     1       3.453   7.033  17.585  0.00  0.00    +0.000 OA
ATOM     22  H   UNL     1       3.658   7.428  16.718  0.00  0.00    +0.000 HD
ENDBRANCH  20  21
ENDBRANCH  18  20
ENDBRANCH  17  18
ENDBRANCH  16  17
ENDBRANCH  15  16
ENDBRANCH  14  15
ENDBRANCH  13  14
ENDBRANCH   1  13
TORSDOF 10
ENDMDL
MODEL 4
REMARK VINA RESULT:      -5.9      2.190      4.089
REMARK  Name = 
REMARK  10 active torsions:
REMARK  status: ('A' for Active; 'I' for Inactive)
REMARK    1  A    between atoms: C_2  and  O_3
REMARK    2  A    between atoms: C_2  and  C_4
REMARK    3  A    between atoms: C_4  and  C_5
REMARK    4  A    between atoms: C_5  and  C_6
REMARK    5  A    between atoms: C_6  and  C_7
REMARK    6  A    between atoms: C_7  and  C_8
REMARK    7  A    between atoms: C_8  and  C_9
REMARK    8  A    between atoms: C_9  and  C_10
REMARK    9  A    between atoms: C_10  and  N_11
REMARK   10  A    between atoms: C_12  and  C_14
REMARK                            x       y       z     vdW  Elec       q    Type
REMARK                         _______ _______ _______ _____ _____    ______ ____
ROOT
ATOM      1  C   UNL     1       1.547   3.815  17.597  0.00  0.00    +0.000 C 
ENDROOT
BRANCH   1   2
ATOM      2  N   UNL     1       2.835   4.462  17.630  0.00  0.00    +0.000 N 
ATOM      3  C   UNL     1       4.000   3.730  17.621  0.00  0.00    +0.000 C 
ATOM      4  O   UNL     1       4.021   2.516  17.432  0.00  0.00    +0.000 OA
ATOM      5  H   UNL     1       2.875   5.409  17.990  0.00  0.00    +0.000 HD
BRANCH   3   6
ATOM      6  C   UNL     1       5.274   4.481  17.772  0.00  0.00    +0.000 A 
ATOM      7  C   UNL     1       5.547   4.921  19.082  0.00  0.00    +0.000 A 
ATOM      8  C   UNL     1       6.718   5.619  19.380  0.00  0.00    +0.000 A 
ATOM      9  C   UNL     1       7.632   5.895  18.371  0.00  0.00    +0.000 A 
ATOM     10  C   UNL     1       7.373   5.477  17.065  0.00  0.00    +0.000 A 
ATOM     11  C   UNL     1       6.198   4.777  16.754  0.00  0.00    +0.000 A 
ATOM     12  I   UNL     1       5.956   4.322  14.712  0.00  0.00    +0.000 I 
ENDBRANCH   3   6
ENDBRANCH   1   2
BRANCH   1  13
ATOM     13  C   UNL     1       1.480   2.690  18.625  0.00  0.00    +0.000 C 
BRANCH  13  14
ATOM     14  C   UNL     1       0.638   3.069  19.842  0.00  0.00    +0.000 C 
BRANCH  14  15
ATOM     15  C   UNL     1       1.478   3.164  21.113  0.00  0.00    +0.000 C 
BRANCH  15  16
ATOM     16  C   UNL     1       2.344   4.419  21.132  0.00  0.00    +0.000 C 
BRANCH  16  17
ATOM     17  C   UNL     1       1.475   5.656  20.898  0.00  0.00    +0.000 C 
BRANCH  17  18
ATOM     18  C   UNL     1       2.235   6.742  20.145  0.00  0.00    +0.000 C 
BRANCH  18  20
ATOM     19  O   UNL     1       1.248   8.911  19.666  0.00  0.00    +0.000 OA
ATOM     20  C   UNL     1       1.696   8.114  20.473  0.00  0.00    +0.000 C 
BRANCH  20  21
ATOM     21  O   UNL     1       1.756   8.389  21.799  0.00  0.00    +0.000 OA
ATOM     22  H   UNL     1       2.664   8.471  22.143  0.00  0.00    +0.000 HD
ENDBRANCH  20  21
ENDBRANCH  18  20
ENDBRANCH  17  18
ENDBRANCH  16  17
ENDBRANCH  15  16
ENDBRANCH  14  15
ENDBRANCH  13  14
ENDBRANCH   1  13
TORSDOF 10
ENDMDL
MODEL 5
REMARK VINA RESULT:      -5.9      2.451      5.928
REMARK  Name = 
REMARK  10 active torsions:
REMARK  status: ('A' for Active; 'I' for Inactive)
REMARK    1  A    between atoms: C_2  and  O_3
REMARK    2  A    between atoms: C_2  and  C_4
REMARK    3  A    between atoms: C_4  and  C_5
REMARK    4  A    between atoms: C_5  and  C_6
REMARK    5  A    between atoms: C_6  and  C_7
REMARK    6  A    between atoms: C_7  and  C_8
REMARK    7  A    between atoms: C_8  and  C_9
REMARK    8  A    between atoms: C_9  and  C_10
REMARK    9  A    between atoms: C_10  and  N_11
REMARK   10  A    between atoms: C_12  and  C_14
REMARK                            x       y       z     vdW  Elec       q    Type
REMARK                         _______ _______ _______ _____ _____    ______ ____
ROOT
ATOM      1  C   UNL     1       7.124   4.602  18.430  0.00  0.00    +0.000 C 
ENDROOT
BRANCH   1   2
ATOM      2  N   UNL     1       5.947   4.416  19.242  0.00  0.00    +0.000 N 
ATOM      3  C   UNL     1       4.797   3.876  18.714  0.00  0.00    +0.000 C 
ATOM      4  O   UNL     1       4.747   3.388  17.588  0.00  0.00    +0.000 OA
ATOM      5  H   UNL     1       5.864   4.975  20.083  0.00  0.00    +0.000 HD
BRANCH   3   6
ATOM      6  C   UNL     1       3.603   3.828  19.599  0.00  0.00    +0.000 A 
ATOM      7  C   UNL     1       3.471   2.640  20.345  0.00  0.00    +0.000 A 
ATOM      8  C   UNL     1       2.411   2.461  21.235  0.00  0.00    +0.000 A 
ATOM      9  C   UNL     1       1.463   3.464  21.389  0.00  0.00    +0.000 A 
ATOM     10  C   UNL     1       1.571   4.643  20.650  0.00  0.00    +0.000 A 
ATOM     11  C   UNL     1       2.631   4.832  19.750  0.00  0.00    +0.000 A 
ATOM     12  I   UNL     1       2.557   6.637  18.667  0.00  0.00    +0.000 I 
ENDBRANCH   3   6
ENDBRANCH   1   2
BRANCH   1  13
ATOM     13  C   UNL     1       8.015   5.695  19.011  0.00  0.00    +0.000 C 
BRANCH  13  14
ATOM     14  C   UNL     1       7.754   7.057  18.367  0.00  0.00    +0.000 C 
BRANCH  14  15
ATOM     15  C   UNL     1       7.323   6.928  16.909  0.00  0.00    +0.000 C 
BRANCH  15  16
ATOM     16  C   UNL     1       5.808   7.004  16.753  0.00  0.00    +0.000 C 
BRANCH  16  17
ATOM     17  C   UNL     1       5.409   6.607  15.331  0.00  0.00    +0.000 C 
BRANCH  17  18
ATOM     18  C   UNL     1       5.398   5.093  15.153  0.00  0.00    +0.000 C 
BRANCH  18  20
ATOM     19  O   UNL     1       7.560   5.292  14.059  0.00  0.00    +0.000 OA
ATOM     20  C   UNL     1       6.562   4.634  14.308  0.00  0.00    +0.000 C 
BRANCH  20  21
ATOM     21  O   UNL     1       6.393   3.376  13.834  0.00  0.00    +0.000 OA
ATOM     22  H   UNL     1       5.460   3.129  13.698  0.00  0.00    +0.000 HD
ENDBRANCH  20  21
ENDBRANCH  18  20
ENDBRANCH  17  18
ENDBRANCH  16  17
ENDBRANCH  15  16
ENDBRANCH  14  15
ENDBRANCH  13  14
ENDBRANCH   1  13
TORSDOF 10
ENDMDL
MODEL 6
REMARK VINA RESULT:      -5.8      2.756      5.683
REMARK  Name = 
REMARK  10 active torsions:
REMARK  status: ('A' for Active; 'I' for Inactive)
REMARK    1  A    between atoms: C_2  and  O_3
REMARK    2  A    between atoms: C_2  and  C_4
REMARK    3  A    between atoms: C_4  and  C_5
REMARK    4  A    between atoms: C_5  and  C_6
REMARK    5  A    between atoms: C_6  and  C_7
REMARK    6  A    between atoms: C_7  and  C_8
REMARK    7  A    between atoms: C_8  and  C_9
REMARK    8  A    between atoms: C_9  and  C_10
REMARK    9  A    between atoms: C_10  and  N_11
REMARK   10  A    between atoms: C_12  and  C_14
REMARK                            x       y       z     vdW  Elec       q    Type
REMARK                         _______ _______ _______ _____ _____    ______ ____
ROOT
ATOM      1  C   UNL     1       6.686   5.962  18.926  0.00  0.00    +0.000 C 
ENDROOT
BRANCH   1   2
ATOM      2  N   UNL     1       5.579   5.038  18.899  0.00  0.00    +0.000 N 
ATOM      3  C   UNL     1       4.377   5.385  18.329  0.00  0.00    +0.000 C 
ATOM      4  O   UNL     1       4.219   6.420  17.685  0.00  0.00    +0.000 OA
ATOM      5  H   UNL     1       5.581   4.284  19.576  0.00  0.00    +0.000 HD
BRANCH   3   6
ATOM      6  C   UNL     1       3.262   4.408  18.450  0.00  0.00    +0.000 A 
ATOM      7  C   UNL     1       3.339   3.315  17.564  0.00  0.00    +0.000 A 
ATOM      8  C   UNL     1       2.376   2.305  17.577  0.00  0.00    +0.000 A 
ATOM      9  C   UNL     1       1.316   2.376  18.472  0.00  0.00    +0.000 A 
ATOM     10  C   UNL     1       1.216   3.457  19.350  0.00  0.00    +0.000 A 
ATOM     11  C   UNL     1       2.179   4.479  19.342  0.00  0.00    +0.000 A 
ATOM     12  I   UNL     1       1.793   6.062  20.676  0.00  0.00    +0.000 I 
ENDBRANCH   3   6
ENDBRANCH   1   2
BRANCH   1  13
ATOM     13  C   UNL     1       7.439   5.944  17.600  0.00  0.00    +0.000 C 
BRANCH  13  14
ATOM     14  C   UNL     1       7.381   4.577  16.920  0.00  0.00    +0.000 C 
BRANCH  14  15
ATOM     15  C   UNL     1       7.094   4.692  15.426  0.00  0.00    +0.000 C 
BRANCH  15  16
ATOM     16  C   UNL     1       6.130   3.612  14.945  0.00  0.00    +0.000 C 
BRANCH  16  17
ATOM     17  C   UNL     1       5.347   4.113  13.732  0.00  0.00    +0.000 C 
BRANCH  17  18
ATOM     18  C   UNL     1       6.021   3.715  12.424  0.00  0.00    +0.000 C 
BRANCH  18  20
ATOM     19  O   UNL     1       4.117   2.890  11.157  0.00  0.00    +0.000 OA
ATOM     20  C   UNL     1       5.202   2.689  11.678  0.00  0.00    +0.000 C 
BRANCH  20  21
ATOM     21  O   UNL     1       5.806   1.476  11.636  0.00  0.00    +0.000 OA
ATOM     22  H   UNL     1       6.774   1.515  11.747  0.00  0.00    +0.000 HD
ENDBRANCH  20  21
ENDBRANCH  18  20
ENDBRANCH  17  18
ENDBRANCH  16  17
ENDBRANCH  15  16
ENDBRANCH  14  15
ENDBRANCH  13  14
ENDBRANCH   1  13
TORSDOF 10
ENDMDL
MODEL 7
REMARK VINA RESULT:      -5.7      5.054      8.407
REMARK  Name = 
REMARK  10 active torsions:
REMARK  status: ('A' for Active; 'I' for Inactive)
REMARK    1  A    between atoms: C_2  and  O_3
REMARK    2  A    between atoms: C_2  and  C_4
REMARK    3  A    between atoms: C_4  and  C_5
REMARK    4  A    between atoms: C_5  and  C_6
REMARK    5  A    between atoms: C_6  and  C_7
REMARK    6  A    between atoms: C_7  and  C_8
REMARK    7  A    between atoms: C_8  and  C_9
REMARK    8  A    between atoms: C_9  and  C_10
REMARK    9  A    between atoms: C_10  and  N_11
REMARK   10  A    between atoms: C_12  and  C_14
REMARK                            x       y       z     vdW  Elec       q    Type
REMARK                         _______ _______ _______ _____ _____    ______ ____
ROOT
ATOM      1  C   UNL     1       7.281   5.939  17.197  0.00  0.00    +0.000 C 
ENDROOT
BRANCH   1   2
ATOM      2  N   UNL     1       6.062   5.321  17.657  0.00  0.00    +0.000 N 
ATOM      3  C   UNL     1       5.080   4.940  16.772  0.00  0.00    +0.000 C 
ATOM      4  O   UNL     1       5.239   4.959  15.553  0.00  0.00    +0.000 OA
ATOM      5  H   UNL     1       5.794   5.472  18.622  0.00  0.00    +0.000 HD
BRANCH   3   6
ATOM      6  C   UNL     1       3.814   4.415  17.348  0.00  0.00    +0.000 A 
ATOM      7  C   UNL     1       3.644   3.022  17.226  0.00  0.00    +0.000 A 
ATOM      8  C   UNL     1       2.515   2.384  17.739  0.00  0.00    +0.000 A 
ATOM      9  C   UNL     1       1.534   3.130  18.380  0.00  0.00    +0.000 A 
ATOM     10  C   UNL     1       1.679   4.513  18.501  0.00  0.00    +0.000 A 
ATOM     11  C   UNL     1       2.810   5.165  17.985  0.00  0.00    +0.000 A 
ATOM     12  I   UNL     1       2.789   7.260  18.189  0.00  0.00    +0.000 I 
ENDBRANCH   3   6
ENDBRANCH   1   2
BRANCH   1  13
ATOM     13  C   UNL     1       7.805   6.934  18.227  0.00  0.00    +0.000 C 
BRANCH  13  14
ATOM     14  C   UNL     1       7.835   8.364  17.688  0.00  0.00    +0.000 C 
BRANCH  14  15
ATOM     15  C   UNL     1       8.673   9.289  18.566  0.00  0.00    +0.000 C 
BRANCH  15  16
ATOM     16  C   UNL     1       8.868  10.660  17.926  0.00  0.00    +0.000 C 
BRANCH  16  17
ATOM     17  C   UNL     1      10.143  11.310  18.463  0.00  0.00    +0.000 C 
BRANCH  17  18
ATOM     18  C   UNL     1       9.873  12.705  19.015  0.00  0.00    +0.000 C 
BRANCH  18  20
ATOM     19  O   UNL     1      11.175  14.713  18.589  0.00  0.00    +0.000 OA
ATOM     20  C   UNL     1      10.534  13.765  18.166  0.00  0.00    +0.000 C 
BRANCH  20  21
ATOM     21  O   UNL     1      10.343  13.559  16.840  0.00  0.00    +0.000 OA
ATOM     22  H   UNL     1      10.825  12.788  16.489  0.00  0.00    +0.000 HD
ENDBRANCH  20  21
ENDBRANCH  18  20
ENDBRANCH  17  18
ENDBRANCH  16  17
ENDBRANCH  15  16
ENDBRANCH  14  15
ENDBRANCH  13  14
ENDBRANCH   1  13
TORSDOF 10
ENDMDL
MODEL 8
REMARK VINA RESULT:      -5.6      4.179      6.601
REMARK  Name = 
REMARK  10 active torsions:
REMARK  status: ('A' for Active; 'I' for Inactive)
REMARK    1  A    between atoms: C_2  and  O_3
REMARK    2  A    between atoms: C_2  and  C_4
REMARK    3  A    between atoms: C_4  and  C_5
REMARK    4  A    between atoms: C_5  and  C_6
REMARK    5  A    between atoms: C_6  and  C_7
REMARK    6  A    between atoms: C_7  and  C_8
REMARK    7  A    between atoms: C_8  and  C_9
REMARK    8  A    between atoms: C_9  and  C_10
REMARK    9  A    between atoms: C_10  and  N_11
REMARK   10  A    between atoms: C_12  and  C_14
REMARK                            x       y       z     vdW  Elec       q    Type
REMARK                         _______ _______ _______ _____ _____    ______ ____
ROOT
ATOM      1  C   UNL     1       2.715   7.500  18.350  0.00  0.00    +0.000 C 
ENDROOT
BRANCH   1   2
ATOM      2  N   UNL     1       1.985   8.071  19.454  0.00  0.00    +0.000 N 
ATOM      3  C   UNL     1       1.131   9.134  19.269  0.00  0.00    +0.000 C 
ATOM      4  O   UNL     1       0.823   9.554  18.156  0.00  0.00    +0.000 OA
ATOM      5  H   UNL     1       2.348   7.914  20.387  0.00  0.00    +0.000 HD
BRANCH   3   6
ATOM      6  C   UNL     1       0.511   9.725  20.484  0.00  0.00    +0.000 A 
ATOM      7  C   UNL     1       0.074   8.786  21.439  0.00  0.00    +0.000 A 
ATOM      8  C   UNL     1      -0.507   9.194  22.640  0.00  0.00    +0.000 A 
ATOM      9  C   UNL     1      -0.667  10.548  22.903  0.00  0.00    +0.000 A 
ATOM     10  C   UNL     1      -0.251  11.494  21.964  0.00  0.00    +0.000 A 
ATOM     11  C   UNL     1       0.333  11.093  20.752  0.00  0.00    +0.000 A 
ATOM     12  I   UNL     1       0.803  12.670  19.437  0.00  0.00    +0.000 I 
ENDBRANCH   3   6
ENDBRANCH   1   2
BRANCH   1  13
ATOM     13  C   UNL     1       3.268   6.127  18.718  0.00  0.00    +0.000 C 
BRANCH  13  14
ATOM     14  C   UNL     1       3.120   5.119  17.579  0.00  0.00    +0.000 C 
BRANCH  14  15
ATOM     15  C   UNL     1       1.887   4.237  17.752  0.00  0.00    +0.000 C 
BRANCH  15  16
ATOM     16  C   UNL     1       2.238   2.874  18.338  0.00  0.00    +0.000 C 
BRANCH  16  17
ATOM     17  C   UNL     1       1.194   2.468  19.378  0.00  0.00    +0.000 C 
BRANCH  17  18
ATOM     18  C   UNL     1       0.954   3.578  20.395  0.00  0.00    +0.000 C 
BRANCH  18  20
ATOM     19  O   UNL     1       2.496   2.671  22.041  0.00  0.00    +0.000 OA
ATOM     20  C   UNL     1       2.061   3.628  21.421  0.00  0.00    +0.000 C 
BRANCH  20  21
ATOM     21  O   UNL     1       2.548   4.880  21.596  0.00  0.00    +0.000 OA
ATOM     22  H   UNL     1       3.467   4.904  21.919  0.00  0.00    +0.000 HD
ENDBRANCH  20  21
ENDBRANCH  18  20
ENDBRANCH  17  18
ENDBRANCH  16  17
ENDBRANCH  15  16
ENDBRANCH  14  15
ENDBRANCH  13  14
ENDBRANCH   1  13
TORSDOF 10
ENDMDL
MODEL 9
REMARK VINA RESULT:      -5.6      4.114      7.651
REMARK  Name = 
REMARK  10 active torsions:
REMARK  status: ('A' for Active; 'I' for Inactive)
REMARK    1  A    between atoms: C_2  and  O_3
REMARK    2  A    between atoms: C_2  and  C_4
REMARK    3  A    between atoms: C_4  and  C_5
REMARK    4  A    between atoms: C_5  and  C_6
REMARK    5  A    between atoms: C_6  and  C_7
REMARK    6  A    between atoms: C_7  and  C_8
REMARK    7  A    between atoms: C_8  and  C_9
REMARK    8  A    between atoms: C_9  and  C_10
REMARK    9  A    between atoms: C_10  and  N_11
REMARK   10  A    between atoms: C_12  and  C_14
REMARK                            x       y       z     vdW  Elec       q    Type
REMARK                         _______ _______ _______ _____ _____    ______ ____
ROOT
ATOM      1  C   UNL     1       6.853   4.681  16.892  0.00  0.00    +0.000 C 
ENDROOT
BRANCH   1   2
ATOM      2  N   UNL     1       5.460   4.451  17.186  0.00  0.00    +0.000 N 
ATOM      3  C   UNL     1       5.064   3.954  18.405  0.00  0.00    +0.000 C 
ATOM      4  O   UNL     1       5.834   3.824  19.354  0.00  0.00    +0.000 OA
ATOM      5  H   UNL     1       4.828   4.339  16.402  0.00  0.00    +0.000 HD
BRANCH   3   6
ATOM      6  C   UNL     1       3.619   3.644  18.574  0.00  0.00    +0.000 A 
ATOM      7  C   UNL     1       3.293   2.278  18.464  0.00  0.00    +0.000 A 
ATOM      8  C   UNL     1       1.980   1.833  18.621  0.00  0.00    +0.000 A 
ATOM      9  C   UNL     1       0.970   2.749  18.886  0.00  0.00    +0.000 A 
ATOM     10  C   UNL     1       1.272   4.108  18.988  0.00  0.00    +0.000 A 
ATOM     11  C   UNL     1       2.589   4.566  18.828  0.00  0.00    +0.000 A 
ATOM     12  I   UNL     1       2.814   6.657  18.926  0.00  0.00    +0.000 I 
ENDBRANCH   3   6
ENDBRANCH   1   2
BRANCH   1  13
ATOM     13  C   UNL     1       7.195   6.162  17.018  0.00  0.00    +0.000 C 
BRANCH  13  14
ATOM     14  C   UNL     1       7.496   6.565  18.461  0.00  0.00    +0.000 C 
BRANCH  14  15
ATOM     15  C   UNL     1       8.485   7.726  18.537  0.00  0.00    +0.000 C 
BRANCH  15  16
ATOM     16  C   UNL     1       7.916   9.000  17.921  0.00  0.00    +0.000 C 
BRANCH  16  17
ATOM     17  C   UNL     1       8.901  10.154  18.108  0.00  0.00    +0.000 C 
BRANCH  17  18
ATOM     18  C   UNL     1       9.211  10.394  19.581  0.00  0.00    +0.000 C 
BRANCH  18  20
ATOM     19  O   UNL     1       9.246  12.807  19.283  0.00  0.00    +0.000 OA
ATOM     20  C   UNL     1       9.697  11.805  19.814  0.00  0.00    +0.000 C 
BRANCH  20  21
ATOM     21  O   UNL     1      10.719  11.860  20.702  0.00  0.00    +0.000 OA
ATOM     22  H   UNL     1      10.471  12.239  21.565  0.00  0.00    +0.000 HD
ENDBRANCH  20  21
ENDBRANCH  18  20
ENDBRANCH  17  18
ENDBRANCH  16  17
ENDBRANCH  15  16
ENDBRANCH  14  15
ENDBRANCH  13  14
ENDBRANCH   1  13
TORSDOF 10
ENDMDL
