MODEL 1
REMARK VINA RESULT:      -8.6      0.000      0.000
REMARK  Name = 
REMARK  6 active torsions:
REMARK  status: ('A' for Active; 'I' for Inactive)
REMARK    1  A    between atoms: C_1  and  O_2
REMARK    2  A    between atoms: O_2  and  C_3
REMARK    3  A    between atoms: C_3  and  C_5
REMARK    4  A    between atoms: C_5  and  N_6
REMARK    5  A    between atoms: C_8  and  C_9
REMARK    6  A    between atoms: C_12  and  C_13
REMARK                            x       y       z     vdW  Elec       q    Type
REMARK                         _______ _______ _______ _____ _____    ______ ____
ROOT
ATOM      1  N   UNL     1       5.035   5.543  16.626  0.00  0.00    +0.000 N 
ATOM      2  N   UNL     1       4.265   6.520  17.211  0.00  0.00    +0.000 NA
ATOM      3  C   UNL     1       3.192   6.189  17.873  0.00  0.00    +0.000 A 
ATOM      4  C   UNL     1       2.728   4.774  17.966  0.00  0.00    +0.000 A 
ATOM      5  C   UNL     1       1.500   4.375  18.519  0.00  0.00    +0.000 A 
ATOM      6  C   UNL     1       1.198   3.021  18.692  0.00  0.00    +0.000 A 
ATOM      7  C   UNL     1       2.085   2.048  18.248  0.00  0.00    +0.000 A 
ATOM      8  C   UNL     1       3.259   2.431  17.605  0.00  0.00    +0.000 A 
ATOM      9  C   UNL     1       3.573   3.792  17.463  0.00  0.00    +0.000 A 
ATOM     10  C   UNL     1       4.790   4.182  16.737  0.00  0.00    +0.000 A 
ATOM     11  O   UNL     1       5.513   3.316  16.247  0.00  0.00    +0.000 OA
ENDROOT
BRANCH   3  12
ATOM     12  C   UNL     1       2.453   7.305  18.560  0.00  0.00    +0.000 A 
ATOM     13  C   UNL     1       2.026   8.410  17.812  0.00  0.00    +0.000 A 
ATOM     14  C   UNL     1       1.303   9.443  18.421  0.00  0.00    +0.000 A 
ATOM     15  C   UNL     1       0.990   9.385  19.784  0.00  0.00    +0.000 A 
ATOM     16  C   UNL     1       0.180  10.456  20.450  0.00  0.00    +0.000 C 
ATOM     17  C   UNL     1       1.448   8.300  20.537  0.00  0.00    +0.000 A 
ATOM     18  C   UNL     1       2.217   7.298  19.940  0.00  0.00    +0.000 A 
ENDBRANCH   3  12
BRANCH   1  19
ATOM     19  C   UNL     1       6.278   5.972  15.995  0.00  0.00    +0.000 C 
BRANCH  19  20
ATOM     20  C   UNL     1       7.228   6.562  17.026  0.00  0.00    +0.000 C 
ATOM     21  O   UNL     1       7.474   7.753  17.194  0.00  0.00    +0.000 OA
BRANCH  20  23
ATOM     22  C   UNL     1       7.699   5.771  19.176  0.00  0.00    +0.000 C 
ATOM     23  O   UNL     1       7.783   5.557  17.766  0.00  0.00    +0.000 OA
ENDBRANCH  20  23
ENDBRANCH  19  20
ENDBRANCH   1  19
TORSDOF 4
ENDMDL
MODEL 2
REMARK VINA RESULT:      -8.5      0.085      1.008
REMARK  Name = 
REMARK  6 active torsions:
REMARK  status: ('A' for Active; 'I' for Inactive)
REMARK    1  A    between atoms: C_1  and  O_2
REMARK    2  A    between atoms: O_2  and  C_3
REMARK    3  A    between atoms: C_3  and  C_5
REMARK    4  A    between atoms: C_5  and  N_6
REMARK    5  A    between atoms: C_8  and  C_9
REMARK    6  A    between atoms: C_12  and  C_13
REMARK                            x       y       z     vdW  Elec       q    Type
REMARK                         _______ _______ _______ _____ _____    ______ ____
ROOT
ATOM      1  N   UNL     1       5.050   5.556  16.621  0.00  0.00    +0.000 N 
ATOM      2  N   UNL     1       4.265   6.523  17.202  0.00  0.00    +0.000 NA
ATOM      3  C   UNL     1       3.191   6.179  17.855  0.00  0.00    +0.000 A 
ATOM      4  C   UNL     1       2.741   4.759  17.943  0.00  0.00    +0.000 A 
ATOM      5  C   UNL     1       1.514   4.346  18.486  0.00  0.00    +0.000 A 
ATOM      6  C   UNL     1       1.225   2.989  18.653  0.00  0.00    +0.000 A 
ATOM      7  C   UNL     1       2.125   2.026  18.214  0.00  0.00    +0.000 A 
ATOM      8  C   UNL     1       3.299   2.422  17.581  0.00  0.00    +0.000 A 
ATOM      9  C   UNL     1       3.601   3.787  17.444  0.00  0.00    +0.000 A 
ATOM     10  C   UNL     1       4.819   4.192  16.727  0.00  0.00    +0.000 A 
ATOM     11  O   UNL     1       5.555   3.334  16.241  0.00  0.00    +0.000 OA
ENDROOT
BRANCH   3  12
ATOM     12  C   UNL     1       2.436   7.286  18.540  0.00  0.00    +0.000 A 
ATOM     13  C   UNL     1       2.183   7.198  19.915  0.00  0.00    +0.000 A 
ATOM     14  C   UNL     1       1.516   8.234  20.582  0.00  0.00    +0.000 A 
ATOM     15  C   UNL     1       1.099   9.375  19.887  0.00  0.00    +0.000 A 
ATOM     16  C   UNL     1       0.423  10.517  20.584  0.00  0.00    +0.000 C 
ATOM     17  C   UNL     1       1.320   9.445  18.508  0.00  0.00    +0.000 A 
ATOM     18  C   UNL     1       1.935   8.387  17.835  0.00  0.00    +0.000 A 
ENDBRANCH   3  12
BRANCH   1  19
ATOM     19  C   UNL     1       6.292   5.999  15.999  0.00  0.00    +0.000 C 
BRANCH  19  20
ATOM     20  C   UNL     1       7.229   6.594  17.039  0.00  0.00    +0.000 C 
ATOM     21  O   UNL     1       7.458   7.788  17.218  0.00  0.00    +0.000 OA
BRANCH  20  23
ATOM     22  C   UNL     1       7.694   5.787  19.185  0.00  0.00    +0.000 C 
ATOM     23  O   UNL     1       7.797   5.592  17.773  0.00  0.00    +0.000 OA
ENDBRANCH  20  23
ENDBRANCH  19  20
ENDBRANCH   1  19
TORSDOF 4
ENDMDL
MODEL 3
REMARK VINA RESULT:      -8.5      0.753      1.074
REMARK  Name = 
REMARK  6 active torsions:
REMARK  status: ('A' for Active; 'I' for Inactive)
REMARK    1  A    between atoms: C_1  and  O_2
REMARK    2  A    between atoms: O_2  and  C_3
REMARK    3  A    between atoms: C_3  and  C_5
REMARK    4  A    between atoms: C_5  and  N_6
REMARK    5  A    between atoms: C_8  and  C_9
REMARK    6  A    between atoms: C_12  and  C_13
REMARK                            x       y       z     vdW  Elec       q    Type
REMARK                         _______ _______ _______ _____ _____    ______ ____
ROOT
ATOM      1  N   UNL     1       5.351   5.793  16.855  0.00  0.00    +0.000 N 
ATOM      2  N   UNL     1       4.506   6.743  17.376  0.00  0.00    +0.000 NA
ATOM      3  C   UNL     1       3.361   6.381  17.886  0.00  0.00    +0.000 A 
ATOM      4  C   UNL     1       2.903   4.961  17.867  0.00  0.00    +0.000 A 
ATOM      5  C   UNL     1       1.620   4.536  18.246  0.00  0.00    +0.000 A 
ATOM      6  C   UNL     1       1.310   3.175  18.328  0.00  0.00    +0.000 A 
ATOM      7  C   UNL     1       2.254   2.224  17.961  0.00  0.00    +0.000 A 
ATOM      8  C   UNL     1       3.495   2.636  17.485  0.00  0.00    +0.000 A 
ATOM      9  C   UNL     1       3.813   4.003  17.435  0.00  0.00    +0.000 A 
ATOM     10  C   UNL     1       5.107   4.427  16.881  0.00  0.00    +0.000 A 
ATOM     11  O   UNL     1       5.893   3.584  16.452  0.00  0.00    +0.000 OA
ENDROOT
BRANCH   3  12
ATOM     12  C   UNL     1       2.533   7.466  18.518  0.00  0.00    +0.000 A 
ATOM     13  C   UNL     1       2.121   8.557  17.742  0.00  0.00    +0.000 A 
ATOM     14  C   UNL     1       1.316   9.560  18.297  0.00  0.00    +0.000 A 
ATOM     15  C   UNL     1       0.907   9.485  19.633  0.00  0.00    +0.000 A 
ATOM     16  C   UNL     1       0.010  10.522  20.240  0.00  0.00    +0.000 C 
ATOM     17  C   UNL     1       1.349   8.415  20.417  0.00  0.00    +0.000 A 
ATOM     18  C   UNL     1       2.196   7.445  19.876  0.00  0.00    +0.000 A 
ENDBRANCH   3  12
BRANCH   1  19
ATOM     19  C   UNL     1       6.659   6.251  16.399  0.00  0.00    +0.000 C 
BRANCH  19  20
ATOM     20  C   UNL     1       7.386   6.988  17.514  0.00  0.00    +0.000 C 
ATOM     21  O   UNL     1       7.826   6.495  18.549  0.00  0.00    +0.000 OA
BRANCH  20  23
ATOM     22  C   UNL     1       8.303   9.057  18.106  0.00  0.00    +0.000 C 
ATOM     23  O   UNL     1       7.490   8.312  17.196  0.00  0.00    +0.000 OA
ENDBRANCH  20  23
ENDBRANCH  19  20
ENDBRANCH   1  19
TORSDOF 4
ENDMDL
MODEL 4
REMARK VINA RESULT:      -8.5      1.678      1.987
REMARK  Name = 
REMARK  6 active torsions:
REMARK  status: ('A' for Active; 'I' for Inactive)
REMARK    1  A    between atoms: C_1  and  O_2
REMARK    2  A    between atoms: O_2  and  C_3
REMARK    3  A    between atoms: C_3  and  C_5
REMARK    4  A    between atoms: C_5  and  N_6
REMARK    5  A    between atoms: C_8  and  C_9
REMARK    6  A    between atoms: C_12  and  C_13
REMARK                            x       y       z     vdW  Elec       q    Type
REMARK                         _______ _______ _______ _____ _____    ______ ____
ROOT
ATOM      1  N   UNL     1       5.113   5.165  18.542  0.00  0.00    +0.000 N 
ATOM      2  N   UNL     1       4.299   6.272  18.533  0.00  0.00    +0.000 NA
ATOM      3  C   UNL     1       3.115   6.208  19.073  0.00  0.00    +0.000 A 
ATOM      4  C   UNL     1       2.579   4.942  19.653  0.00  0.00    +0.000 A 
ATOM      5  C   UNL     1       1.258   4.767  20.096  0.00  0.00    +0.000 A 
ATOM      6  C   UNL     1       0.870   3.594  20.749  0.00  0.00    +0.000 A 
ATOM      7  C   UNL     1       1.775   2.551  20.904  0.00  0.00    +0.000 A 
ATOM      8  C   UNL     1       3.058   2.673  20.377  0.00  0.00    +0.000 A 
ATOM      9  C   UNL     1       3.453   3.865  19.750  0.00  0.00    +0.000 A 
ATOM     10  C   UNL     1       4.793   3.961  19.153  0.00  0.00    +0.000 A 
ATOM     11  O   UNL     1       5.550   2.992  19.193  0.00  0.00    +0.000 OA
ENDROOT
BRANCH   3  12
ATOM     12  C   UNL     1       2.320   7.485  19.105  0.00  0.00    +0.000 A 
ATOM     13  C   UNL     1       2.142   8.214  17.922  0.00  0.00    +0.000 A 
ATOM     14  C   UNL     1       1.374   9.386  17.919  0.00  0.00    +0.000 A 
ATOM     15  C   UNL     1       0.766   9.841  19.094  0.00  0.00    +0.000 A 
ATOM     16  C   UNL     1      -0.097  11.067  19.108  0.00  0.00    +0.000 C 
ATOM     17  C   UNL     1       0.974   9.133  20.281  0.00  0.00    +0.000 A 
ATOM     18  C   UNL     1       1.786   7.997  20.294  0.00  0.00    +0.000 A 
ENDBRANCH   3  12
BRANCH   1  19
ATOM     19  C   UNL     1       6.464   5.335  18.018  0.00  0.00    +0.000 C 
BRANCH  19  20
ATOM     20  C   UNL     1       7.399   5.849  19.103  0.00  0.00    +0.000 C 
ATOM     21  O   UNL     1       7.521   5.394  20.237  0.00  0.00    +0.000 OA
BRANCH  20  23
ATOM     22  C   UNL     1       7.533   7.515  17.466  0.00  0.00    +0.000 C 
ATOM     23  O   UNL     1       8.108   6.916  18.629  0.00  0.00    +0.000 OA
ENDBRANCH  20  23
ENDBRANCH  19  20
ENDBRANCH   1  19
TORSDOF 4
ENDMDL
MODEL 5
REMARK VINA RESULT:      -8.3      1.602      1.958
REMARK  Name = 
REMARK  6 active torsions:
REMARK  status: ('A' for Active; 'I' for Inactive)
REMARK    1  A    between atoms: C_1  and  O_2
REMARK    2  A    between atoms: O_2  and  C_3
REMARK    3  A    between atoms: C_3  and  C_5
REMARK    4  A    between atoms: C_5  and  N_6
REMARK    5  A    between atoms: C_8  and  C_9
REMARK    6  A    between atoms: C_12  and  C_13
REMARK                            x       y       z     vdW  Elec       q    Type
REMARK                         _______ _______ _______ _____ _____    ______ ____
ROOT
ATOM      1  N   UNL     1       5.145   5.178  18.797  0.00  0.00    +0.000 N 
ATOM      2  N   UNL     1       4.336   6.288  18.747  0.00  0.00    +0.000 NA
ATOM      3  C   UNL     1       3.098   6.204  19.148  0.00  0.00    +0.000 A 
ATOM      4  C   UNL     1       2.502   4.916  19.606  0.00  0.00    +0.000 A 
ATOM      5  C   UNL     1       1.140   4.726  19.889  0.00  0.00    +0.000 A 
ATOM      6  C   UNL     1       0.683   3.526  20.441  0.00  0.00    +0.000 A 
ATOM      7  C   UNL     1       1.566   2.474  20.649  0.00  0.00    +0.000 A 
ATOM      8  C   UNL     1       2.900   2.614  20.276  0.00  0.00    +0.000 A 
ATOM      9  C   UNL     1       3.361   3.832  19.752  0.00  0.00    +0.000 A 
ATOM     10  C   UNL     1       4.760   3.949  19.314  0.00  0.00    +0.000 A 
ATOM     11  O   UNL     1       5.509   2.977  19.395  0.00  0.00    +0.000 OA
ENDROOT
BRANCH   3  12
ATOM     12  C   UNL     1       2.303   7.482  19.148  0.00  0.00    +0.000 A 
ATOM     13  C   UNL     1       2.148   8.195  17.952  0.00  0.00    +0.000 A 
ATOM     14  C   UNL     1       1.380   9.366  17.918  0.00  0.00    +0.000 A 
ATOM     15  C   UNL     1       0.750   9.837  19.075  0.00  0.00    +0.000 A 
ATOM     16  C   UNL     1      -0.113  11.063  19.057  0.00  0.00    +0.000 C 
ATOM     17  C   UNL     1       0.935   9.145  20.275  0.00  0.00    +0.000 A 
ATOM     18  C   UNL     1       1.746   8.008  20.319  0.00  0.00    +0.000 A 
ENDBRANCH   3  12
BRANCH   1  19
ATOM     19  C   UNL     1       6.546   5.366  18.437  0.00  0.00    +0.000 C 
BRANCH  19  20
ATOM     20  C   UNL     1       6.723   5.314  16.927  0.00  0.00    +0.000 C 
ATOM     21  O   UNL     1       6.308   4.438  16.174  0.00  0.00    +0.000 OA
BRANCH  20  23
ATOM     22  C   UNL     1       7.601   7.398  17.527  0.00  0.00    +0.000 C 
ATOM     23  O   UNL     1       7.423   6.410  16.509  0.00  0.00    +0.000 OA
ENDBRANCH  20  23
ENDBRANCH  19  20
ENDBRANCH   1  19
TORSDOF 4
ENDMDL
MODEL 6
REMARK VINA RESULT:      -8.1      1.595      2.137
REMARK  Name = 
REMARK  6 active torsions:
REMARK  status: ('A' for Active; 'I' for Inactive)
REMARK    1  A    between atoms: C_1  and  O_2
REMARK    2  A    between atoms: O_2  and  C_3
REMARK    3  A    between atoms: C_3  and  C_5
REMARK    4  A    between atoms: C_5  and  N_6
REMARK    5  A    between atoms: C_8  and  C_9
REMARK    6  A    between atoms: C_12  and  C_13
REMARK                            x       y       z     vdW  Elec       q    Type
REMARK                         _______ _______ _______ _____ _____    ______ ____
ROOT
ATOM      1  N   UNL     1       5.139   5.280  18.692  0.00  0.00    +0.000 N 
ATOM      2  N   UNL     1       4.303   6.370  18.650  0.00  0.00    +0.000 NA
ATOM      3  C   UNL     1       3.081   6.267  19.093  0.00  0.00    +0.000 A 
ATOM      4  C   UNL     1       2.530   4.974  19.592  0.00  0.00    +0.000 A 
ATOM      5  C   UNL     1       1.182   4.759  19.923  0.00  0.00    +0.000 A 
ATOM      6  C   UNL     1       0.770   3.560  20.510  0.00  0.00    +0.000 A 
ATOM      7  C   UNL     1       1.683   2.531  20.706  0.00  0.00    +0.000 A 
ATOM      8  C   UNL     1       3.001   2.694  20.287  0.00  0.00    +0.000 A 
ATOM      9  C   UNL     1       3.418   3.912  19.727  0.00  0.00    +0.000 A 
ATOM     10  C   UNL     1       4.798   4.052  19.241  0.00  0.00    +0.000 A 
ATOM     11  O   UNL     1       5.571   3.098  19.314  0.00  0.00    +0.000 OA
ENDROOT
BRANCH   3  12
ATOM     12  C   UNL     1       2.258   7.526  19.098  0.00  0.00    +0.000 A 
ATOM     13  C   UNL     1       1.705   7.981  20.302  0.00  0.00    +0.000 A 
ATOM     14  C   UNL     1       0.967   9.172  20.339  0.00  0.00    +0.000 A 
ATOM     15  C   UNL     1       0.779   9.929  19.177  0.00  0.00    +0.000 A 
ATOM     16  C   UNL     1       0.032  11.228  19.198  0.00  0.00    +0.000 C 
ATOM     17  C   UNL     1       1.301   9.455  17.970  0.00  0.00    +0.000 A 
ATOM     18  C   UNL     1       1.988   8.240  17.924  0.00  0.00    +0.000 A 
ENDBRANCH   3  12
BRANCH   1  19
ATOM     19  C   UNL     1       6.522   5.492  18.283  0.00  0.00    +0.000 C 
BRANCH  19  20
ATOM     20  C   UNL     1       6.616   5.649  16.773  0.00  0.00    +0.000 C 
ATOM     21  O   UNL     1       6.016   4.986  15.931  0.00  0.00    +0.000 OA
BRANCH  20  23
ATOM     22  C   UNL     1       7.675   7.589  17.540  0.00  0.00    +0.000 C 
ATOM     23  O   UNL     1       7.481   6.662  16.470  0.00  0.00    +0.000 OA
ENDBRANCH  20  23
ENDBRANCH  19  20
ENDBRANCH   1  19
TORSDOF 4
ENDMDL
MODEL 7
REMARK VINA RESULT:      -8.1      1.651      2.109
REMARK  Name = 
REMARK  6 active torsions:
REMARK  status: ('A' for Active; 'I' for Inactive)
REMARK    1  A    between atoms: C_1  and  O_2
REMARK    2  A    between atoms: O_2  and  C_3
REMARK    3  A    between atoms: C_3  and  C_5
REMARK    4  A    between atoms: C_5  and  N_6
REMARK    5  A    between atoms: C_8  and  C_9
REMARK    6  A    between atoms: C_12  and  C_13
REMARK                            x       y       z     vdW  Elec       q    Type
REMARK                         _______ _______ _______ _____ _____    ______ ____
ROOT
ATOM      1  N   UNL     1       5.172   5.009  18.776  0.00  0.00    +0.000 N 
ATOM      2  N   UNL     1       4.402   6.145  18.699  0.00  0.00    +0.000 NA
ATOM      3  C   UNL     1       3.162   6.114  19.101  0.00  0.00    +0.000 A 
ATOM      4  C   UNL     1       2.522   4.858  19.589  0.00  0.00    +0.000 A 
ATOM      5  C   UNL     1       1.154   4.723  19.877  0.00  0.00    +0.000 A 
ATOM      6  C   UNL     1       0.656   3.553  20.457  0.00  0.00    +0.000 A 
ATOM      7  C   UNL     1       1.502   2.476  20.690  0.00  0.00    +0.000 A 
ATOM      8  C   UNL     1       2.840   2.561  20.314  0.00  0.00    +0.000 A 
ATOM      9  C   UNL     1       3.343   3.749  19.761  0.00  0.00    +0.000 A 
ATOM     10  C   UNL     1       4.745   3.807  19.321  0.00  0.00    +0.000 A 
ATOM     11  O   UNL     1       5.459   2.811  19.426  0.00  0.00    +0.000 OA
ENDROOT
BRANCH   3  12
ATOM     12  C   UNL     1       2.412   7.418  19.070  0.00  0.00    +0.000 A 
ATOM     13  C   UNL     1       2.353   8.149  17.876  0.00  0.00    +0.000 A 
ATOM     14  C   UNL     1       1.628   9.346  17.812  0.00  0.00    +0.000 A 
ATOM     15  C   UNL     1       0.947   9.826  18.936  0.00  0.00    +0.000 A 
ATOM     16  C   UNL     1       0.128  11.081  18.882  0.00  0.00    +0.000 C 
ATOM     17  C   UNL     1       1.037   9.115  20.136  0.00  0.00    +0.000 A 
ATOM     18  C   UNL     1       1.805   7.951  20.213  0.00  0.00    +0.000 A 
ENDBRANCH   3  12
BRANCH   1  19
ATOM     19  C   UNL     1       6.579   5.140  18.412  0.00  0.00    +0.000 C 
BRANCH  19  20
ATOM     20  C   UNL     1       6.733   5.256  16.903  0.00  0.00    +0.000 C 
ATOM     21  O   UNL     1       7.284   6.169  16.294  0.00  0.00    +0.000 OA
BRANCH  20  23
ATOM     22  C   UNL     1       5.735   4.422  14.959  0.00  0.00    +0.000 C 
ATOM     23  O   UNL     1       6.164   4.172  16.299  0.00  0.00    +0.000 OA
ENDBRANCH  20  23
ENDBRANCH  19  20
ENDBRANCH   1  19
TORSDOF 4
ENDMDL
MODEL 8
REMARK VINA RESULT:      -8.0      1.722      2.325
REMARK  Name = 
REMARK  6 active torsions:
REMARK  status: ('A' for Active; 'I' for Inactive)
REMARK    1  A    between atoms: C_1  and  O_2
REMARK    2  A    between atoms: O_2  and  C_3
REMARK    3  A    between atoms: C_3  and  C_5
REMARK    4  A    between atoms: C_5  and  N_6
REMARK    5  A    between atoms: C_8  and  C_9
REMARK    6  A    between atoms: C_12  and  C_13
REMARK                            x       y       z     vdW  Elec       q    Type
REMARK                         _______ _______ _______ _____ _____    ______ ____
ROOT
ATOM      1  N   UNL     1       5.071   5.447  18.323  0.00  0.00    +0.000 N 
ATOM      2  N   UNL     1       4.192   6.503  18.363  0.00  0.00    +0.000 NA
ATOM      3  C   UNL     1       3.061   6.379  19.001  0.00  0.00    +0.000 A 
ATOM      4  C   UNL     1       2.654   5.096  19.643  0.00  0.00    +0.000 A 
ATOM      5  C   UNL     1       1.386   4.851  20.196  0.00  0.00    +0.000 A 
ATOM      6  C   UNL     1       1.126   3.671  20.898  0.00  0.00    +0.000 A 
ATOM      7  C   UNL     1       2.104   2.688  20.995  0.00  0.00    +0.000 A 
ATOM      8  C   UNL     1       3.330   2.875  20.362  0.00  0.00    +0.000 A 
ATOM      9  C   UNL     1       3.598   4.076  19.685  0.00  0.00    +0.000 A 
ATOM     10  C   UNL     1       4.877   4.240  18.978  0.00  0.00    +0.000 A 
ATOM     11  O   UNL     1       5.693   3.319  18.972  0.00  0.00    +0.000 OA
ENDROOT
BRANCH   3  12
ATOM     12  C   UNL     1       2.194   7.606  19.077  0.00  0.00    +0.000 A 
ATOM     13  C   UNL     1       1.682   8.010  20.317  0.00  0.00    +0.000 A 
ATOM     14  C   UNL     1       0.904   9.171  20.420  0.00  0.00    +0.000 A 
ATOM     15  C   UNL     1       0.634   9.949  19.288  0.00  0.00    +0.000 A 
ATOM     16  C   UNL     1      -0.158  11.218  19.379  0.00  0.00    +0.000 C 
ATOM     17  C   UNL     1       1.115   9.525  18.046  0.00  0.00    +0.000 A 
ATOM     18  C   UNL     1       1.843   8.338  17.937  0.00  0.00    +0.000 A 
ENDBRANCH   3  12
BRANCH   1  19
ATOM     19  C   UNL     1       6.362   5.687  17.687  0.00  0.00    +0.000 C 
BRANCH  19  20
ATOM     20  C   UNL     1       6.248   5.552  16.176  0.00  0.00    +0.000 C 
ATOM     21  O   UNL     1       5.843   6.409  15.396  0.00  0.00    +0.000 OA
BRANCH  20  23
ATOM     22  C   UNL     1       6.327   3.978  14.448  0.00  0.00    +0.000 C 
ATOM     23  O   UNL     1       6.676   4.313  15.793  0.00  0.00    +0.000 OA
ENDBRANCH  20  23
ENDBRANCH  19  20
ENDBRANCH   1  19
TORSDOF 4
ENDMDL
MODEL 9
REMARK VINA RESULT:      -7.9      1.552      2.021
REMARK  Name = 
REMARK  6 active torsions:
REMARK  status: ('A' for Active; 'I' for Inactive)
REMARK    1  A    between atoms: C_1  and  O_2
REMARK    2  A    between atoms: O_2  and  C_3
REMARK    3  A    between atoms: C_3  and  C_5
REMARK    4  A    between atoms: C_5  and  N_6
REMARK    5  A    between atoms: C_8  and  C_9
REMARK    6  A    between atoms: C_12  and  C_13
REMARK                            x       y       z     vdW  Elec       q    Type
REMARK                         _______ _______ _______ _____ _____    ______ ____
ROOT
ATOM      1  N   UNL     1       5.034   5.770  17.767  0.00  0.00    +0.000 N 
ATOM      2  N   UNL     1       4.108   6.773  17.929  0.00  0.00    +0.000 NA
ATOM      3  C   UNL     1       3.104   6.602  18.743  0.00  0.00    +0.000 A 
ATOM      4  C   UNL     1       2.886   5.316  19.467  0.00  0.00    +0.000 A 
ATOM      5  C   UNL     1       1.741   5.014  20.222  0.00  0.00    +0.000 A 
ATOM      6  C   UNL     1       1.671   3.841  20.979  0.00  0.00    +0.000 A 
ATOM      7  C   UNL     1       2.711   2.920  20.935  0.00  0.00    +0.000 A 
ATOM      8  C   UNL     1       3.806   3.161  20.109  0.00  0.00    +0.000 A 
ATOM      9  C   UNL     1       3.887   4.355  19.375  0.00  0.00    +0.000 A 
ATOM     10  C   UNL     1       5.022   4.572  18.467  0.00  0.00    +0.000 A 
ATOM     11  O   UNL     1       5.883   3.702  18.347  0.00  0.00    +0.000 OA
ENDROOT
BRANCH   3  12
ATOM     12  C   UNL     1       2.186   7.778  18.936  0.00  0.00    +0.000 A 
ATOM     13  C   UNL     1       1.733   8.093  20.223  0.00  0.00    +0.000 A 
ATOM     14  C   UNL     1       0.909   9.207  20.434  0.00  0.00    +0.000 A 
ATOM     15  C   UNL     1       0.532  10.025  19.362  0.00  0.00    +0.000 A 
ATOM     16  C   UNL     1      -0.312  11.246  19.567  0.00  0.00    +0.000 C 
ATOM     17  C   UNL     1       0.955   9.688  18.074  0.00  0.00    +0.000 A 
ATOM     18  C   UNL     1       1.730   8.547  17.858  0.00  0.00    +0.000 A 
ENDBRANCH   3  12
BRANCH   1  19
ATOM     19  C   UNL     1       6.188   6.067  16.927  0.00  0.00    +0.000 C 
BRANCH  19  20
ATOM     20  C   UNL     1       7.248   6.820  17.717  0.00  0.00    +0.000 C 
ATOM     21  O   UNL     1       7.871   6.398  18.688  0.00  0.00    +0.000 OA
BRANCH  20  23
ATOM     22  C   UNL     1       8.206   8.935  18.000  0.00  0.00    +0.000 C 
ATOM     23  O   UNL     1       7.420   8.064  17.183  0.00  0.00    +0.000 OA
ENDBRANCH  20  23
ENDBRANCH  19  20
ENDBRANCH   1  19
TORSDOF 4
ENDMDL
