MODEL 1
REMARK VINA RESULT:      -8.1      0.000      0.000
REMARK  Name = 
REMARK  9 active torsions:
REMARK  status: ('A' for Active; 'I' for Inactive)
REMARK    1  A    between atoms: C_1  and  O_2
REMARK    2  A    between atoms: O_2  and  C_3
REMARK    3  A    between atoms: C_6  and  C_7
REMARK    4  A    between atoms: C_7  and  C_8
REMARK    5  A    between atoms: C_8  and  C_9
REMARK    6  A    between atoms: C_9  and  N_10
REMARK    7  A    between atoms: C_11  and  C_13
REMARK    8  A    between atoms: N_18  and  C_19
REMARK    9  A    between atoms: C_19  and  C_20
REMARK                            x       y       z     vdW  Elec       q    Type
REMARK                         _______ _______ _______ _____ _____    ______ ____
ROOT
ATOM      1  N   UNL     1       2.168   6.105  18.588  0.00  0.00    +0.000 N 
ATOM      2  C   UNL     1       1.568   5.029  19.203  0.00  0.00    +0.000 C 
ATOM      3  O   UNL     1       1.149   5.100  20.356  0.00  0.00    +0.000 OA
ATOM      4  H   UNL     1       2.466   6.051  17.624  0.00  0.00    +0.000 HD
ENDROOT
BRANCH   2   5
ATOM      5  C   UNL     1       1.400   3.770  18.344  0.00  0.00    +0.000 C 
ATOM      6  C   UNL     1       1.315   2.516  19.209  0.00  0.00    +0.000 C 
ATOM      7  C   UNL     1       2.622   2.253  19.951  0.00  0.00    +0.000 C 
ATOM      8  C   UNL     1       3.898   2.703  19.258  0.00  0.00    +0.000 C 
ATOM      9  O   UNL     1       4.975   2.600  19.847  0.00  0.00    +0.000 OA
ATOM     10  N   UNL     1       3.804   3.196  17.966  0.00  0.00    +0.000 N 
ATOM     11  C   UNL     1       2.534   3.545  17.344  0.00  0.00    +0.000 C 
BRANCH  10  12
ATOM     12  C   UNL     1       5.026   3.441  17.202  0.00  0.00    +0.000 C 
BRANCH  12  13
ATOM     13  C   UNL     1       5.707   4.771  17.456  0.00  0.00    +0.000 A 
ATOM     14  C   UNL     1       6.924   4.825  18.163  0.00  0.00    +0.000 A 
ATOM     15  C   UNL     1       7.645   6.022  18.251  0.00  0.00    +0.000 A 
ATOM     16  C   UNL     1       7.158   7.177  17.642  0.00  0.00    +0.000 A 
ATOM     17 CL   UNL     1       8.082   8.627  17.691  0.00  0.00    +0.000 Cl
ATOM     18  C   UNL     1       5.940   7.157  16.975  0.00  0.00    +0.000 A 
ATOM     19  C   UNL     1       5.217   5.957  16.882  0.00  0.00    +0.000 A 
ENDBRANCH  12  13
ENDBRANCH  10  12
ENDBRANCH   2   5
BRANCH   1  20
ATOM     20  C   UNL     1       2.428   7.329  19.326  0.00  0.00    +0.000 C 
BRANCH  20  21
ATOM     21  C   UNL     1       1.934   8.561  18.567  0.00  0.00    +0.000 C 
BRANCH  21  22
ATOM     22  C   UNL     1       1.151   9.502  19.488  0.00  0.00    +0.000 C 
BRANCH  22  26
ATOM     23  C   UNL     1      -2.393  11.156  17.629  0.00  0.00    +0.000 A 
ATOM     24  C   UNL     1      -1.837   9.963  17.162  0.00  0.00    +0.000 A 
ATOM     25  C   UNL     1      -0.696   9.425  17.764  0.00  0.00    +0.000 A 
ATOM     26  C   UNL     1      -0.077  10.087  18.832  0.00  0.00    +0.000 A 
ATOM     27  C   UNL     1      -0.636  11.289  19.289  0.00  0.00    +0.000 A 
ATOM     28  C   UNL     1      -1.781  11.824  18.687  0.00  0.00    +0.000 A 
BRANCH  23  30
ATOM     29  C   UNL     1      -3.641  11.086  15.625  0.00  0.00    +0.000 C 
ATOM     30  O   UNL     1      -3.501  11.586  16.952  0.00  0.00    +0.000 OA
ENDBRANCH  23  30
ENDBRANCH  22  26
ENDBRANCH  21  22
ENDBRANCH  20  21
ENDBRANCH   1  20
TORSDOF 8
ENDMDL
MODEL 2
REMARK VINA RESULT:      -8.1      2.060      2.629
REMARK  Name = 
REMARK  9 active torsions:
REMARK  status: ('A' for Active; 'I' for Inactive)
REMARK    1  A    between atoms: C_1  and  O_2
REMARK    2  A    between atoms: O_2  and  C_3
REMARK    3  A    between atoms: C_6  and  C_7
REMARK    4  A    between atoms: C_7  and  C_8
REMARK    5  A    between atoms: C_8  and  C_9
REMARK    6  A    between atoms: C_9  and  N_10
REMARK    7  A    between atoms: C_11  and  C_13
REMARK    8  A    between atoms: N_18  and  C_19
REMARK    9  A    between atoms: C_19  and  C_20
REMARK                            x       y       z     vdW  Elec       q    Type
REMARK                         _______ _______ _______ _____ _____    ______ ____
ROOT
ATOM      1  N   UNL     1       1.936   6.316  18.772  0.00  0.00    +0.000 N 
ATOM      2  C   UNL     1       1.691   5.329  19.700  0.00  0.00    +0.000 C 
ATOM      3  O   UNL     1       1.753   5.553  20.907  0.00  0.00    +0.000 OA
ATOM      4  H   UNL     1       1.836   6.134  17.783  0.00  0.00    +0.000 HD
ENDROOT
BRANCH   2   5
ATOM      5  C   UNL     1       1.279   3.963  19.138  0.00  0.00    +0.000 C 
ATOM      6  C   UNL     1       1.386   2.872  20.199  0.00  0.00    +0.000 C 
ATOM      7  C   UNL     1       2.832   2.643  20.629  0.00  0.00    +0.000 C 
ATOM      8  C   UNL     1       3.900   2.890  19.575  0.00  0.00    +0.000 C 
ATOM      9  O   UNL     1       5.088   2.810  19.890  0.00  0.00    +0.000 OA
ATOM     10  N   UNL     1       3.492   3.176  18.282  0.00  0.00    +0.000 N 
ATOM     11  C   UNL     1       2.115   3.507  17.943  0.00  0.00    +0.000 C 
BRANCH  10  12
ATOM     12  C   UNL     1       4.485   3.213  17.210  0.00  0.00    +0.000 C 
BRANCH  12  13
ATOM     13  C   UNL     1       5.333   4.468  17.139  0.00  0.00    +0.000 A 
ATOM     14  C   UNL     1       4.739   5.713  16.858  0.00  0.00    +0.000 A 
ATOM     15  C   UNL     1       5.481   6.897  16.961  0.00  0.00    +0.000 A 
ATOM     16  C   UNL     1       6.822   6.849  17.338  0.00  0.00    +0.000 A 
ATOM     17 CL   UNL     1       7.709   8.310  17.534  0.00  0.00    +0.000 Cl
ATOM     18  C   UNL     1       7.439   5.629  17.580  0.00  0.00    +0.000 A 
ATOM     19  C   UNL     1       6.697   4.441  17.480  0.00  0.00    +0.000 A 
ENDBRANCH  12  13
ENDBRANCH  10  12
ENDBRANCH   2   5
BRANCH   1  20
ATOM     20  C   UNL     1       2.388   7.632  19.192  0.00  0.00    +0.000 C 
BRANCH  20  21
ATOM     21  C   UNL     1       2.396   8.623  18.028  0.00  0.00    +0.000 C 
BRANCH  21  22
ATOM     22  C   UNL     1       1.068   9.381  17.936  0.00  0.00    +0.000 C 
BRANCH  22  26
ATOM     23  C   UNL     1       0.042  11.391  21.632  0.00  0.00    +0.000 A 
ATOM     24  C   UNL     1      -0.517  10.149  21.320  0.00  0.00    +0.000 A 
ATOM     25  C   UNL     1      -0.184   9.496  20.130  0.00  0.00    +0.000 A 
ATOM     26  C   UNL     1       0.700  10.089  19.219  0.00  0.00    +0.000 A 
ATOM     27  C   UNL     1       1.249  11.340  19.535  0.00  0.00    +0.000 A 
ATOM     28  C   UNL     1       0.917  11.990  20.730  0.00  0.00    +0.000 A 
BRANCH  23  30
ATOM     29  C   UNL     1      -1.755  11.777  23.115  0.00  0.00    +0.000 C 
ATOM     30  O   UNL     1      -0.371  11.932  22.818  0.00  0.00    +0.000 OA
ENDBRANCH  23  30
ENDBRANCH  22  26
ENDBRANCH  21  22
ENDBRANCH  20  21
ENDBRANCH   1  20
TORSDOF 8
ENDMDL
MODEL 3
REMARK VINA RESULT:      -8.1      2.072      2.489
REMARK  Name = 
REMARK  9 active torsions:
REMARK  status: ('A' for Active; 'I' for Inactive)
REMARK    1  A    between atoms: C_1  and  O_2
REMARK    2  A    between atoms: O_2  and  C_3
REMARK    3  A    between atoms: C_6  and  C_7
REMARK    4  A    between atoms: C_7  and  C_8
REMARK    5  A    between atoms: C_8  and  C_9
REMARK    6  A    between atoms: C_9  and  N_10
REMARK    7  A    between atoms: C_11  and  C_13
REMARK    8  A    between atoms: N_18  and  C_19
REMARK    9  A    between atoms: C_19  and  C_20
REMARK                            x       y       z     vdW  Elec       q    Type
REMARK                         _______ _______ _______ _____ _____    ______ ____
ROOT
ATOM      1  N   UNL     1       2.163   5.923  18.423  0.00  0.00    +0.000 N 
ATOM      2  C   UNL     1       1.574   4.856  19.063  0.00  0.00    +0.000 C 
ATOM      3  O   UNL     1       1.113   4.962  20.197  0.00  0.00    +0.000 OA
ATOM      4  H   UNL     1       2.496   5.839  17.473  0.00  0.00    +0.000 HD
ENDROOT
BRANCH   2   5
ATOM      5  C   UNL     1       1.473   3.558  18.253  0.00  0.00    +0.000 C 
ATOM      6  C   UNL     1       1.437   2.336  19.167  0.00  0.00    +0.000 C 
ATOM      7  C   UNL     1       2.747   2.163  19.929  0.00  0.00    +0.000 C 
ATOM      8  C   UNL     1       4.009   2.646  19.229  0.00  0.00    +0.000 C 
ATOM      9  O   UNL     1       5.083   2.616  19.831  0.00  0.00    +0.000 OA
ATOM     10  N   UNL     1       3.905   3.082  17.918  0.00  0.00    +0.000 N 
ATOM     11  C   UNL     1       2.626   3.348  17.272  0.00  0.00    +0.000 C 
BRANCH  10  12
ATOM     12  C   UNL     1       5.122   3.354  17.155  0.00  0.00    +0.000 C 
BRANCH  12  13
ATOM     13  C   UNL     1       5.770   4.701  17.405  0.00  0.00    +0.000 A 
ATOM     14  C   UNL     1       6.974   4.788  18.130  0.00  0.00    +0.000 A 
ATOM     15  C   UNL     1       7.668   6.002  18.217  0.00  0.00    +0.000 A 
ATOM     16  C   UNL     1       7.166   7.139  17.588  0.00  0.00    +0.000 A 
ATOM     17 CL   UNL     1       8.059   8.609  17.636  0.00  0.00    +0.000 Cl
ATOM     18  C   UNL     1       5.960   7.086  16.901  0.00  0.00    +0.000 A 
ATOM     19  C   UNL     1       5.264   5.870  16.811  0.00  0.00    +0.000 A 
ENDBRANCH  12  13
ENDBRANCH  10  12
ENDBRANCH   2   5
BRANCH   1  20
ATOM     20  C   UNL     1       2.362   7.185  19.117  0.00  0.00    +0.000 C 
BRANCH  20  21
ATOM     21  C   UNL     1       2.566   8.341  18.138  0.00  0.00    +0.000 C 
BRANCH  21  22
ATOM     22  C   UNL     1       1.275   9.145  17.953  0.00  0.00    +0.000 C 
BRANCH  22  26
ATOM     23  C   UNL     1       0.927  12.404  20.783  0.00  0.00    +0.000 A 
ATOM     24  C   UNL     1       0.352  11.161  21.057  0.00  0.00    +0.000 A 
ATOM     25  C   UNL     1       0.467  10.106  20.147  0.00  0.00    +0.000 A 
ATOM     26  C   UNL     1       1.142  10.286  18.933  0.00  0.00    +0.000 A 
ATOM     27  C   UNL     1       1.709  11.539  18.661  0.00  0.00    +0.000 A 
ATOM     28  C   UNL     1       1.596  12.593  19.576  0.00  0.00    +0.000 A 
BRANCH  23  30
ATOM     29  C   UNL     1      -0.545  13.356  22.365  0.00  0.00    +0.000 C 
ATOM     30  O   UNL     1       0.736  13.357  21.745  0.00  0.00    +0.000 OA
ENDBRANCH  23  30
ENDBRANCH  22  26
ENDBRANCH  21  22
ENDBRANCH  20  21
ENDBRANCH   1  20
TORSDOF 8
ENDMDL
MODEL 4
REMARK VINA RESULT:      -8.0      2.074      2.770
REMARK  Name = 
REMARK  9 active torsions:
REMARK  status: ('A' for Active; 'I' for Inactive)
REMARK    1  A    between atoms: C_1  and  O_2
REMARK    2  A    between atoms: O_2  and  C_3
REMARK    3  A    between atoms: C_6  and  C_7
REMARK    4  A    between atoms: C_7  and  C_8
REMARK    5  A    between atoms: C_8  and  C_9
REMARK    6  A    between atoms: C_9  and  N_10
REMARK    7  A    between atoms: C_11  and  C_13
REMARK    8  A    between atoms: N_18  and  C_19
REMARK    9  A    between atoms: C_19  and  C_20
REMARK                            x       y       z     vdW  Elec       q    Type
REMARK                         _______ _______ _______ _____ _____    ______ ____
ROOT
ATOM      1  N   UNL     1       2.183   6.182  18.563  0.00  0.00    +0.000 N 
ATOM      2  C   UNL     1       1.718   5.256  19.469  0.00  0.00    +0.000 C 
ATOM      3  O   UNL     1       1.529   5.549  20.647  0.00  0.00    +0.000 OA
ATOM      4  H   UNL     1       2.290   5.945  17.587  0.00  0.00    +0.000 HD
ENDROOT
BRANCH   2   5
ATOM      5  C   UNL     1       1.393   3.867  18.905  0.00  0.00    +0.000 C 
ATOM      6  C   UNL     1       1.489   2.794  19.986  0.00  0.00    +0.000 C 
ATOM      7  C   UNL     1       2.919   2.632  20.494  0.00  0.00    +0.000 C 
ATOM      8  C   UNL     1       4.030   2.912  19.494  0.00  0.00    +0.000 C 
ATOM      9  O   UNL     1       5.202   2.886  19.871  0.00  0.00    +0.000 OA
ATOM     10  N   UNL     1       3.680   3.165  18.177  0.00  0.00    +0.000 N 
ATOM     11  C   UNL     1       2.309   3.432  17.762  0.00  0.00    +0.000 C 
BRANCH  10  12
ATOM     12  C   UNL     1       4.725   3.231  17.158  0.00  0.00    +0.000 C 
BRANCH  12  13
ATOM     13  C   UNL     1       5.540   4.509  17.132  0.00  0.00    +0.000 A 
ATOM     14  C   UNL     1       4.974   5.705  16.649  0.00  0.00    +0.000 A 
ATOM     15  C   UNL     1       5.656   6.921  16.781  0.00  0.00    +0.000 A 
ATOM     16  C   UNL     1       6.910   6.955  17.388  0.00  0.00    +0.000 A 
ATOM     17 CL   UNL     1       7.712   8.461  17.613  0.00  0.00    +0.000 Cl
ATOM     18  C   UNL     1       7.505   5.783  17.834  0.00  0.00    +0.000 A 
ATOM     19  C   UNL     1       6.822   4.563  17.706  0.00  0.00    +0.000 A 
ENDBRANCH  12  13
ENDBRANCH  10  12
ENDBRANCH   2   5
BRANCH   1  20
ATOM     20  C   UNL     1       2.576   7.512  18.999  0.00  0.00    +0.000 C 
BRANCH  20  21
ATOM     21  C   UNL     1       2.502   8.525  17.856  0.00  0.00    +0.000 C 
BRANCH  21  22
ATOM     22  C   UNL     1       1.156   9.257  17.850  0.00  0.00    +0.000 C 
BRANCH  22  26
ATOM     23  C   UNL     1       0.838  12.327  20.886  0.00  0.00    +0.000 A 
ATOM     24  C   UNL     1       1.506  12.582  19.686  0.00  0.00    +0.000 A 
ATOM     25  C   UNL     1       1.606  11.593  18.702  0.00  0.00    +0.000 A 
ATOM     26  C   UNL     1       1.056  10.323  18.914  0.00  0.00    +0.000 A 
ATOM     27  C   UNL     1       0.395  10.072  20.125  0.00  0.00    +0.000 A 
ATOM     28  C   UNL     1       0.293  11.065  21.107  0.00  0.00    +0.000 A 
BRANCH  23  30
ATOM     29  C   UNL     1       1.649  14.476  21.436  0.00  0.00    +0.000 C 
ATOM     30  O   UNL     1       0.818  13.369  21.772  0.00  0.00    +0.000 OA
ENDBRANCH  23  30
ENDBRANCH  22  26
ENDBRANCH  21  22
ENDBRANCH  20  21
ENDBRANCH   1  20
TORSDOF 8
ENDMDL
MODEL 5
REMARK VINA RESULT:      -8.0      1.962      2.332
REMARK  Name = 
REMARK  9 active torsions:
REMARK  status: ('A' for Active; 'I' for Inactive)
REMARK    1  A    between atoms: C_1  and  O_2
REMARK    2  A    between atoms: O_2  and  C_3
REMARK    3  A    between atoms: C_6  and  C_7
REMARK    4  A    between atoms: C_7  and  C_8
REMARK    5  A    between atoms: C_8  and  C_9
REMARK    6  A    between atoms: C_9  and  N_10
REMARK    7  A    between atoms: C_11  and  C_13
REMARK    8  A    between atoms: N_18  and  C_19
REMARK    9  A    between atoms: C_19  and  C_20
REMARK                            x       y       z     vdW  Elec       q    Type
REMARK                         _______ _______ _______ _____ _____    ______ ____
ROOT
ATOM      1  N   UNL     1       2.317   5.955  18.933  0.00  0.00    +0.000 N 
ATOM      2  C   UNL     1       1.627   4.855  19.394  0.00  0.00    +0.000 C 
ATOM      3  O   UNL     1       1.231   4.786  20.554  0.00  0.00    +0.000 OA
ATOM      4  H   UNL     1       2.597   6.023  17.965  0.00  0.00    +0.000 HD
ENDROOT
BRANCH   2   5
ATOM      5  C   UNL     1       1.332   3.764  18.357  0.00  0.00    +0.000 C 
ATOM      6  C   UNL     1       1.171   2.399  19.021  0.00  0.00    +0.000 C 
ATOM      7  C   UNL     1       2.474   1.925  19.658  0.00  0.00    +0.000 C 
ATOM      8  C   UNL     1       3.762   2.381  18.990  0.00  0.00    +0.000 C 
ATOM      9  O   UNL     1       4.843   2.105  19.511  0.00  0.00    +0.000 OA
ATOM     10  N   UNL     1       3.670   3.077  17.795  0.00  0.00    +0.000 N 
ATOM     11  C   UNL     1       2.415   3.615  17.289  0.00  0.00    +0.000 C 
BRANCH  10  12
ATOM     12  C   UNL     1       4.885   3.346  17.028  0.00  0.00    +0.000 C 
BRANCH  12  13
ATOM     13  C   UNL     1       5.579   4.659  17.331  0.00  0.00    +0.000 A 
ATOM     14  C   UNL     1       6.778   4.677  18.070  0.00  0.00    +0.000 A 
ATOM     15  C   UNL     1       7.515   5.861  18.206  0.00  0.00    +0.000 A 
ATOM     16  C   UNL     1       7.060   7.037  17.613  0.00  0.00    +0.000 A 
ATOM     17 CL   UNL     1       8.005   8.471  17.721  0.00  0.00    +0.000 Cl
ATOM     18  C   UNL     1       5.860   7.052  16.915  0.00  0.00    +0.000 A 
ATOM     19  C   UNL     1       5.121   5.866  16.775  0.00  0.00    +0.000 A 
ENDBRANCH  12  13
ENDBRANCH  10  12
ENDBRANCH   2   5
BRANCH   1  20
ATOM     20  C   UNL     1       2.699   7.022  19.842  0.00  0.00    +0.000 C 
BRANCH  20  21
ATOM     21  C   UNL     1       1.623   8.105  19.924  0.00  0.00    +0.000 C 
BRANCH  21  22
ATOM     22  C   UNL     1       1.019   8.182  21.330  0.00  0.00    +0.000 C 
BRANCH  22  26
ATOM     23  C   UNL     1      -1.421  11.706  21.944  0.00  0.00    +0.000 A 
ATOM     24  C   UNL     1      -0.938  11.389  20.672  0.00  0.00    +0.000 A 
ATOM     25  C   UNL     1      -0.154  10.250  20.471  0.00  0.00    +0.000 A 
ATOM     26  C   UNL     1       0.179   9.418  21.547  0.00  0.00    +0.000 A 
ATOM     27  C   UNL     1      -0.302   9.747  22.822  0.00  0.00    +0.000 A 
ATOM     28  C   UNL     1      -1.091  10.887  23.020  0.00  0.00    +0.000 A 
BRANCH  23  30
ATOM     29  C   UNL     1      -3.196  12.973  21.038  0.00  0.00    +0.000 C 
ATOM     30  O   UNL     1      -2.167  12.850  22.014  0.00  0.00    +0.000 OA
ENDBRANCH  23  30
ENDBRANCH  22  26
ENDBRANCH  21  22
ENDBRANCH  20  21
ENDBRANCH   1  20
TORSDOF 8
ENDMDL
MODEL 6
REMARK VINA RESULT:      -8.0      1.099      1.608
REMARK  Name = 
REMARK  9 active torsions:
REMARK  status: ('A' for Active; 'I' for Inactive)
REMARK    1  A    between atoms: C_1  and  O_2
REMARK    2  A    between atoms: O_2  and  C_3
REMARK    3  A    between atoms: C_6  and  C_7
REMARK    4  A    between atoms: C_7  and  C_8
REMARK    5  A    between atoms: C_8  and  C_9
REMARK    6  A    between atoms: C_9  and  N_10
REMARK    7  A    between atoms: C_11  and  C_13
REMARK    8  A    between atoms: N_18  and  C_19
REMARK    9  A    between atoms: C_19  and  C_20
REMARK                            x       y       z     vdW  Elec       q    Type
REMARK                         _______ _______ _______ _____ _____    ______ ____
ROOT
ATOM      1  N   UNL     1       2.102   5.985  18.592  0.00  0.00    +0.000 N 
ATOM      2  C   UNL     1       1.539   4.886  19.203  0.00  0.00    +0.000 C 
ATOM      3  O   UNL     1       1.149   4.929  20.367  0.00  0.00    +0.000 OA
ATOM      4  H   UNL     1       2.376   5.954  17.620  0.00  0.00    +0.000 HD
ENDROOT
BRANCH   2   5
ATOM      5  C   UNL     1       1.374   3.639  18.326  0.00  0.00    +0.000 C 
ATOM      6  C   UNL     1       1.321   2.370  19.172  0.00  0.00    +0.000 C 
ATOM      7  C   UNL     1       2.644   2.114  19.887  0.00  0.00    +0.000 C 
ATOM      8  C   UNL     1       3.902   2.594  19.181  0.00  0.00    +0.000 C 
ATOM      9  O   UNL     1       4.990   2.496  19.751  0.00  0.00    +0.000 OA
ATOM     10  N   UNL     1       3.780   3.106  17.899  0.00  0.00    +0.000 N 
ATOM     11  C   UNL     1       2.495   3.448  17.304  0.00  0.00    +0.000 C 
BRANCH  10  12
ATOM     12  C   UNL     1       4.985   3.381  17.119  0.00  0.00    +0.000 C 
BRANCH  12  13
ATOM     13  C   UNL     1       5.664   4.707  17.399  0.00  0.00    +0.000 A 
ATOM     14  C   UNL     1       6.897   4.746  18.078  0.00  0.00    +0.000 A 
ATOM     15  C   UNL     1       7.613   5.945  18.188  0.00  0.00    +0.000 A 
ATOM     16  C   UNL     1       7.104   7.115  17.628  0.00  0.00    +0.000 A 
ATOM     17 CL   UNL     1       8.021   8.569  17.702  0.00  0.00    +0.000 Cl
ATOM     18  C   UNL     1       5.871   7.109  16.990  0.00  0.00    +0.000 A 
ATOM     19  C   UNL     1       5.153   5.907  16.876  0.00  0.00    +0.000 A 
ENDBRANCH  12  13
ENDBRANCH  10  12
ENDBRANCH   2   5
BRANCH   1  20
ATOM     20  C   UNL     1       2.357   7.201  19.346  0.00  0.00    +0.000 C 
BRANCH  20  21
ATOM     21  C   UNL     1       2.655   8.383  18.423  0.00  0.00    +0.000 C 
BRANCH  21  22
ATOM     22  C   UNL     1       1.435   8.741  17.568  0.00  0.00    +0.000 C 
BRANCH  22  26
ATOM     23  C   UNL     1      -0.980  11.908  19.266  0.00  0.00    +0.000 A 
ATOM     24  C   UNL     1       0.394  11.854  19.511  0.00  0.00    +0.000 A 
ATOM     25  C   UNL     1       1.177  10.834  18.961  0.00  0.00    +0.000 A 
ATOM     26  C   UNL     1       0.591   9.838  18.170  0.00  0.00    +0.000 A 
ATOM     27  C   UNL     1      -0.791   9.895  17.936  0.00  0.00    +0.000 A 
ATOM     28  C   UNL     1      -1.572  10.919  18.486  0.00  0.00    +0.000 A 
BRANCH  23  30
ATOM     29  C   UNL     1      -2.996  12.694  20.212  0.00  0.00    +0.000 C 
ATOM     30  O   UNL     1      -1.637  12.945  19.869  0.00  0.00    +0.000 OA
ENDBRANCH  23  30
ENDBRANCH  22  26
ENDBRANCH  21  22
ENDBRANCH  20  21
ENDBRANCH   1  20
TORSDOF 8
ENDMDL
MODEL 7
REMARK VINA RESULT:      -7.9      5.317      8.371
REMARK  Name = 
REMARK  9 active torsions:
REMARK  status: ('A' for Active; 'I' for Inactive)
REMARK    1  A    between atoms: C_1  and  O_2
REMARK    2  A    between atoms: O_2  and  C_3
REMARK    3  A    between atoms: C_6  and  C_7
REMARK    4  A    between atoms: C_7  and  C_8
REMARK    5  A    between atoms: C_8  and  C_9
REMARK    6  A    between atoms: C_9  and  N_10
REMARK    7  A    between atoms: C_11  and  C_13
REMARK    8  A    between atoms: N_18  and  C_19
REMARK    9  A    between atoms: C_19  and  C_20
REMARK                            x       y       z     vdW  Elec       q    Type
REMARK                         _______ _______ _______ _____ _____    ______ ____
ROOT
ATOM      1  N   UNL     1       8.157   7.730  18.183  0.00  0.00    +0.000 N 
ATOM      2  C   UNL     1       7.035   6.966  17.955  0.00  0.00    +0.000 C 
ATOM      3  O   UNL     1       6.125   7.362  17.231  0.00  0.00    +0.000 OA
ATOM      4  H   UNL     1       8.921   7.376  18.741  0.00  0.00    +0.000 HD
ENDROOT
BRANCH   2   5
ATOM      5  C   UNL     1       7.024   5.576  18.603  0.00  0.00    +0.000 C 
ATOM      6  C   UNL     1       7.824   4.573  17.776  0.00  0.00    +0.000 C 
ATOM      7  C   UNL     1       7.179   4.322  16.416  0.00  0.00    +0.000 C 
ATOM      8  C   UNL     1       5.664   4.438  16.351  0.00  0.00    +0.000 C 
ATOM      9  O   UNL     1       5.097   4.336  15.263  0.00  0.00    +0.000 OA
ATOM     10  N   UNL     1       4.970   4.631  17.535  0.00  0.00    +0.000 N 
ATOM     11  C   UNL     1       5.625   4.988  18.786  0.00  0.00    +0.000 C 
BRANCH  10  12
ATOM     12  C   UNL     1       3.511   4.538  17.532  0.00  0.00    +0.000 C 
BRANCH  12  13
ATOM     13  C   UNL     1       2.788   5.501  18.453  0.00  0.00    +0.000 A 
ATOM     14  C   UNL     1       2.266   5.054  19.682  0.00  0.00    +0.000 A 
ATOM     15  C   UNL     1       1.752   5.966  20.613  0.00  0.00    +0.000 A 
ATOM     16  C   UNL     1       1.747   7.329  20.323  0.00  0.00    +0.000 A 
ATOM     17 CL   UNL     1       1.181   8.452  21.499  0.00  0.00    +0.000 Cl
ATOM     18  C   UNL     1       2.218   7.789  19.101  0.00  0.00    +0.000 A 
ATOM     19  C   UNL     1       2.737   6.877  18.168  0.00  0.00    +0.000 A 
ENDBRANCH  12  13
ENDBRANCH  10  12
ENDBRANCH   2   5
BRANCH   1  20
ATOM     20  C   UNL     1       8.248   9.085  17.664  0.00  0.00    +0.000 C 
BRANCH  20  21
ATOM     21  C   UNL     1       8.462  10.104  18.784  0.00  0.00    +0.000 C 
BRANCH  21  22
ATOM     22  C   UNL     1       9.947  10.443  18.950  0.00  0.00    +0.000 C 
BRANCH  22  26
ATOM     23  C   UNL     1      11.046  14.252  17.209  0.00  0.00    +0.000 A 
ATOM     24  C   UNL     1       9.809  14.089  17.838  0.00  0.00    +0.000 A 
ATOM     25  C   UNL     1       9.454  12.861  18.404  0.00  0.00    +0.000 A 
ATOM     26  C   UNL     1      10.325  11.767  18.331  0.00  0.00    +0.000 A 
ATOM     27  C   UNL     1      11.561  11.936  17.691  0.00  0.00    +0.000 A 
ATOM     28  C   UNL     1      11.916  13.168  17.127  0.00  0.00    +0.000 A 
BRANCH  23  30
ATOM     29  C   UNL     1      10.341  16.502  17.071  0.00  0.00    +0.000 C 
ATOM     30  O   UNL     1      11.271  15.495  16.685  0.00  0.00    +0.000 OA
ENDBRANCH  23  30
ENDBRANCH  22  26
ENDBRANCH  21  22
ENDBRANCH  20  21
ENDBRANCH   1  20
TORSDOF 8
ENDMDL
MODEL 8
REMARK VINA RESULT:      -7.9      0.961      1.296
REMARK  Name = 
REMARK  9 active torsions:
REMARK  status: ('A' for Active; 'I' for Inactive)
REMARK    1  A    between atoms: C_1  and  O_2
REMARK    2  A    between atoms: O_2  and  C_3
REMARK    3  A    between atoms: C_6  and  C_7
REMARK    4  A    between atoms: C_7  and  C_8
REMARK    5  A    between atoms: C_8  and  C_9
REMARK    6  A    between atoms: C_9  and  N_10
REMARK    7  A    between atoms: C_11  and  C_13
REMARK    8  A    between atoms: N_18  and  C_19
REMARK    9  A    between atoms: C_19  and  C_20
REMARK                            x       y       z     vdW  Elec       q    Type
REMARK                         _______ _______ _______ _____ _____    ______ ____
ROOT
ATOM      1  N   UNL     1       1.571   6.415  19.438  0.00  0.00    +0.000 N 
ATOM      2  C   UNL     1       1.691   5.326  20.273  0.00  0.00    +0.000 C 
ATOM      3  O   UNL     1       2.152   5.434  21.407  0.00  0.00    +0.000 OA
ATOM      4  H   UNL     1       1.147   6.324  18.526  0.00  0.00    +0.000 HD
ENDROOT
BRANCH   2   5
ATOM      5  C   UNL     1       1.159   3.996  19.726  0.00  0.00    +0.000 C 
ATOM      6  C   UNL     1       1.377   2.860  20.721  0.00  0.00    +0.000 C 
ATOM      7  C   UNL     1       2.860   2.574  20.935  0.00  0.00    +0.000 C 
ATOM      8  C   UNL     1       3.779   2.834  19.751  0.00  0.00    +0.000 C 
ATOM      9  O   UNL     1       4.996   2.708  19.892  0.00  0.00    +0.000 OA
ATOM     10  N   UNL     1       3.204   3.183  18.539  0.00  0.00    +0.000 N 
ATOM     11  C   UNL     1       1.805   3.565  18.409  0.00  0.00    +0.000 C 
BRANCH  10  12
ATOM     12  C   UNL     1       4.039   3.235  17.340  0.00  0.00    +0.000 C 
BRANCH  12  13
ATOM     13  C   UNL     1       4.924   4.458  17.205  0.00  0.00    +0.000 A 
ATOM     14  C   UNL     1       4.373   5.750  17.308  0.00  0.00    +0.000 A 
ATOM     15  C   UNL     1       5.204   6.877  17.359  0.00  0.00    +0.000 A 
ATOM     16  C   UNL     1       6.588   6.727  17.300  0.00  0.00    +0.000 A 
ATOM     17 CL   UNL     1       7.606   8.108  17.436  0.00  0.00    +0.000 Cl
ATOM     18  C   UNL     1       7.151   5.466  17.157  0.00  0.00    +0.000 A 
ATOM     19  C   UNL     1       6.321   4.334  17.110  0.00  0.00    +0.000 A 
ENDBRANCH  12  13
ENDBRANCH  10  12
ENDBRANCH   2   5
BRANCH   1  20
ATOM     20  C   UNL     1       2.094   7.712  19.834  0.00  0.00    +0.000 C 
BRANCH  20  21
ATOM     21  C   UNL     1       1.614   8.821  18.898  0.00  0.00    +0.000 C 
BRANCH  21  22
ATOM     22  C   UNL     1       0.909   9.937  19.677  0.00  0.00    +0.000 C 
BRANCH  22  26
ATOM     23  C   UNL     1      -2.747  11.279  17.785  0.00  0.00    +0.000 A 
ATOM     24  C   UNL     1      -1.971  10.275  17.199  0.00  0.00    +0.000 A 
ATOM     25  C   UNL     1      -0.793   9.837  17.811  0.00  0.00    +0.000 A 
ATOM     26  C   UNL     1      -0.359  10.415  19.011  0.00  0.00    +0.000 A 
ATOM     27  C   UNL     1      -1.138  11.428  19.587  0.00  0.00    +0.000 A 
ATOM     28  C   UNL     1      -2.320  11.862  18.975  0.00  0.00    +0.000 A 
BRANCH  23  30
ATOM     29  C   UNL     1      -5.106  11.244  17.678  0.00  0.00    +0.000 C 
ATOM     30  O   UNL     1      -3.869  11.627  17.085  0.00  0.00    +0.000 OA
ENDBRANCH  23  30
ENDBRANCH  22  26
ENDBRANCH  21  22
ENDBRANCH  20  21
ENDBRANCH   1  20
TORSDOF 8
ENDMDL
MODEL 9
REMARK VINA RESULT:      -7.8      1.135      1.555
REMARK  Name = 
REMARK  9 active torsions:
REMARK  status: ('A' for Active; 'I' for Inactive)
REMARK    1  A    between atoms: C_1  and  O_2
REMARK    2  A    between atoms: O_2  and  C_3
REMARK    3  A    between atoms: C_6  and  C_7
REMARK    4  A    between atoms: C_7  and  C_8
REMARK    5  A    between atoms: C_8  and  C_9
REMARK    6  A    between atoms: C_9  and  N_10
REMARK    7  A    between atoms: C_11  and  C_13
REMARK    8  A    between atoms: N_18  and  C_19
REMARK    9  A    between atoms: C_19  and  C_20
REMARK                            x       y       z     vdW  Elec       q    Type
REMARK                         _______ _______ _______ _____ _____    ______ ____
ROOT
ATOM      1  N   UNL     1       1.159   6.680  20.607  0.00  0.00    +0.000 N 
ATOM      2  C   UNL     1       2.016   5.872  19.893  0.00  0.00    +0.000 C 
ATOM      3  O   UNL     1       3.211   6.136  19.792  0.00  0.00    +0.000 OA
ATOM      4  H   UNL     1       0.187   6.429  20.725  0.00  0.00    +0.000 HD
ENDROOT
BRANCH   2   5
ATOM      5  C   UNL     1       1.400   4.602  19.294  0.00  0.00    +0.000 C 
ATOM      6  C   UNL     1       1.284   3.496  20.338  0.00  0.00    +0.000 C 
ATOM      7  C   UNL     1       2.654   3.022  20.813  0.00  0.00    +0.000 C 
ATOM      8  C   UNL     1       3.787   3.098  19.800  0.00  0.00    +0.000 C 
ATOM      9  O   UNL     1       4.932   2.815  20.153  0.00  0.00    +0.000 OA
ATOM     10  N   UNL     1       3.480   3.463  18.499  0.00  0.00    +0.000 N 
ATOM     11  C   UNL     1       2.191   4.025  18.119  0.00  0.00    +0.000 C 
BRANCH  10  12
ATOM     12  C   UNL     1       4.503   3.344  17.462  0.00  0.00    +0.000 C 
BRANCH  12  13
ATOM     13  C   UNL     1       5.442   4.526  17.324  0.00  0.00    +0.000 A 
ATOM     14  C   UNL     1       5.001   5.719  16.720  0.00  0.00    +0.000 A 
ATOM     15  C   UNL     1       5.802   6.869  16.743  0.00  0.00    +0.000 A 
ATOM     16  C   UNL     1       7.049   6.837  17.362  0.00  0.00    +0.000 A 
ATOM     17 CL   UNL     1       7.998   8.270  17.452  0.00  0.00    +0.000 Cl
ATOM     18  C   UNL     1       7.522   5.661  17.928  0.00  0.00    +0.000 A 
ATOM     19  C   UNL     1       6.720   4.508  17.909  0.00  0.00    +0.000 A 
ENDBRANCH  12  13
ENDBRANCH  10  12
ENDBRANCH   2   5
BRANCH   1  20
ATOM     20  C   UNL     1       1.624   7.936  21.171  0.00  0.00    +0.000 C 
BRANCH  20  21
ATOM     21  C   UNL     1       0.457   8.837  21.578  0.00  0.00    +0.000 C 
BRANCH  21  22
ATOM     22  C   UNL     1       0.635  10.257  21.030  0.00  0.00    +0.000 C 
BRANCH  22  26
ATOM     23  C   UNL     1      -2.282  11.245  17.986  0.00  0.00    +0.000 A 
ATOM     24  C   UNL     1      -1.360  10.216  17.779  0.00  0.00    +0.000 A 
ATOM     25  C   UNL     1      -0.420   9.892  18.762  0.00  0.00    +0.000 A 
ATOM     26  C   UNL     1      -0.374  10.611  19.964  0.00  0.00    +0.000 A 
ATOM     27  C   UNL     1      -1.297  11.648  20.160  0.00  0.00    +0.000 A 
ATOM     28  C   UNL     1      -2.239  11.967  19.175  0.00  0.00    +0.000 A 
BRANCH  23  30
ATOM     29  C   UNL     1      -2.719  10.975  15.681  0.00  0.00    +0.000 C 
ATOM     30  O   UNL     1      -3.141  11.473  16.946  0.00  0.00    +0.000 OA
ENDBRANCH  23  30
ENDBRANCH  22  26
ENDBRANCH  21  22
ENDBRANCH  20  21
ENDBRANCH   1  20
TORSDOF 8
ENDMDL
