MODEL 1
REMARK VINA RESULT:      -7.6      0.000      0.000
REMARK  Name = 
REMARK  11 active torsions:
REMARK  status: ('A' for Active; 'I' for Inactive)
REMARK    1  A    between atoms: C_1  and  O_2
REMARK    2  A    between atoms: O_2  and  C_3
REMARK    3  A    between atoms: C_3  and  C_4
REMARK    4  A    between atoms: C_3  and  C_12
REMARK    5  A    between atoms: C_5  and  C_6
REMARK    6  A    between atoms: C_12  and  C_13
REMARK    7  A    between atoms: C_13  and  O_14
REMARK    8  A    between atoms: C_13  and  C_15
REMARK    9  A    between atoms: C_15  and  C_16
REMARK   10  A    between atoms: C_16  and  C_17
REMARK   11  A    between atoms: C_20  and  O_21
REMARK                            x       y       z     vdW  Elec       q    Type
REMARK                         _______ _______ _______ _____ _____    ______ ____
ROOT
ATOM      1  C   UNL     1       5.038   6.889  16.792  0.00  0.00    +0.000 C 
ENDROOT
BRANCH   1   2
ATOM      2  O   UNL     1       5.784   6.543  15.627  0.00  0.00    +0.000 OA
ATOM      3  H   UNL     1       6.688   6.891  15.719  0.00  0.00    +0.000 HD
ENDBRANCH   1   2
BRANCH   1   4
ATOM      4  C   UNL     1       5.991   7.227  17.938  0.00  0.00    +0.000 C 
BRANCH   4   5
ATOM      5  C   UNL     1       7.487   6.955  17.729  0.00  0.00    +0.000 C 
BRANCH   5   7
ATOM      6  C   UNL     1       7.647   4.548  17.580  0.00  0.00    +0.000 C 
ATOM      7  O   UNL     1       7.798   5.712  18.380  0.00  0.00    +0.000 OA
ENDBRANCH   5   7
BRANCH   5   8
ATOM      8  C   UNL     1       8.325   8.055  18.351  0.00  0.00    +0.000 C 
ATOM      9  C   UNL     1       8.307   9.357  18.014  0.00  0.00    +0.000 C 
BRANCH   9  10
ATOM     10  C   UNL     1       9.174  10.396  18.596  0.00  0.00    +0.000 A 
ATOM     11  C   UNL     1       9.274  10.482  19.993  0.00  0.00    +0.000 A 
ATOM     12  C   UNL     1      10.097  11.436  20.596  0.00  0.00    +0.000 A 
ATOM     13  C   UNL     1      10.836  12.316  19.811  0.00  0.00    +0.000 A 
ATOM     14  C   UNL     1      10.761  12.235  18.422  0.00  0.00    +0.000 A 
ATOM     15  C   UNL     1       9.939  11.277  17.820  0.00  0.00    +0.000 A 
ENDBRANCH   9  10
ENDBRANCH   5   8
ENDBRANCH   4   5
ENDBRANCH   1   4
BRANCH   1  16
ATOM     16  C   UNL     1       4.124   5.715  17.181  0.00  0.00    +0.000 C 
BRANCH  16  17
ATOM     17  C   UNL     1       2.813   6.190  17.818  0.00  0.00    +0.000 C 
BRANCH  17  18
ATOM     18  C   UNL     1       2.306   5.237  18.865  0.00  0.00    +0.000 A 
ATOM     19  C   UNL     1       1.533   4.122  18.487  0.00  0.00    +0.000 A 
ATOM     20  C   UNL     1       1.071   3.231  19.451  0.00  0.00    +0.000 A 
ATOM     21  C   UNL     1       1.380   3.451  20.787  0.00  0.00    +0.000 A 
ATOM     22  C   UNL     1       2.143   4.548  21.174  0.00  0.00    +0.000 A 
ATOM     23  C   UNL     1       2.606   5.440  20.212  0.00  0.00    +0.000 A 
BRANCH  21  24
ATOM     24  O   UNL     1       0.954   2.603  21.768  0.00  0.00    +0.000 OA
ATOM     25  H   UNL     1       1.134   3.018  22.631  0.00  0.00    +0.000 HD
ENDBRANCH  21  24
ENDBRANCH  17  18
ENDBRANCH  16  17
ENDBRANCH   1  16
TORSDOF 10
ENDMDL
MODEL 2
REMARK VINA RESULT:      -7.5      3.282      5.250
REMARK  Name = 
REMARK  11 active torsions:
REMARK  status: ('A' for Active; 'I' for Inactive)
REMARK    1  A    between atoms: C_1  and  O_2
REMARK    2  A    between atoms: O_2  and  C_3
REMARK    3  A    between atoms: C_3  and  C_4
REMARK    4  A    between atoms: C_3  and  C_12
REMARK    5  A    between atoms: C_5  and  C_6
REMARK    6  A    between atoms: C_12  and  C_13
REMARK    7  A    between atoms: C_13  and  O_14
REMARK    8  A    between atoms: C_13  and  C_15
REMARK    9  A    between atoms: C_15  and  C_16
REMARK   10  A    between atoms: C_16  and  C_17
REMARK   11  A    between atoms: C_20  and  O_21
REMARK                            x       y       z     vdW  Elec       q    Type
REMARK                         _______ _______ _______ _____ _____    ______ ____
ROOT
ATOM      1  C   UNL     1       4.989   4.206  16.045  0.00  0.00    +0.000 C 
ENDROOT
BRANCH   1   2
ATOM      2  O   UNL     1       6.118   3.656  15.369  0.00  0.00    +0.000 OA
ATOM      3  H   UNL     1       6.883   3.673  15.970  0.00  0.00    +0.000 HD
ENDBRANCH   1   2
BRANCH   1   4
ATOM      4  C   UNL     1       5.450   5.247  17.065  0.00  0.00    +0.000 C 
BRANCH   4   5
ATOM      5  C   UNL     1       5.401   6.724  16.653  0.00  0.00    +0.000 C 
BRANCH   5   7
ATOM      6  C   UNL     1       7.592   6.483  17.643  0.00  0.00    +0.000 C 
ATOM      7  O   UNL     1       6.709   7.279  16.867  0.00  0.00    +0.000 OA
ENDBRANCH   5   7
BRANCH   5   8
ATOM      8  C   UNL     1       4.402   7.485  17.501  0.00  0.00    +0.000 C 
ATOM      9  C   UNL     1       3.306   6.976  18.092  0.00  0.00    +0.000 C 
BRANCH   9  10
ATOM     10  C   UNL     1       2.320   7.751  18.865  0.00  0.00    +0.000 A 
ATOM     11  C   UNL     1       2.005   7.328  20.165  0.00  0.00    +0.000 A 
ATOM     12  C   UNL     1       1.092   8.038  20.949  0.00  0.00    +0.000 A 
ATOM     13  C   UNL     1       0.485   9.186  20.446  0.00  0.00    +0.000 A 
ATOM     14  C   UNL     1       0.799   9.628  19.163  0.00  0.00    +0.000 A 
ATOM     15  C   UNL     1       1.715   8.918  18.380  0.00  0.00    +0.000 A 
ENDBRANCH   9  10
ENDBRANCH   5   8
ENDBRANCH   4   5
ENDBRANCH   1   4
BRANCH   1  16
ATOM     16  C   UNL     1       4.211   3.077  16.742  0.00  0.00    +0.000 C 
BRANCH  16  17
ATOM     17  C   UNL     1       2.765   3.480  17.055  0.00  0.00    +0.000 C 
BRANCH  17  18
ATOM     18  C   UNL     1       2.417   3.287  18.505  0.00  0.00    +0.000 A 
ATOM     19  C   UNL     1       3.388   2.809  19.405  0.00  0.00    +0.000 A 
ATOM     20  C   UNL     1       3.074   2.639  20.749  0.00  0.00    +0.000 A 
ATOM     21  C   UNL     1       1.795   2.947  21.195  0.00  0.00    +0.000 A 
ATOM     22  C   UNL     1       0.825   3.421  20.316  0.00  0.00    +0.000 A 
ATOM     23  C   UNL     1       1.138   3.591  18.972  0.00  0.00    +0.000 A 
BRANCH  21  24
ATOM     24  O   UNL     1       1.439   2.802  22.505  0.00  0.00    +0.000 OA
ATOM     25  H   UNL     1       2.174   2.368  22.975  0.00  0.00    +0.000 HD
ENDBRANCH  21  24
ENDBRANCH  17  18
ENDBRANCH  16  17
ENDBRANCH   1  16
TORSDOF 10
ENDMDL
MODEL 3
REMARK VINA RESULT:      -7.4      2.929      5.221
REMARK  Name = 
REMARK  11 active torsions:
REMARK  status: ('A' for Active; 'I' for Inactive)
REMARK    1  A    between atoms: C_1  and  O_2
REMARK    2  A    between atoms: O_2  and  C_3
REMARK    3  A    between atoms: C_3  and  C_4
REMARK    4  A    between atoms: C_3  and  C_12
REMARK    5  A    between atoms: C_5  and  C_6
REMARK    6  A    between atoms: C_12  and  C_13
REMARK    7  A    between atoms: C_13  and  O_14
REMARK    8  A    between atoms: C_13  and  C_15
REMARK    9  A    between atoms: C_15  and  C_16
REMARK   10  A    between atoms: C_16  and  C_17
REMARK   11  A    between atoms: C_20  and  O_21
REMARK                            x       y       z     vdW  Elec       q    Type
REMARK                         _______ _______ _______ _____ _____    ______ ____
ROOT
ATOM      1  C   UNL     1       5.023   4.458  15.645  0.00  0.00    +0.000 C 
ENDROOT
BRANCH   1   2
ATOM      2  O   UNL     1       5.506   3.734  14.514  0.00  0.00    +0.000 OA
ATOM      3  H   UNL     1       6.265   3.192  14.790  0.00  0.00    +0.000 HD
ENDBRANCH   1   2
BRANCH   1   4
ATOM      4  C   UNL     1       6.136   5.340  16.211  0.00  0.00    +0.000 C 
BRANCH   4   5
ATOM      5  C   UNL     1       5.824   6.825  16.442  0.00  0.00    +0.000 C 
BRANCH   5   7
ATOM      6  C   UNL     1       7.679   7.145  17.958  0.00  0.00    +0.000 C 
ATOM      7  O   UNL     1       7.066   7.491  16.724  0.00  0.00    +0.000 OA
ENDBRANCH   5   7
BRANCH   5   8
ATOM      8  C   UNL     1       4.895   7.001  17.626  0.00  0.00    +0.000 C 
ATOM      9  C   UNL     1       3.570   7.228  17.573  0.00  0.00    +0.000 C 
BRANCH   9  10
ATOM     10  C   UNL     1       2.699   7.452  18.740  0.00  0.00    +0.000 A 
ATOM     11  C   UNL     1       2.021   8.675  18.847  0.00  0.00    +0.000 A 
ATOM     12  C   UNL     1       1.167   8.930  19.923  0.00  0.00    +0.000 A 
ATOM     13  C   UNL     1       0.976   7.964  20.907  0.00  0.00    +0.000 A 
ATOM     14  C   UNL     1       1.631   6.738  20.808  0.00  0.00    +0.000 A 
ATOM     15  C   UNL     1       2.482   6.483  19.729  0.00  0.00    +0.000 A 
ENDBRANCH   9  10
ENDBRANCH   5   8
ENDBRANCH   4   5
ENDBRANCH   1   4
BRANCH   1  16
ATOM     16  C   UNL     1       4.526   3.467  16.711  0.00  0.00    +0.000 C 
BRANCH  16  17
ATOM     17  C   UNL     1       3.005   3.532  16.894  0.00  0.00    +0.000 C 
BRANCH  17  18
ATOM     18  C   UNL     1       2.588   3.280  18.317  0.00  0.00    +0.000 A 
ATOM     19  C   UNL     1       1.232   3.381  18.682  0.00  0.00    +0.000 A 
ATOM     20  C   UNL     1       0.840   3.139  19.995  0.00  0.00    +0.000 A 
ATOM     21  C   UNL     1       1.798   2.795  20.939  0.00  0.00    +0.000 A 
ATOM     22  C   UNL     1       3.142   2.692  20.593  0.00  0.00    +0.000 A 
ATOM     23  C   UNL     1       3.535   2.934  19.281  0.00  0.00    +0.000 A 
BRANCH  21  24
ATOM     24  O   UNL     1       1.463   2.543  22.239  0.00  0.00    +0.000 OA
ATOM     25  H   UNL     1       2.027   1.820  22.566  0.00  0.00    +0.000 HD
ENDBRANCH  21  24
ENDBRANCH  17  18
ENDBRANCH  16  17
ENDBRANCH   1  16
TORSDOF 10
ENDMDL
MODEL 4
REMARK VINA RESULT:      -7.4      3.519      7.026
REMARK  Name = 
REMARK  11 active torsions:
REMARK  status: ('A' for Active; 'I' for Inactive)
REMARK    1  A    between atoms: C_1  and  O_2
REMARK    2  A    between atoms: O_2  and  C_3
REMARK    3  A    between atoms: C_3  and  C_4
REMARK    4  A    between atoms: C_3  and  C_12
REMARK    5  A    between atoms: C_5  and  C_6
REMARK    6  A    between atoms: C_12  and  C_13
REMARK    7  A    between atoms: C_13  and  O_14
REMARK    8  A    between atoms: C_13  and  C_15
REMARK    9  A    between atoms: C_15  and  C_16
REMARK   10  A    between atoms: C_16  and  C_17
REMARK   11  A    between atoms: C_20  and  O_21
REMARK                            x       y       z     vdW  Elec       q    Type
REMARK                         _______ _______ _______ _____ _____    ______ ____
ROOT
ATOM      1  C   UNL     1       1.962   2.858  18.139  0.00  0.00    +0.000 C 
ENDROOT
BRANCH   1   2
ATOM      2  O   UNL     1       1.404   3.820  17.245  0.00  0.00    +0.000 OA
ATOM      3  H   UNL     1       2.124   4.225  16.732  0.00  0.00    +0.000 HD
ENDBRANCH   1   2
BRANCH   1   4
ATOM      4  C   UNL     1       1.472   3.125  19.562  0.00  0.00    +0.000 C 
BRANCH   4   5
ATOM      5  C   UNL     1       2.295   4.082  20.435  0.00  0.00    +0.000 C 
BRANCH   5   7
ATOM      6  C   UNL     1       1.474   2.417  21.982  0.00  0.00    +0.000 C 
ATOM      7  O   UNL     1       2.190   3.629  21.795  0.00  0.00    +0.000 OA
ENDBRANCH   5   7
BRANCH   5   8
ATOM      8  C   UNL     1       1.750   5.493  20.347  0.00  0.00    +0.000 C 
ATOM      9  C   UNL     1       2.340   6.540  19.741  0.00  0.00    +0.000 C 
BRANCH   9  10
ATOM     10  C   UNL     1       1.814   7.916  19.719  0.00  0.00    +0.000 A 
ATOM     11  C   UNL     1       1.316   8.463  20.911  0.00  0.00    +0.000 A 
ATOM     12  C   UNL     1       0.825   9.770  20.949  0.00  0.00    +0.000 A 
ATOM     13  C   UNL     1       0.827  10.551  19.796  0.00  0.00    +0.000 A 
ATOM     14  C   UNL     1       1.332  10.027  18.608  0.00  0.00    +0.000 A 
ATOM     15  C   UNL     1       1.826   8.720  18.572  0.00  0.00    +0.000 A 
ENDBRANCH   9  10
ENDBRANCH   5   8
ENDBRANCH   4   5
ENDBRANCH   1   4
BRANCH   1  16
ATOM     16  C   UNL     1       3.497   2.932  18.076  0.00  0.00    +0.000 C 
BRANCH  16  17
ATOM     17  C   UNL     1       3.997   3.392  16.701  0.00  0.00    +0.000 C 
BRANCH  17  18
ATOM     18  C   UNL     1       4.903   4.588  16.792  0.00  0.00    +0.000 A 
ATOM     19  C   UNL     1       4.373   5.851  17.120  0.00  0.00    +0.000 A 
ATOM     20  C   UNL     1       5.209   6.959  17.216  0.00  0.00    +0.000 A 
ATOM     21  C   UNL     1       6.571   6.807  16.987  0.00  0.00    +0.000 A 
ATOM     22  C   UNL     1       7.109   5.565  16.663  0.00  0.00    +0.000 A 
ATOM     23  C   UNL     1       6.274   4.457  16.567  0.00  0.00    +0.000 A 
BRANCH  21  24
ATOM     24  O   UNL     1       7.432   7.862  17.075  0.00  0.00    +0.000 OA
ATOM     25  H   UNL     1       8.284   7.595  16.685  0.00  0.00    +0.000 HD
ENDBRANCH  21  24
ENDBRANCH  17  18
ENDBRANCH  16  17
ENDBRANCH   1  16
TORSDOF 10
ENDMDL
MODEL 5
REMARK VINA RESULT:      -7.4      2.342      9.120
REMARK  Name = 
REMARK  11 active torsions:
REMARK  status: ('A' for Active; 'I' for Inactive)
REMARK    1  A    between atoms: C_1  and  O_2
REMARK    2  A    between atoms: O_2  and  C_3
REMARK    3  A    between atoms: C_3  and  C_4
REMARK    4  A    between atoms: C_3  and  C_12
REMARK    5  A    between atoms: C_5  and  C_6
REMARK    6  A    between atoms: C_12  and  C_13
REMARK    7  A    between atoms: C_13  and  O_14
REMARK    8  A    between atoms: C_13  and  C_15
REMARK    9  A    between atoms: C_15  and  C_16
REMARK   10  A    between atoms: C_16  and  C_17
REMARK   11  A    between atoms: C_20  and  O_21
REMARK                            x       y       z     vdW  Elec       q    Type
REMARK                         _______ _______ _______ _____ _____    ______ ____
ROOT
ATOM      1  C   UNL     1       7.878   7.205  17.591  0.00  0.00    +0.000 C 
ENDROOT
BRANCH   1   2
ATOM      2  O   UNL     1       6.716   7.573  16.852  0.00  0.00    +0.000 OA
ATOM      3  H   UNL     1       6.478   8.489  17.076  0.00  0.00    +0.000 HD
ENDBRANCH   1   2
BRANCH   1   4
ATOM      4  C   UNL     1       7.586   5.963  18.434  0.00  0.00    +0.000 C 
BRANCH   4   5
ATOM      5  C   UNL     1       7.106   4.701  17.705  0.00  0.00    +0.000 C 
BRANCH   5   7
ATOM      6  C   UNL     1       6.421   4.252  15.432  0.00  0.00    +0.000 C 
ATOM      7  O   UNL     1       7.343   4.893  16.301  0.00  0.00    +0.000 OA
ENDBRANCH   5   7
BRANCH   5   8
ATOM      8  C   UNL     1       5.623   4.485  17.925  0.00  0.00    +0.000 C 
ATOM      9  C   UNL     1       5.046   3.979  19.031  0.00  0.00    +0.000 C 
BRANCH   9  10
ATOM     10  C   UNL     1       3.604   3.727  19.197  0.00  0.00    +0.000 A 
ATOM     11  C   UNL     1       3.073   2.522  18.713  0.00  0.00    +0.000 A 
ATOM     12  C   UNL     1       1.717   2.224  18.863  0.00  0.00    +0.000 A 
ATOM     13  C   UNL     1       0.871   3.126  19.503  0.00  0.00    +0.000 A 
ATOM     14  C   UNL     1       1.384   4.321  20.002  0.00  0.00    +0.000 A 
ATOM     15  C   UNL     1       2.743   4.616  19.854  0.00  0.00    +0.000 A 
ENDBRANCH   9  10
ENDBRANCH   5   8
ENDBRANCH   4   5
ENDBRANCH   1   4
BRANCH   1  16
ATOM     16  C   UNL     1       8.305   8.377  18.491  0.00  0.00    +0.000 C 
BRANCH  16  17
ATOM     17  C   UNL     1       8.219   9.724  17.763  0.00  0.00    +0.000 C 
BRANCH  17  18
ATOM     18  C   UNL     1       9.057  10.785  18.420  0.00  0.00    +0.000 A 
ATOM     19  C   UNL     1       9.085  12.090  17.892  0.00  0.00    +0.000 A 
ATOM     20  C   UNL     1       9.850  13.077  18.503  0.00  0.00    +0.000 A 
ATOM     21  C   UNL     1      10.585  12.764  19.640  0.00  0.00    +0.000 A 
ATOM     22  C   UNL     1      10.568  11.479  20.173  0.00  0.00    +0.000 A 
ATOM     23  C   UNL     1       9.803  10.491  19.563  0.00  0.00    +0.000 A 
BRANCH  21  24
ATOM     24  O   UNL     1      11.348  13.700  20.278  0.00  0.00    +0.000 OA
ATOM     25  H   UNL     1      10.752  14.345  20.699  0.00  0.00    +0.000 HD
ENDBRANCH  21  24
ENDBRANCH  17  18
ENDBRANCH  16  17
ENDBRANCH   1  16
TORSDOF 10
ENDMDL
MODEL 6
REMARK VINA RESULT:      -7.3      0.936      1.504
REMARK  Name = 
REMARK  11 active torsions:
REMARK  status: ('A' for Active; 'I' for Inactive)
REMARK    1  A    between atoms: C_1  and  O_2
REMARK    2  A    between atoms: O_2  and  C_3
REMARK    3  A    between atoms: C_3  and  C_4
REMARK    4  A    between atoms: C_3  and  C_12
REMARK    5  A    between atoms: C_5  and  C_6
REMARK    6  A    between atoms: C_12  and  C_13
REMARK    7  A    between atoms: C_13  and  O_14
REMARK    8  A    between atoms: C_13  and  C_15
REMARK    9  A    between atoms: C_15  and  C_16
REMARK   10  A    between atoms: C_16  and  C_17
REMARK   11  A    between atoms: C_20  and  O_21
REMARK                            x       y       z     vdW  Elec       q    Type
REMARK                         _______ _______ _______ _____ _____    ______ ____
ROOT
ATOM      1  C   UNL     1       5.070   6.603  16.383  0.00  0.00    +0.000 C 
ENDROOT
BRANCH   1   2
ATOM      2  O   UNL     1       5.880   5.826  15.504  0.00  0.00    +0.000 OA
ATOM      3  H   UNL     1       5.441   4.973  15.345  0.00  0.00    +0.000 HD
ENDBRANCH   1   2
BRANCH   1   4
ATOM      4  C   UNL     1       5.957   7.413  17.329  0.00  0.00    +0.000 C 
BRANCH   4   5
ATOM      5  C   UNL     1       7.476   7.228  17.218  0.00  0.00    +0.000 C 
BRANCH   5   7
ATOM      6  C   UNL     1       7.955   5.838  19.136  0.00  0.00    +0.000 C 
ATOM      7  O   UNL     1       7.794   5.922  17.727  0.00  0.00    +0.000 OA
ENDBRANCH   5   7
BRANCH   5   8
ATOM      8  C   UNL     1       8.205   8.266  18.047  0.00  0.00    +0.000 C 
ATOM      9  C   UNL     1       8.318   9.576  17.764  0.00  0.00    +0.000 C 
BRANCH   9  10
ATOM     10  C   UNL     1       9.081  10.554  18.559  0.00  0.00    +0.000 A 
ATOM     11  C   UNL     1       9.572  11.703  17.920  0.00  0.00    +0.000 A 
ATOM     12  C   UNL     1      10.284  12.671  18.632  0.00  0.00    +0.000 A 
ATOM     13  C   UNL     1      10.512  12.507  19.995  0.00  0.00    +0.000 A 
ATOM     14  C   UNL     1      10.019  11.380  20.648  0.00  0.00    +0.000 A 
ATOM     15  C   UNL     1       9.304  10.413  19.935  0.00  0.00    +0.000 A 
ENDBRANCH   9  10
ENDBRANCH   5   8
ENDBRANCH   4   5
ENDBRANCH   1   4
BRANCH   1  16
ATOM     16  C   UNL     1       4.142   5.672  17.181  0.00  0.00    +0.000 C 
BRANCH  16  17
ATOM     17  C   UNL     1       4.489   5.651  18.674  0.00  0.00    +0.000 C 
BRANCH  17  18
ATOM     18  C   UNL     1       3.506   4.849  19.480  0.00  0.00    +0.000 A 
ATOM     19  C   UNL     1       2.253   5.399  19.815  0.00  0.00    +0.000 A 
ATOM     20  C   UNL     1       1.336   4.657  20.551  0.00  0.00    +0.000 A 
ATOM     21  C   UNL     1       1.666   3.368  20.951  0.00  0.00    +0.000 A 
ATOM     22  C   UNL     1       2.900   2.812  20.628  0.00  0.00    +0.000 A 
ATOM     23  C   UNL     1       3.818   3.553  19.892  0.00  0.00    +0.000 A 
BRANCH  21  24
ATOM     24  O   UNL     1       0.798   2.598  21.671  0.00  0.00    +0.000 OA
ATOM     25  H   UNL     1       1.254   1.775  21.921  0.00  0.00    +0.000 HD
ENDBRANCH  21  24
ENDBRANCH  17  18
ENDBRANCH  16  17
ENDBRANCH   1  16
TORSDOF 10
ENDMDL
MODEL 7
REMARK VINA RESULT:      -7.3      2.492      9.434
REMARK  Name = 
REMARK  11 active torsions:
REMARK  status: ('A' for Active; 'I' for Inactive)
REMARK    1  A    between atoms: C_1  and  O_2
REMARK    2  A    between atoms: O_2  and  C_3
REMARK    3  A    between atoms: C_3  and  C_4
REMARK    4  A    between atoms: C_3  and  C_12
REMARK    5  A    between atoms: C_5  and  C_6
REMARK    6  A    between atoms: C_12  and  C_13
REMARK    7  A    between atoms: C_13  and  O_14
REMARK    8  A    between atoms: C_13  and  C_15
REMARK    9  A    between atoms: C_15  and  C_16
REMARK   10  A    between atoms: C_16  and  C_17
REMARK   11  A    between atoms: C_20  and  O_21
REMARK                            x       y       z     vdW  Elec       q    Type
REMARK                         _______ _______ _______ _____ _____    ______ ____
ROOT
ATOM      1  C   UNL     1       7.474   7.843  18.221  0.00  0.00    +0.000 C 
ENDROOT
BRANCH   1   2
ATOM      2  O   UNL     1       8.405   6.959  18.843  0.00  0.00    +0.000 OA
ATOM      3  H   UNL     1       9.299   7.171  18.524  0.00  0.00    +0.000 HD
ENDBRANCH   1   2
BRANCH   1   4
ATOM      4  C   UNL     1       6.849   7.165  17.002  0.00  0.00    +0.000 C 
BRANCH   4   5
ATOM      5  C   UNL     1       7.129   5.671  16.791  0.00  0.00    +0.000 C 
BRANCH   5   7
ATOM      6  C   UNL     1       6.825   4.572  14.660  0.00  0.00    +0.000 C 
ATOM      7  O   UNL     1       7.572   5.499  15.434  0.00  0.00    +0.000 OA
ENDBRANCH   5   7
BRANCH   5   8
ATOM      8  C   UNL     1       5.871   4.854  17.001  0.00  0.00    +0.000 C 
ATOM      9  C   UNL     1       4.848   5.161  17.819  0.00  0.00    +0.000 C 
BRANCH   9  10
ATOM     10  C   UNL     1       3.661   4.319  18.048  0.00  0.00    +0.000 A 
ATOM     11  C   UNL     1       2.588   4.856  18.774  0.00  0.00    +0.000 A 
ATOM     12  C   UNL     1       1.430   4.107  19.002  0.00  0.00    +0.000 A 
ATOM     13  C   UNL     1       1.327   2.811  18.502  0.00  0.00    +0.000 A 
ATOM     14  C   UNL     1       2.378   2.269  17.765  0.00  0.00    +0.000 A 
ATOM     15  C   UNL     1       3.535   3.021  17.536  0.00  0.00    +0.000 A 
ENDBRANCH   9  10
ENDBRANCH   5   8
ENDBRANCH   4   5
ENDBRANCH   1   4
BRANCH   1  16
ATOM     16  C   UNL     1       8.195   9.136  17.807  0.00  0.00    +0.000 C 
BRANCH  16  17
ATOM     17  C   UNL     1       8.956   9.773  18.976  0.00  0.00    +0.000 C 
BRANCH  17  18
ATOM     18  C   UNL     1       9.644  11.051  18.584  0.00  0.00    +0.000 A 
ATOM     19  C   UNL     1      10.998  11.253  18.915  0.00  0.00    +0.000 A 
ATOM     20  C   UNL     1      11.642  12.429  18.545  0.00  0.00    +0.000 A 
ATOM     21  C   UNL     1      10.938  13.399  17.844  0.00  0.00    +0.000 A 
ATOM     22  C   UNL     1       9.601  13.213  17.509  0.00  0.00    +0.000 A 
ATOM     23  C   UNL     1       8.955  12.038  17.879  0.00  0.00    +0.000 A 
BRANCH  21  24
ATOM     24  O   UNL     1      11.528  14.568  17.454  0.00  0.00    +0.000 OA
ATOM     25  H   UNL     1      12.228  14.787  18.095  0.00  0.00    +0.000 HD
ENDBRANCH  21  24
ENDBRANCH  17  18
ENDBRANCH  16  17
ENDBRANCH   1  16
TORSDOF 10
ENDMDL
MODEL 8
REMARK VINA RESULT:      -7.3      2.364      9.219
REMARK  Name = 
REMARK  11 active torsions:
REMARK  status: ('A' for Active; 'I' for Inactive)
REMARK    1  A    between atoms: C_1  and  O_2
REMARK    2  A    between atoms: O_2  and  C_3
REMARK    3  A    between atoms: C_3  and  C_4
REMARK    4  A    between atoms: C_3  and  C_12
REMARK    5  A    between atoms: C_5  and  C_6
REMARK    6  A    between atoms: C_12  and  C_13
REMARK    7  A    between atoms: C_13  and  O_14
REMARK    8  A    between atoms: C_13  and  C_15
REMARK    9  A    between atoms: C_15  and  C_16
REMARK   10  A    between atoms: C_16  and  C_17
REMARK   11  A    between atoms: C_20  and  O_21
REMARK                            x       y       z     vdW  Elec       q    Type
REMARK                         _______ _______ _______ _____ _____    ______ ____
ROOT
ATOM      1  C   UNL     1       8.028   7.348  17.816  0.00  0.00    +0.000 C 
ENDROOT
BRANCH   1   2
ATOM      2  O   UNL     1       6.870   7.668  17.048  0.00  0.00    +0.000 OA
ATOM      3  H   UNL     1       7.152   8.067  16.207  0.00  0.00    +0.000 HD
ENDBRANCH   1   2
BRANCH   1   4
ATOM      4  C   UNL     1       7.733   6.158  18.729  0.00  0.00    +0.000 C 
BRANCH   4   5
ATOM      5  C   UNL     1       7.228   4.864  18.077  0.00  0.00    +0.000 C 
BRANCH   5   7
ATOM      6  C   UNL     1       6.530   4.349  15.821  0.00  0.00    +0.000 C 
ATOM      7  O   UNL     1       7.497   4.953  16.668  0.00  0.00    +0.000 OA
ENDBRANCH   5   7
BRANCH   5   8
ATOM      8  C   UNL     1       5.735   4.707  18.280  0.00  0.00    +0.000 C 
ATOM      9  C   UNL     1       5.128   3.799  19.065  0.00  0.00    +0.000 C 
BRANCH   9  10
ATOM     10  C   UNL     1       3.670   3.632  19.200  0.00  0.00    +0.000 A 
ATOM     11  C   UNL     1       2.861   3.864  18.078  0.00  0.00    +0.000 A 
ATOM     12  C   UNL     1       1.475   3.700  18.147  0.00  0.00    +0.000 A 
ATOM     13  C   UNL     1       0.878   3.299  19.339  0.00  0.00    +0.000 A 
ATOM     14  C   UNL     1       1.669   3.050  20.459  0.00  0.00    +0.000 A 
ATOM     15  C   UNL     1       3.056   3.211  20.387  0.00  0.00    +0.000 A 
ENDBRANCH   9  10
ENDBRANCH   5   8
ENDBRANCH   4   5
ENDBRANCH   1   4
BRANCH   1  16
ATOM     16  C   UNL     1       8.446   8.573  18.646  0.00  0.00    +0.000 C 
BRANCH  16  17
ATOM     17  C   UNL     1       8.559   9.840  17.790  0.00  0.00    +0.000 C 
BRANCH  17  18
ATOM     18  C   UNL     1       9.243  10.964  18.518  0.00  0.00    +0.000 A 
ATOM     19  C   UNL     1       9.791  10.746  19.797  0.00  0.00    +0.000 A 
ATOM     20  C   UNL     1      10.434  11.780  20.469  0.00  0.00    +0.000 A 
ATOM     21  C   UNL     1      10.532  13.027  19.866  0.00  0.00    +0.000 A 
ATOM     22  C   UNL     1       9.997  13.257  18.603  0.00  0.00    +0.000 A 
ATOM     23  C   UNL     1       9.353  12.224  17.929  0.00  0.00    +0.000 A 
BRANCH  21  24
ATOM     24  O   UNL     1      11.159  14.072  20.483  0.00  0.00    +0.000 OA
ATOM     25  H   UNL     1      10.665  14.887  20.281  0.00  0.00    +0.000 HD
ENDBRANCH  21  24
ENDBRANCH  17  18
ENDBRANCH  16  17
ENDBRANCH   1  16
TORSDOF 10
ENDMDL
MODEL 9
REMARK VINA RESULT:      -7.3      3.857      6.991
REMARK  Name = 
REMARK  11 active torsions:
REMARK  status: ('A' for Active; 'I' for Inactive)
REMARK    1  A    between atoms: C_1  and  O_2
REMARK    2  A    between atoms: O_2  and  C_3
REMARK    3  A    between atoms: C_3  and  C_4
REMARK    4  A    between atoms: C_3  and  C_12
REMARK    5  A    between atoms: C_5  and  C_6
REMARK    6  A    between atoms: C_12  and  C_13
REMARK    7  A    between atoms: C_13  and  O_14
REMARK    8  A    between atoms: C_13  and  C_15
REMARK    9  A    between atoms: C_15  and  C_16
REMARK   10  A    between atoms: C_16  and  C_17
REMARK   11  A    between atoms: C_20  and  O_21
REMARK                            x       y       z     vdW  Elec       q    Type
REMARK                         _______ _______ _______ _____ _____    ______ ____
ROOT
ATOM      1  C   UNL     1       6.405   5.984  17.472  0.00  0.00    +0.000 C 
ENDROOT
BRANCH   1   2
ATOM      2  O   UNL     1       7.612   6.345  18.140  0.00  0.00    +0.000 OA
ATOM      3  H   UNL     1       7.509   7.237  18.513  0.00  0.00    +0.000 HD
ENDBRANCH   1   2
BRANCH   1   4
ATOM      4  C   UNL     1       6.730   5.219  16.189  0.00  0.00    +0.000 C 
BRANCH   4   5
ATOM      5  C   UNL     1       5.980   3.906  15.930  0.00  0.00    +0.000 C 
BRANCH   5   7
ATOM      6  C   UNL     1       5.856   3.861  13.516  0.00  0.00    +0.000 C 
ATOM      7  O   UNL     1       5.184   4.086  14.747  0.00  0.00    +0.000 OA
ENDBRANCH   5   7
BRANCH   5   8
ATOM      8  C   UNL     1       5.063   3.573  17.089  0.00  0.00    +0.000 C 
ATOM      9  C   UNL     1       3.718   3.550  17.061  0.00  0.00    +0.000 C 
BRANCH   9  10
ATOM     10  C   UNL     1       2.849   3.277  18.218  0.00  0.00    +0.000 A 
ATOM     11  C   UNL     1       3.444   3.083  19.473  0.00  0.00    +0.000 A 
ATOM     12  C   UNL     1       2.664   2.842  20.607  0.00  0.00    +0.000 A 
ATOM     13  C   UNL     1       1.277   2.796  20.503  0.00  0.00    +0.000 A 
ATOM     14  C   UNL     1       0.669   3.002  19.267  0.00  0.00    +0.000 A 
ATOM     15  C   UNL     1       1.451   3.246  18.133  0.00  0.00    +0.000 A 
ENDBRANCH   9  10
ENDBRANCH   5   8
ENDBRANCH   4   5
ENDBRANCH   1   4
BRANCH   1  16
ATOM     16  C   UNL     1       5.598   7.253  17.153  0.00  0.00    +0.000 C 
BRANCH  16  17
ATOM     17  C   UNL     1       4.130   6.940  16.841  0.00  0.00    +0.000 C 
BRANCH  17  18
ATOM     18  C   UNL     1       3.201   7.407  17.927  0.00  0.00    +0.000 A 
ATOM     19  C   UNL     1       2.470   8.600  17.766  0.00  0.00    +0.000 A 
ATOM     20  C   UNL     1       1.602   9.030  18.763  0.00  0.00    +0.000 A 
ATOM     21  C   UNL     1       1.461   8.272  19.918  0.00  0.00    +0.000 A 
ATOM     22  C   UNL     1       2.176   7.091  20.092  0.00  0.00    +0.000 A 
ATOM     23  C   UNL     1       3.046   6.660  19.095  0.00  0.00    +0.000 A 
BRANCH  21  24
ATOM     24  O   UNL     1       0.618   8.650  20.923  0.00  0.00    +0.000 OA
ATOM     25  H   UNL     1       0.179   9.478  20.660  0.00  0.00    +0.000 HD
ENDBRANCH  21  24
ENDBRANCH  17  18
ENDBRANCH  16  17
ENDBRANCH   1  16
TORSDOF 10
ENDMDL
