MODEL 1
REMARK VINA RESULT:      -8.9      0.000      0.000
REMARK  Name = 
REMARK  8 active torsions:
REMARK  status: ('A' for Active; 'I' for Inactive)
REMARK    1  A    between atoms: C_2  and  O_3
REMARK    2  A    between atoms: C_2  and  C_26
REMARK    3  A    between atoms: O_3  and  C_4
REMARK    4  A    between atoms: C_4  and  C_5
REMARK    5  A    between atoms: C_5  and  N_6
REMARK    6  A    between atoms: C_7  and  N_8
REMARK    7  A    between atoms: C_13  and  C_14
REMARK    8  A    between atoms: C_15  and  C_16
REMARK                            x       y       z     vdW  Elec       q    Type
REMARK                         _______ _______ _______ _____ _____    ______ ____
ROOT
ATOM      1  N   UNL     1       2.268   6.418  19.301  0.00  0.00    +0.000 N 
ATOM      2  C   UNL     1       1.758   5.924  20.480  0.00  0.00    +0.000 A 
ATOM      3  C   UNL     1       1.283   6.986  21.196  0.00  0.00    +0.000 A 
ATOM      4  N   UNL     1       1.515   8.143  20.506  0.00  0.00    +0.000 NA
ATOM      5  C   UNL     1       2.070   7.793  19.358  0.00  0.00    +0.000 A 
ENDROOT
BRANCH   2   6
ATOM      6  N   UNL     1       1.676   4.555  20.816  0.00  0.00    +0.000 N 
ATOM      7  O   UNL     1       2.656   4.065  21.388  0.00  0.00    +0.000 OA
ATOM      8  O   UNL     1       0.630   3.973  20.513  0.00  0.00    +0.000 OA
ENDBRANCH   2   6
BRANCH   5   9
ATOM      9  C   UNL     1       2.237   8.609  18.219  0.00  0.00    +0.000 C 
ATOM     10  C   UNL     1       1.387   9.540  17.753  0.00  0.00    +0.000 C 
BRANCH  10  11
ATOM     11  C   UNL     1       0.086  10.095  18.208  0.00  0.00    +0.000 A 
ATOM     12  C   UNL     1      -1.118   9.668  17.627  0.00  0.00    +0.000 A 
ATOM     13  C   UNL     1      -2.320  10.316  17.905  0.00  0.00    +0.000 A 
ATOM     14  C   UNL     1      -2.339  11.432  18.736  0.00  0.00    +0.000 A 
ATOM     15  C   UNL     1      -1.164  11.884  19.351  0.00  0.00    +0.000 A 
ATOM     16  C   UNL     1      -1.206  13.026  20.171  0.00  0.00    +0.000 A 
ATOM     17  C   UNL     1      -0.065  13.480  20.831  0.00  0.00    +0.000 A 
ATOM     18  C   UNL     1       1.125  12.784  20.695  0.00  0.00    +0.000 A 
ATOM     19  C   UNL     1       1.185  11.663  19.861  0.00  0.00    +0.000 A 
ATOM     20  C   UNL     1       0.058  11.196  19.134  0.00  0.00    +0.000 A 
ENDBRANCH  10  11
ENDBRANCH   5   9
BRANCH   1  21
ATOM     21  C   UNL     1       2.680   5.652  18.136  0.00  0.00    +0.000 C 
BRANCH  21  22
ATOM     22  C   UNL     1       1.718   4.549  17.688  0.00  0.00    +0.000 C 
BRANCH  22  23
ATOM     23  O   UNL     1       2.435   3.537  16.947  0.00  0.00    +0.000 OA
BRANCH  23  25
ATOM     24  O   UNL     1       3.733   2.285  18.359  0.00  0.00    +0.000 OA
ATOM     25  C   UNL     1       3.615   3.119  17.470  0.00  0.00    +0.000 C 
BRANCH  25  26
ATOM     26  C   UNL     1       4.780   3.780  16.821  0.00  0.00    +0.000 A 
ATOM     27  C   UNL     1       4.860   3.719  15.418  0.00  0.00    +0.000 A 
ATOM     28  C   UNL     1       5.954   4.269  14.739  0.00  0.00    +0.000 A 
ATOM     29  C   UNL     1       6.980   4.882  15.457  0.00  0.00    +0.000 A 
ATOM     30  C   UNL     1       6.908   4.947  16.849  0.00  0.00    +0.000 A 
ATOM     31  C   UNL     1       5.807   4.409  17.539  0.00  0.00    +0.000 A 
ATOM     32  O   UNL     1       5.741   4.447  18.911  0.00  0.00    +0.000 OA
ATOM     33  C   UNL     1       6.543   5.510  19.433  0.00  0.00    +0.000 C 
ATOM     34  C   UNL     1       7.952   5.396  18.888  0.00  0.00    +0.000 C 
ATOM     35  O   UNL     1       7.966   5.570  17.468  0.00  0.00    +0.000 OA
ENDBRANCH  25  26
ENDBRANCH  23  25
ENDBRANCH  22  23
ENDBRANCH  21  22
ENDBRANCH   1  21
TORSDOF 8
ENDMDL
MODEL 2
REMARK VINA RESULT:      -8.9      0.945      2.624
REMARK  Name = 
REMARK  8 active torsions:
REMARK  status: ('A' for Active; 'I' for Inactive)
REMARK    1  A    between atoms: C_2  and  O_3
REMARK    2  A    between atoms: C_2  and  C_26
REMARK    3  A    between atoms: O_3  and  C_4
REMARK    4  A    between atoms: C_4  and  C_5
REMARK    5  A    between atoms: C_5  and  N_6
REMARK    6  A    between atoms: C_7  and  N_8
REMARK    7  A    between atoms: C_13  and  C_14
REMARK    8  A    between atoms: C_15  and  C_16
REMARK                            x       y       z     vdW  Elec       q    Type
REMARK                         _______ _______ _______ _____ _____    ______ ____
ROOT
ATOM      1  N   UNL     1       2.270   6.683  19.388  0.00  0.00    +0.000 N 
ATOM      2  C   UNL     1       1.687   6.155  20.517  0.00  0.00    +0.000 A 
ATOM      3  C   UNL     1       1.031   7.171  21.152  0.00  0.00    +0.000 A 
ATOM      4  N   UNL     1       1.218   8.337  20.463  0.00  0.00    +0.000 NA
ATOM      5  C   UNL     1       1.928   8.031  19.390  0.00  0.00    +0.000 A 
ENDROOT
BRANCH   2   6
ATOM      6  N   UNL     1       1.708   4.789  20.874  0.00  0.00    +0.000 N 
ATOM      7  O   UNL     1       2.685   4.401  21.525  0.00  0.00    +0.000 OA
ATOM      8  O   UNL     1       0.745   4.107  20.511  0.00  0.00    +0.000 OA
ENDBRANCH   2   6
BRANCH   5   9
ATOM      9  C   UNL     1       2.135   8.845  18.256  0.00  0.00    +0.000 C 
ATOM     10  C   UNL     1       1.525  10.007  17.966  0.00  0.00    +0.000 C 
BRANCH  10  11
ATOM     11  C   UNL     1       0.530  10.870  18.654  0.00  0.00    +0.000 A 
ATOM     12  C   UNL     1       0.907  11.670  19.743  0.00  0.00    +0.000 A 
ATOM     13  C   UNL     1      -0.047  12.331  20.515  0.00  0.00    +0.000 A 
ATOM     14  C   UNL     1      -1.402  12.171  20.241  0.00  0.00    +0.000 A 
ATOM     15  C   UNL     1      -1.824  11.395  19.154  0.00  0.00    +0.000 A 
ATOM     16  C   UNL     1      -3.200  11.233  18.910  0.00  0.00    +0.000 A 
ATOM     17  C   UNL     1      -3.656  10.502  17.815  0.00  0.00    +0.000 A 
ATOM     18  C   UNL     1      -2.739   9.943  16.939  0.00  0.00    +0.000 A 
ATOM     19  C   UNL     1      -1.370  10.074  17.185  0.00  0.00    +0.000 A 
ATOM     20  C   UNL     1      -0.865  10.770  18.316  0.00  0.00    +0.000 A 
ENDBRANCH  10  11
ENDBRANCH   5   9
BRANCH   1  21
ATOM     21  C   UNL     1       2.882   5.949  18.293  0.00  0.00    +0.000 C 
BRANCH  21  22
ATOM     22  C   UNL     1       2.083   4.760  17.757  0.00  0.00    +0.000 C 
BRANCH  22  23
ATOM     23  O   UNL     1       2.981   3.737  17.272  0.00  0.00    +0.000 OA
BRANCH  23  25
ATOM     24  O   UNL     1       3.831   2.382  18.910  0.00  0.00    +0.000 OA
ATOM     25  C   UNL     1       3.946   3.316  18.127  0.00  0.00    +0.000 C 
BRANCH  25  26
ATOM     26  C   UNL     1       5.195   4.115  17.997  0.00  0.00    +0.000 A 
ATOM     27  C   UNL     1       5.726   4.684  19.169  0.00  0.00    +0.000 A 
ATOM     28  C   UNL     1       6.866   5.493  19.118  0.00  0.00    +0.000 A 
ATOM     29  C   UNL     1       7.485   5.746  17.894  0.00  0.00    +0.000 A 
ATOM     30  C   UNL     1       6.965   5.185  16.727  0.00  0.00    +0.000 A 
ATOM     31  C   UNL     1       5.828   4.360  16.769  0.00  0.00    +0.000 A 
ATOM     32  O   UNL     1       5.295   3.824  15.621  0.00  0.00    +0.000 OA
ATOM     33  C   UNL     1       6.283   3.735  14.591  0.00  0.00    +0.000 C 
ATOM     34  C   UNL     1       6.934   5.089  14.394  0.00  0.00    +0.000 C 
ATOM     35  O   UNL     1       7.643   5.490  15.570  0.00  0.00    +0.000 OA
ENDBRANCH  25  26
ENDBRANCH  23  25
ENDBRANCH  22  23
ENDBRANCH  21  22
ENDBRANCH   1  21
TORSDOF 8
ENDMDL
MODEL 3
REMARK VINA RESULT:      -8.8      0.578      1.914
REMARK  Name = 
REMARK  8 active torsions:
REMARK  status: ('A' for Active; 'I' for Inactive)
REMARK    1  A    between atoms: C_2  and  O_3
REMARK    2  A    between atoms: C_2  and  C_26
REMARK    3  A    between atoms: O_3  and  C_4
REMARK    4  A    between atoms: C_4  and  C_5
REMARK    5  A    between atoms: C_5  and  N_6
REMARK    6  A    between atoms: C_7  and  N_8
REMARK    7  A    between atoms: C_13  and  C_14
REMARK    8  A    between atoms: C_15  and  C_16
REMARK                            x       y       z     vdW  Elec       q    Type
REMARK                         _______ _______ _______ _____ _____    ______ ____
ROOT
ATOM      1  N   UNL     1       2.293   6.345  19.207  0.00  0.00    +0.000 N 
ATOM      2  C   UNL     1       1.871   5.882  20.432  0.00  0.00    +0.000 A 
ATOM      3  C   UNL     1       1.455   6.964  21.156  0.00  0.00    +0.000 A 
ATOM      4  N   UNL     1       1.639   8.103  20.422  0.00  0.00    +0.000 NA
ATOM      5  C   UNL     1       2.105   7.722  19.244  0.00  0.00    +0.000 A 
ENDROOT
BRANCH   2   6
ATOM      6  N   UNL     1       1.809   4.523  20.806  0.00  0.00    +0.000 N 
ATOM      7  O   UNL     1       2.861   4.008  21.203  0.00  0.00    +0.000 OA
ATOM      8  O   UNL     1       0.708   3.972  20.709  0.00  0.00    +0.000 OA
ENDBRANCH   2   6
BRANCH   5   9
ATOM      9  C   UNL     1       2.189   8.509  18.076  0.00  0.00    +0.000 C 
ATOM     10  C   UNL     1       1.547   9.663  17.825  0.00  0.00    +0.000 C 
BRANCH  10  11
ATOM     11  C   UNL     1       0.627  10.542  18.593  0.00  0.00    +0.000 A 
ATOM     12  C   UNL     1       1.074  11.223  19.735  0.00  0.00    +0.000 A 
ATOM     13  C   UNL     1       0.179  11.891  20.570  0.00  0.00    +0.000 A 
ATOM     14  C   UNL     1      -1.186  11.854  20.307  0.00  0.00    +0.000 A 
ATOM     15  C   UNL     1      -1.676  11.198  19.169  0.00  0.00    +0.000 A 
ATOM     16  C   UNL     1      -3.063  11.158  18.935  0.00  0.00    +0.000 A 
ATOM     17  C   UNL     1      -3.583  10.551  17.793  0.00  0.00    +0.000 A 
ATOM     18  C   UNL     1      -2.720   9.996  16.863  0.00  0.00    +0.000 A 
ATOM     19  C   UNL     1      -1.342  10.006  17.097  0.00  0.00    +0.000 A 
ATOM     20  C   UNL     1      -0.775  10.572  18.270  0.00  0.00    +0.000 A 
ENDBRANCH  10  11
ENDBRANCH   5   9
BRANCH   1  21
ATOM     21  C   UNL     1       2.613   5.549  18.033  0.00  0.00    +0.000 C 
BRANCH  21  22
ATOM     22  C   UNL     1       1.740   4.313  17.806  0.00  0.00    +0.000 C 
BRANCH  22  23
ATOM     23  O   UNL     1       2.426   3.371  16.952  0.00  0.00    +0.000 OA
BRANCH  23  25
ATOM     24  O   UNL     1       3.799   2.027  18.196  0.00  0.00    +0.000 OA
ATOM     25  C   UNL     1       3.633   2.925  17.382  0.00  0.00    +0.000 C 
BRANCH  25  26
ATOM     26  C   UNL     1       4.760   3.645  16.728  0.00  0.00    +0.000 A 
ATOM     27  C   UNL     1       4.850   3.571  15.326  0.00  0.00    +0.000 A 
ATOM     28  C   UNL     1       5.913   4.176  14.645  0.00  0.00    +0.000 A 
ATOM     29  C   UNL     1       6.898   4.856  15.358  0.00  0.00    +0.000 A 
ATOM     30  C   UNL     1       6.817   4.934  16.749  0.00  0.00    +0.000 A 
ATOM     31  C   UNL     1       5.746   4.341  17.442  0.00  0.00    +0.000 A 
ATOM     32  O   UNL     1       5.672   4.393  18.813  0.00  0.00    +0.000 OA
ATOM     33  C   UNL     1       6.408   5.506  19.325  0.00  0.00    +0.000 C 
ATOM     34  C   UNL     1       7.824   5.468  18.786  0.00  0.00    +0.000 C 
ATOM     35  O   UNL     1       7.833   5.625  17.364  0.00  0.00    +0.000 OA
ENDBRANCH  25  26
ENDBRANCH  23  25
ENDBRANCH  22  23
ENDBRANCH  21  22
ENDBRANCH   1  21
TORSDOF 8
ENDMDL
MODEL 4
REMARK VINA RESULT:      -8.8      2.590      8.105
REMARK  Name = 
REMARK  8 active torsions:
REMARK  status: ('A' for Active; 'I' for Inactive)
REMARK    1  A    between atoms: C_2  and  O_3
REMARK    2  A    between atoms: C_2  and  C_26
REMARK    3  A    between atoms: O_3  and  C_4
REMARK    4  A    between atoms: C_4  and  C_5
REMARK    5  A    between atoms: C_5  and  N_6
REMARK    6  A    between atoms: C_7  and  N_8
REMARK    7  A    between atoms: C_13  and  C_14
REMARK    8  A    between atoms: C_15  and  C_16
REMARK                            x       y       z     vdW  Elec       q    Type
REMARK                         _______ _______ _______ _____ _____    ______ ____
ROOT
ATOM      1  N   UNL     1       1.759   4.138  19.967  0.00  0.00    +0.000 N 
ATOM      2  C   UNL     1       1.787   2.837  20.415  0.00  0.00    +0.000 A 
ATOM      3  C   UNL     1       1.706   2.026  19.318  0.00  0.00    +0.000 A 
ATOM      4  N   UNL     1       1.593   2.791  18.191  0.00  0.00    +0.000 NA
ATOM      5  C   UNL     1       1.664   4.052  18.582  0.00  0.00    +0.000 A 
ENDROOT
BRANCH   2   6
ATOM      6  N   UNL     1       1.958   2.448  21.761  0.00  0.00    +0.000 N 
ATOM      7  O   UNL     1       3.114   2.202  22.124  0.00  0.00    +0.000 OA
ATOM      8  O   UNL     1       0.939   2.397  22.455  0.00  0.00    +0.000 OA
ENDBRANCH   2   6
BRANCH   5   9
ATOM      9  C   UNL     1       1.864   5.181  17.759  0.00  0.00    +0.000 C 
ATOM     10  C   UNL     1       3.038   5.733  17.407  0.00  0.00    +0.000 C 
BRANCH  10  11
ATOM     11  C   UNL     1       4.467   5.407  17.651  0.00  0.00    +0.000 A 
ATOM     12  C   UNL     1       5.041   5.604  18.916  0.00  0.00    +0.000 A 
ATOM     13  C   UNL     1       6.417   5.488  19.107  0.00  0.00    +0.000 A 
ATOM     14  C   UNL     1       7.254   5.214  18.029  0.00  0.00    +0.000 A 
ATOM     15  C   UNL     1       6.723   4.994  16.751  0.00  0.00    +0.000 A 
ATOM     16  C   UNL     1       7.591   4.739  15.674  0.00  0.00    +0.000 A 
ATOM     17  C   UNL     1       7.096   4.475  14.398  0.00  0.00    +0.000 A 
ATOM     18  C   UNL     1       5.727   4.442  14.191  0.00  0.00    +0.000 A 
ATOM     19  C   UNL     1       4.855   4.720  15.247  0.00  0.00    +0.000 A 
ATOM     20  C   UNL     1       5.319   5.041  16.551  0.00  0.00    +0.000 A 
ENDBRANCH  10  11
ENDBRANCH   5   9
BRANCH   1  21
ATOM     21  C   UNL     1       2.038   5.337  20.741  0.00  0.00    +0.000 C 
BRANCH  21  22
ATOM     22  C   UNL     1       1.070   6.504  20.536  0.00  0.00    +0.000 C 
BRANCH  22  23
ATOM     23  O   UNL     1       1.780   7.759  20.628  0.00  0.00    +0.000 OA
BRANCH  23  25
ATOM     24  O   UNL     1       2.605   8.509  18.628  0.00  0.00    +0.000 OA
ATOM     25  C   UNL     1       1.772   8.548  19.524  0.00  0.00    +0.000 C 
BRANCH  25  26
ATOM     26  C   UNL     1       0.606   9.473  19.507  0.00  0.00    +0.000 A 
ATOM     27  C   UNL     1       0.057   9.800  18.254  0.00  0.00    +0.000 A 
ATOM     28  C   UNL     1      -1.006  10.706  18.154  0.00  0.00    +0.000 A 
ATOM     29  C   UNL     1      -1.525  11.298  19.304  0.00  0.00    +0.000 A 
ATOM     30  C   UNL     1      -0.986  10.979  20.551  0.00  0.00    +0.000 A 
ATOM     31  C   UNL     1       0.072  10.060  20.664  0.00  0.00    +0.000 A 
ATOM     32  O   UNL     1       0.625   9.759  21.886  0.00  0.00    +0.000 OA
ATOM     33  C   UNL     1      -0.303  10.011  22.944  0.00  0.00    +0.000 C 
ATOM     34  C   UNL     1      -0.822  11.430  22.836  0.00  0.00    +0.000 C 
ATOM     35  O   UNL     1      -1.564  11.612  21.626  0.00  0.00    +0.000 OA
ENDBRANCH  25  26
ENDBRANCH  23  25
ENDBRANCH  22  23
ENDBRANCH  21  22
ENDBRANCH   1  21
TORSDOF 8
ENDMDL
MODEL 5
REMARK VINA RESULT:      -8.7      0.966      1.247
REMARK  Name = 
REMARK  8 active torsions:
REMARK  status: ('A' for Active; 'I' for Inactive)
REMARK    1  A    between atoms: C_2  and  O_3
REMARK    2  A    between atoms: C_2  and  C_26
REMARK    3  A    between atoms: O_3  and  C_4
REMARK    4  A    between atoms: C_4  and  C_5
REMARK    5  A    between atoms: C_5  and  N_6
REMARK    6  A    between atoms: C_7  and  N_8
REMARK    7  A    between atoms: C_13  and  C_14
REMARK    8  A    between atoms: C_15  and  C_16
REMARK                            x       y       z     vdW  Elec       q    Type
REMARK                         _______ _______ _______ _____ _____    ______ ____
ROOT
ATOM      1  N   UNL     1       2.359   6.371  19.159  0.00  0.00    +0.000 N 
ATOM      2  C   UNL     1       1.895   5.910  20.370  0.00  0.00    +0.000 A 
ATOM      3  C   UNL     1       1.446   6.992  21.074  0.00  0.00    +0.000 A 
ATOM      4  N   UNL     1       1.650   8.129  20.343  0.00  0.00    +0.000 NA
ATOM      5  C   UNL     1       2.161   7.747  19.185  0.00  0.00    +0.000 A 
ENDROOT
BRANCH   2   6
ATOM      6  N   UNL     1       1.828   4.552  20.747  0.00  0.00    +0.000 N 
ATOM      7  O   UNL     1       0.733   3.994  20.621  0.00  0.00    +0.000 OA
ATOM      8  O   UNL     1       2.873   4.041  21.163  0.00  0.00    +0.000 OA
ENDBRANCH   2   6
BRANCH   5   9
ATOM      9  C   UNL     1       2.282   8.531  18.017  0.00  0.00    +0.000 C 
ATOM     10  C   UNL     1       1.696   9.713  17.767  0.00  0.00    +0.000 C 
BRANCH  10  11
ATOM     11  C   UNL     1       0.817  10.633  18.534  0.00  0.00    +0.000 A 
ATOM     12  C   UNL     1      -0.448  10.215  18.973  0.00  0.00    +0.000 A 
ATOM     13  C   UNL     1      -1.356  11.122  19.520  0.00  0.00    +0.000 A 
ATOM     14  C   UNL     1      -1.034  12.473  19.600  0.00  0.00    +0.000 A 
ATOM     15  C   UNL     1       0.224  12.933  19.189  0.00  0.00    +0.000 A 
ATOM     16  C   UNL     1       0.518  14.306  19.261  0.00  0.00    +0.000 A 
ATOM     17  C   UNL     1       1.772  14.794  18.899  0.00  0.00    +0.000 A 
ATOM     18  C   UNL     1       2.754  13.910  18.481  0.00  0.00    +0.000 A 
ATOM     19  C   UNL     1       2.465  12.546  18.380  0.00  0.00    +0.000 A 
ATOM     20  C   UNL     1       1.186  12.015  18.693  0.00  0.00    +0.000 A 
ENDBRANCH  10  11
ENDBRANCH   5   9
BRANCH   1  21
ATOM     21  C   UNL     1       2.727   5.573  18.001  0.00  0.00    +0.000 C 
BRANCH  21  22
ATOM     22  C   UNL     1       1.741   4.470  17.610  0.00  0.00    +0.000 C 
BRANCH  22  23
ATOM     23  O   UNL     1       2.446   3.370  16.994  0.00  0.00    +0.000 OA
BRANCH  23  25
ATOM     24  O   UNL     1       3.784   2.231  18.462  0.00  0.00    +0.000 OA
ATOM     25  C   UNL     1       3.639   3.025  17.543  0.00  0.00    +0.000 C 
BRANCH  25  26
ATOM     26  C   UNL     1       4.778   3.716  16.880  0.00  0.00    +0.000 A 
ATOM     27  C   UNL     1       4.846   3.653  15.476  0.00  0.00    +0.000 A 
ATOM     28  C   UNL     1       5.918   4.231  14.785  0.00  0.00    +0.000 A 
ATOM     29  C   UNL     1       6.934   4.873  15.491  0.00  0.00    +0.000 A 
ATOM     30  C   UNL     1       6.875   4.940  16.884  0.00  0.00    +0.000 A 
ATOM     31  C   UNL     1       5.796   4.374  17.586  0.00  0.00    +0.000 A 
ATOM     32  O   UNL     1       5.742   4.415  18.959  0.00  0.00    +0.000 OA
ATOM     33  C   UNL     1       6.521   5.499  19.470  0.00  0.00    +0.000 C 
ATOM     34  C   UNL     1       7.927   5.422  18.911  0.00  0.00    +0.000 C 
ATOM     35  O   UNL     1       7.921   5.592  17.490  0.00  0.00    +0.000 OA
ENDBRANCH  25  26
ENDBRANCH  23  25
ENDBRANCH  22  23
ENDBRANCH  21  22
ENDBRANCH   1  21
TORSDOF 8
ENDMDL
MODEL 6
REMARK VINA RESULT:      -8.7      2.829      4.730
REMARK  Name = 
REMARK  8 active torsions:
REMARK  status: ('A' for Active; 'I' for Inactive)
REMARK    1  A    between atoms: C_2  and  O_3
REMARK    2  A    between atoms: C_2  and  C_26
REMARK    3  A    between atoms: O_3  and  C_4
REMARK    4  A    between atoms: C_4  and  C_5
REMARK    5  A    between atoms: C_5  and  N_6
REMARK    6  A    between atoms: C_7  and  N_8
REMARK    7  A    between atoms: C_13  and  C_14
REMARK    8  A    between atoms: C_15  and  C_16
REMARK                            x       y       z     vdW  Elec       q    Type
REMARK                         _______ _______ _______ _____ _____    ______ ____
ROOT
ATOM      1  N   UNL     1       0.141  11.204  21.336  0.00  0.00    +0.000 N 
ATOM      2  C   UNL     1      -0.409  10.642  22.466  0.00  0.00    +0.000 A 
ATOM      3  C   UNL     1      -1.449  11.440  22.854  0.00  0.00    +0.000 A 
ATOM      4  N   UNL     1      -1.542  12.512  22.010  0.00  0.00    +0.000 NA
ATOM      5  C   UNL     1      -0.614  12.344  21.083  0.00  0.00    +0.000 A 
ENDROOT
BRANCH   2   6
ATOM      6  N   UNL     1      -0.005   9.418  23.039  0.00  0.00    +0.000 N 
ATOM      7  O   UNL     1       0.955   9.459  23.816  0.00  0.00    +0.000 OA
ATOM      8  O   UNL     1      -0.652   8.416  22.719  0.00  0.00    +0.000 OA
ENDBRANCH   2   6
BRANCH   5   9
ATOM      9  C   UNL     1      -0.506  13.043  19.861  0.00  0.00    +0.000 C 
ATOM     10  C   UNL     1      -1.072  12.718  18.687  0.00  0.00    +0.000 C 
BRANCH  10  11
ATOM     11  C   UNL     1      -1.994  11.648  18.225  0.00  0.00    +0.000 A 
ATOM     12  C   UNL     1      -1.556  10.662  17.329  0.00  0.00    +0.000 A 
ATOM     13  C   UNL     1      -2.455   9.773  16.741  0.00  0.00    +0.000 A 
ATOM     14  C   UNL     1      -3.817   9.880  17.002  0.00  0.00    +0.000 A 
ATOM     15  C   UNL     1      -4.299  10.840  17.902  0.00  0.00    +0.000 A 
ATOM     16  C   UNL     1      -5.682  10.941  18.134  0.00  0.00    +0.000 A 
ATOM     17  C   UNL     1      -6.193  11.855  19.053  0.00  0.00    +0.000 A 
ATOM     18  C   UNL     1      -5.324  12.664  19.766  0.00  0.00    +0.000 A 
ATOM     19  C   UNL     1      -3.949  12.592  19.525  0.00  0.00    +0.000 A 
ATOM     20  C   UNL     1      -3.392  11.708  18.563  0.00  0.00    +0.000 A 
ENDBRANCH  10  11
ENDBRANCH   5   9
BRANCH   1  21
ATOM     21  C   UNL     1       1.119  10.601  20.446  0.00  0.00    +0.000 C 
BRANCH  21  22
ATOM     22  C   UNL     1       0.671   9.329  19.724  0.00  0.00    +0.000 C 
BRANCH  22  23
ATOM     23  O   UNL     1       1.797   8.443  19.534  0.00  0.00    +0.000 OA
BRANCH  23  25
ATOM     24  O   UNL     1       2.254   9.078  17.382  0.00  0.00    +0.000 OA
ATOM     25  C   UNL     1       2.192   8.223  18.255  0.00  0.00    +0.000 C 
BRANCH  25  26
ATOM     26  C   UNL     1       2.570   6.802  18.025  0.00  0.00    +0.000 A 
ATOM     27  C   UNL     1       1.554   5.835  18.131  0.00  0.00    +0.000 A 
ATOM     28  C   UNL     1       1.844   4.473  17.983  0.00  0.00    +0.000 A 
ATOM     29  C   UNL     1       3.153   4.065  17.732  0.00  0.00    +0.000 A 
ATOM     30  C   UNL     1       4.167   5.017  17.625  0.00  0.00    +0.000 A 
ATOM     31  C   UNL     1       3.884   6.388  17.759  0.00  0.00    +0.000 A 
ATOM     32  O   UNL     1       4.881   7.330  17.679  0.00  0.00    +0.000 OA
ATOM     33  C   UNL     1       5.996   6.835  16.933  0.00  0.00    +0.000 C 
ATOM     34  C   UNL     1       6.446   5.510  17.513  0.00  0.00    +0.000 C 
ATOM     35  O   UNL     1       5.424   4.519  17.376  0.00  0.00    +0.000 OA
ENDBRANCH  25  26
ENDBRANCH  23  25
ENDBRANCH  22  23
ENDBRANCH  21  22
ENDBRANCH   1  21
TORSDOF 8
ENDMDL
MODEL 7
REMARK VINA RESULT:      -8.7      4.437     10.139
REMARK  Name = 
REMARK  8 active torsions:
REMARK  status: ('A' for Active; 'I' for Inactive)
REMARK    1  A    between atoms: C_2  and  O_3
REMARK    2  A    between atoms: C_2  and  C_26
REMARK    3  A    between atoms: O_3  and  C_4
REMARK    4  A    between atoms: C_4  and  C_5
REMARK    5  A    between atoms: C_5  and  N_6
REMARK    6  A    between atoms: C_7  and  N_8
REMARK    7  A    between atoms: C_13  and  C_14
REMARK    8  A    between atoms: C_15  and  C_16
REMARK                            x       y       z     vdW  Elec       q    Type
REMARK                         _______ _______ _______ _____ _____    ______ ____
ROOT
ATOM      1  N   UNL     1       0.889   9.117  19.953  0.00  0.00    +0.000 N 
ATOM      2  C   UNL     1       0.783   9.747  18.734  0.00  0.00    +0.000 A 
ATOM      3  C   UNL     1       1.634   9.114  17.872  0.00  0.00    +0.000 A 
ATOM      4  N   UNL     1       2.298   8.119  18.533  0.00  0.00    +0.000 NA
ATOM      5  C   UNL     1       1.821   8.102  19.767  0.00  0.00    +0.000 A 
ENDROOT
BRANCH   2   6
ATOM      6  N   UNL     1      -0.116  10.795  18.440  0.00  0.00    +0.000 N 
ATOM      7  O   UNL     1       0.308  11.947  18.587  0.00  0.00    +0.000 OA
ATOM      8  O   UNL     1      -1.242  10.466  18.055  0.00  0.00    +0.000 OA
ENDBRANCH   2   6
BRANCH   5   9
ATOM      9  C   UNL     1       2.003   7.084  20.727  0.00  0.00    +0.000 C 
ATOM     10  C   UNL     1       2.171   5.771  20.499  0.00  0.00    +0.000 C 
BRANCH  10  11
ATOM     11  C   UNL     1       2.285   4.923  19.284  0.00  0.00    +0.000 A 
ATOM     12  C   UNL     1       1.253   4.041  18.927  0.00  0.00    +0.000 A 
ATOM     13  C   UNL     1       1.427   3.105  17.908  0.00  0.00    +0.000 A 
ATOM     14  C   UNL     1       2.651   3.001  17.254  0.00  0.00    +0.000 A 
ATOM     15  C   UNL     1       3.704   3.871  17.567  0.00  0.00    +0.000 A 
ATOM     16  C   UNL     1       4.938   3.733  16.905  0.00  0.00    +0.000 A 
ATOM     17  C   UNL     1       5.994   4.606  17.161  0.00  0.00    +0.000 A 
ATOM     18  C   UNL     1       5.820   5.640  18.067  0.00  0.00    +0.000 A 
ATOM     19  C   UNL     1       4.607   5.771  18.750  0.00  0.00    +0.000 A 
ATOM     20  C   UNL     1       3.523   4.875  18.553  0.00  0.00    +0.000 A 
ENDBRANCH  10  11
ENDBRANCH   5   9
BRANCH   1  21
ATOM     21  C   UNL     1       0.025   9.295  21.108  0.00  0.00    +0.000 C 
BRANCH  21  22
ATOM     22  C   UNL     1       0.344  10.496  22.002  0.00  0.00    +0.000 C 
BRANCH  22  23
ATOM     23  O   UNL     1      -0.806  10.831  22.810  0.00  0.00    +0.000 OA
BRANCH  23  25
ATOM     24  O   UNL     1      -0.523  13.034  23.364  0.00  0.00    +0.000 OA
ATOM     25  C   UNL     1      -1.171  12.138  22.841  0.00  0.00    +0.000 C 
BRANCH  25  26
ATOM     26  C   UNL     1      -2.460  12.374  22.137  0.00  0.00    +0.000 A 
ATOM     27  C   UNL     1      -2.430  12.439  20.733  0.00  0.00    +0.000 A 
ATOM     28  C   UNL     1      -3.593  12.713  20.004  0.00  0.00    +0.000 A 
ATOM     29  C   UNL     1      -4.797  12.931  20.672  0.00  0.00    +0.000 A 
ATOM     30  C   UNL     1      -4.836  12.868  22.066  0.00  0.00    +0.000 A 
ATOM     31  C   UNL     1      -3.676  12.580  22.806  0.00  0.00    +0.000 A 
ATOM     32  O   UNL     1      -3.702  12.541  24.180  0.00  0.00    +0.000 OA
ATOM     33  C   UNL     1      -5.020  12.266  24.660  0.00  0.00    +0.000 C 
ATOM     34  C   UNL     1      -5.997  13.253  24.055  0.00  0.00    +0.000 C 
ATOM     35  O   UNL     1      -6.067  13.095  22.634  0.00  0.00    +0.000 OA
ENDBRANCH  25  26
ENDBRANCH  23  25
ENDBRANCH  22  23
ENDBRANCH  21  22
ENDBRANCH   1  21
TORSDOF 8
ENDMDL
MODEL 8
REMARK VINA RESULT:      -8.6      0.862      1.910
REMARK  Name = 
REMARK  8 active torsions:
REMARK  status: ('A' for Active; 'I' for Inactive)
REMARK    1  A    between atoms: C_2  and  O_3
REMARK    2  A    between atoms: C_2  and  C_26
REMARK    3  A    between atoms: O_3  and  C_4
REMARK    4  A    between atoms: C_4  and  C_5
REMARK    5  A    between atoms: C_5  and  N_6
REMARK    6  A    between atoms: C_7  and  N_8
REMARK    7  A    between atoms: C_13  and  C_14
REMARK    8  A    between atoms: C_15  and  C_16
REMARK                            x       y       z     vdW  Elec       q    Type
REMARK                         _______ _______ _______ _____ _____    ______ ____
ROOT
ATOM      1  N   UNL     1       2.184   6.431  19.248  0.00  0.00    +0.000 N 
ATOM      2  C   UNL     1       1.697   5.938  20.437  0.00  0.00    +0.000 A 
ATOM      3  C   UNL     1       1.323   7.008  21.199  0.00  0.00    +0.000 A 
ATOM      4  N   UNL     1       1.596   8.167  20.527  0.00  0.00    +0.000 NA
ATOM      5  C   UNL     1       2.075   7.814  19.346  0.00  0.00    +0.000 A 
ENDROOT
BRANCH   2   6
ATOM      6  N   UNL     1       1.544   4.569  20.743  0.00  0.00    +0.000 N 
ATOM      7  O   UNL     1       0.537   4.010  20.296  0.00  0.00    +0.000 OA
ATOM      8  O   UNL     1       2.435   4.052  21.424  0.00  0.00    +0.000 OA
ENDBRANCH   2   6
BRANCH   5   9
ATOM      9  C   UNL     1       2.242   8.648  18.220  0.00  0.00    +0.000 C 
ATOM     10  C   UNL     1       1.385   9.575  17.761  0.00  0.00    +0.000 C 
BRANCH  10  11
ATOM     11  C   UNL     1       0.073  10.107  18.212  0.00  0.00    +0.000 A 
ATOM     12  C   UNL     1      -1.120   9.670  17.617  0.00  0.00    +0.000 A 
ATOM     13  C   UNL     1      -2.334  10.298  17.893  0.00  0.00    +0.000 A 
ATOM     14  C   UNL     1      -2.374  11.405  18.735  0.00  0.00    +0.000 A 
ATOM     15  C   UNL     1      -1.210  11.867  19.363  0.00  0.00    +0.000 A 
ATOM     16  C   UNL     1      -1.273  13.000  20.194  0.00  0.00    +0.000 A 
ATOM     17  C   UNL     1      -0.144  13.463  20.867  0.00  0.00    +0.000 A 
ATOM     18  C   UNL     1       1.056  12.785  20.733  0.00  0.00    +0.000 A 
ATOM     19  C   UNL     1       1.138  11.674  19.889  0.00  0.00    +0.000 A 
ATOM     20  C   UNL     1       0.023  11.198  19.149  0.00  0.00    +0.000 A 
ENDBRANCH  10  11
ENDBRANCH   5   9
BRANCH   1  21
ATOM     21  C   UNL     1       2.494   5.673  18.047  0.00  0.00    +0.000 C 
BRANCH  21  22
ATOM     22  C   UNL     1       2.205   4.171  18.112  0.00  0.00    +0.000 C 
BRANCH  22  23
ATOM     23  O   UNL     1       3.365   3.425  17.683  0.00  0.00    +0.000 OA
BRANCH  23  25
ATOM     24  O   UNL     1       4.419   2.561  19.522  0.00  0.00    +0.000 OA
ATOM     25  C   UNL     1       4.389   3.325  18.568  0.00  0.00    +0.000 C 
BRANCH  25  26
ATOM     26  C   UNL     1       5.506   4.251  18.235  0.00  0.00    +0.000 A 
ATOM     27  C   UNL     1       6.071   4.990  19.290  0.00  0.00    +0.000 A 
ATOM     28  C   UNL     1       7.088   5.922  19.046  0.00  0.00    +0.000 A 
ATOM     29  C   UNL     1       7.545   6.127  17.746  0.00  0.00    +0.000 A 
ATOM     30  C   UNL     1       6.989   5.398  16.693  0.00  0.00    +0.000 A 
ATOM     31  C   UNL     1       5.977   4.451  16.929  0.00  0.00    +0.000 A 
ATOM     32  O   UNL     1       5.408   3.747  15.895  0.00  0.00    +0.000 OA
ATOM     33  C   UNL     1       6.293   3.678  14.774  0.00  0.00    +0.000 C 
ATOM     34  C   UNL     1       6.741   5.075  14.394  0.00  0.00    +0.000 C 
ATOM     35  O   UNL     1       7.504   5.670  15.448  0.00  0.00    +0.000 OA
ENDBRANCH  25  26
ENDBRANCH  23  25
ENDBRANCH  22  23
ENDBRANCH  21  22
ENDBRANCH   1  21
TORSDOF 8
ENDMDL
MODEL 9
REMARK VINA RESULT:      -8.6      4.222     10.080
REMARK  Name = 
REMARK  8 active torsions:
REMARK  status: ('A' for Active; 'I' for Inactive)
REMARK    1  A    between atoms: C_2  and  O_3
REMARK    2  A    between atoms: C_2  and  C_26
REMARK    3  A    between atoms: O_3  and  C_4
REMARK    4  A    between atoms: C_4  and  C_5
REMARK    5  A    between atoms: C_5  and  N_6
REMARK    6  A    between atoms: C_7  and  N_8
REMARK    7  A    between atoms: C_13  and  C_14
REMARK    8  A    between atoms: C_15  and  C_16
REMARK                            x       y       z     vdW  Elec       q    Type
REMARK                         _______ _______ _______ _____ _____    ______ ____
ROOT
ATOM      1  N   UNL     1       0.712   9.106  20.079  0.00  0.00    +0.000 N 
ATOM      2  C   UNL     1       0.723   9.848  18.920  0.00  0.00    +0.000 A 
ATOM      3  C   UNL     1       1.686   9.320  18.107  0.00  0.00    +0.000 A 
ATOM      4  N   UNL     1       2.305   8.283  18.745  0.00  0.00    +0.000 NA
ATOM      5  C   UNL     1       1.693   8.136  19.908  0.00  0.00    +0.000 A 
ENDROOT
BRANCH   2   6
ATOM      6  N   UNL     1      -0.173  10.898  18.623  0.00  0.00    +0.000 N 
ATOM      7  O   UNL     1      -1.177  10.602  17.967  0.00  0.00    +0.000 OA
ATOM      8  O   UNL     1       0.126  12.017  19.051  0.00  0.00    +0.000 OA
ENDBRANCH   2   6
BRANCH   5   9
ATOM      9  C   UNL     1       1.801   7.035  20.784  0.00  0.00    +0.000 C 
ATOM     10  C   UNL     1       2.069   5.759  20.459  0.00  0.00    +0.000 C 
BRANCH  10  11
ATOM     11  C   UNL     1       2.389   5.043  19.197  0.00  0.00    +0.000 A 
ATOM     12  C   UNL     1       1.403   4.310  18.518  0.00  0.00    +0.000 A 
ATOM     13  C   UNL     1       1.733   3.480  17.448  0.00  0.00    +0.000 A 
ATOM     14  C   UNL     1       3.061   3.330  17.061  0.00  0.00    +0.000 A 
ATOM     15  C   UNL     1       4.077   4.054  17.699  0.00  0.00    +0.000 A 
ATOM     16  C   UNL     1       5.413   3.870  17.303  0.00  0.00    +0.000 A 
ATOM     17  C   UNL     1       6.445   4.602  17.887  0.00  0.00    +0.000 A 
ATOM     18  C   UNL     1       6.148   5.542  18.860  0.00  0.00    +0.000 A 
ATOM     19  C   UNL     1       4.826   5.715  19.282  0.00  0.00    +0.000 A 
ATOM     20  C   UNL     1       3.753   4.956  18.746  0.00  0.00    +0.000 A 
ENDBRANCH  10  11
ENDBRANCH   5   9
BRANCH   1  21
ATOM     21  C   UNL     1      -0.283   9.152  21.138  0.00  0.00    +0.000 C 
BRANCH  21  22
ATOM     22  C   UNL     1       0.138   9.878  22.418  0.00  0.00    +0.000 C 
BRANCH  22  23
ATOM     23  O   UNL     1      -1.000  10.547  23.006  0.00  0.00    +0.000 OA
BRANCH  23  25
ATOM     24  O   UNL     1      -0.220  12.625  22.445  0.00  0.00    +0.000 OA
ATOM     25  C   UNL     1      -1.137  11.869  22.736  0.00  0.00    +0.000 C 
BRANCH  25  26
ATOM     26  C   UNL     1      -2.557  12.309  22.811  0.00  0.00    +0.000 A 
ATOM     27  C   UNL     1      -3.074  12.613  24.084  0.00  0.00    +0.000 A 
ATOM     28  C   UNL     1      -4.416  12.980  24.242  0.00  0.00    +0.000 A 
ATOM     29  C   UNL     1      -5.255  13.043  23.130  0.00  0.00    +0.000 A 
ATOM     30  C   UNL     1      -4.749  12.744  21.864  0.00  0.00    +0.000 A 
ATOM     31  C   UNL     1      -3.400  12.387  21.693  0.00  0.00    +0.000 A 
ATOM     32  O   UNL     1      -2.901  12.067  20.453  0.00  0.00    +0.000 OA
ATOM     33  C   UNL     1      -3.686  12.661  19.416  0.00  0.00    +0.000 C 
ATOM     34  C   UNL     1      -5.143  12.291  19.607  0.00  0.00    +0.000 C 
ATOM     35  O   UNL     1      -5.651  12.834  20.830  0.00  0.00    +0.000 OA
ENDBRANCH  25  26
ENDBRANCH  23  25
ENDBRANCH  22  23
ENDBRANCH  21  22
ENDBRANCH   1  21
TORSDOF 8
ENDMDL
