MODEL 1
REMARK VINA RESULT:      -6.2      0.000      0.000
REMARK  Name = 
REMARK  3 active torsions:
REMARK  status: ('A' for Active; 'I' for Inactive)
REMARK    1  A    between atoms: O_1  and  C_2
REMARK    2  A    between atoms: C_2  and  C_3
REMARK    3  A    between atoms: C_2  and  C_9
REMARK                            x       y       z     vdW  Elec       q    Type
REMARK                         _______ _______ _______ _____ _____    ______ ____
ROOT
ATOM      1  C   UNL     1       3.873   4.638  18.958  0.00  0.00    +0.000 C 
ENDROOT
BRANCH   1   2
ATOM      2  C   UNL     1       2.384   5.075  18.869  0.00  0.00    +0.000 C 
ATOM      3  C   UNL     1       1.711   5.217  20.252  0.00  0.00    +0.000 C 
ATOM      4  C   UNL     1       1.405   3.866  20.897  0.00  0.00    +0.000 C 
ATOM      5  N   UNL     1       0.617   2.998  20.020  0.00  0.00    +0.000 NA
ATOM      6  C   UNL     1       1.270   2.800  18.725  0.00  0.00    +0.000 C 
ATOM      7  C   UNL     1       1.520   4.131  18.018  0.00  0.00    +0.000 C 
ATOM      8  H   UNL     1      -0.297   3.426  19.866  0.00  0.00    +0.000 HD
ENDBRANCH   1   2
BRANCH   1   9
ATOM      9  C   UNL     1       4.663   4.750  17.624  0.00  0.00    +0.000 C 
ATOM     10  C   UNL     1       6.169   4.501  17.841  0.00  0.00    +0.000 C 
ATOM     11  C   UNL     1       6.965   4.726  16.560  0.00  0.00    +0.000 C 
ATOM     12  O   UNL     1       6.727   6.028  16.030  0.00  0.00    +0.000 OA
ATOM     13  C   UNL     1       5.357   6.224  15.693  0.00  0.00    +0.000 C 
ATOM     14  C   UNL     1       4.473   6.108  16.926  0.00  0.00    +0.000 C 
ENDBRANCH   1   9
BRANCH   1  15
ATOM     15  O   UNL     1       4.532   5.454  19.929  0.00  0.00    +0.000 OA
ATOM     16  H   UNL     1       4.747   4.896  20.695  0.00  0.00    +0.000 HD
ENDBRANCH   1  15
TORSDOF 3
ENDMDL
MODEL 2
REMARK VINA RESULT:      -6.2      1.345      1.843
REMARK  Name = 
REMARK  3 active torsions:
REMARK  status: ('A' for Active; 'I' for Inactive)
REMARK    1  A    between atoms: O_1  and  C_2
REMARK    2  A    between atoms: C_2  and  C_3
REMARK    3  A    between atoms: C_2  and  C_9
REMARK                            x       y       z     vdW  Elec       q    Type
REMARK                         _______ _______ _______ _____ _____    ______ ____
ROOT
ATOM      1  C   UNL     1       4.519   3.709  18.446  0.00  0.00    +0.000 C 
ENDROOT
BRANCH   1   2
ATOM      2  C   UNL     1       3.325   4.183  19.321  0.00  0.00    +0.000 C 
ATOM      3  C   UNL     1       2.624   3.026  20.066  0.00  0.00    +0.000 C 
ATOM      4  C   UNL     1       1.765   2.165  19.140  0.00  0.00    +0.000 C 
ATOM      5  N   UNL     1       0.798   2.961  18.383  0.00  0.00    +0.000 NA
ATOM      6  C   UNL     1       1.450   4.025  17.619  0.00  0.00    +0.000 C 
ATOM      7  C   UNL     1       2.255   4.951  18.529  0.00  0.00    +0.000 C 
ATOM      8  H   UNL     1       0.134   3.383  19.034  0.00  0.00    +0.000 HD
ENDBRANCH   1   2
BRANCH   1   9
ATOM      9  C   UNL     1       5.147   4.813  17.550  0.00  0.00    +0.000 C 
ATOM     10  C   UNL     1       5.291   4.337  16.091  0.00  0.00    +0.000 C 
ATOM     11  C   UNL     1       6.013   5.371  15.234  0.00  0.00    +0.000 C 
ATOM     12  O   UNL     1       7.280   5.709  15.795  0.00  0.00    +0.000 OA
ATOM     13  C   UNL     1       7.152   6.281  17.093  0.00  0.00    +0.000 C 
ATOM     14  C   UNL     1       6.516   5.293  18.061  0.00  0.00    +0.000 C 
ENDBRANCH   1   9
BRANCH   1  15
ATOM     15  O   UNL     1       5.545   3.206  19.307  0.00  0.00    +0.000 OA
ATOM     16  H   UNL     1       5.888   2.385  18.918  0.00  0.00    +0.000 HD
ENDBRANCH   1  15
TORSDOF 3
ENDMDL
MODEL 3
REMARK VINA RESULT:      -6.1      2.739      5.503
REMARK  Name = 
REMARK  3 active torsions:
REMARK  status: ('A' for Active; 'I' for Inactive)
REMARK    1  A    between atoms: O_1  and  C_2
REMARK    2  A    between atoms: C_2  and  C_3
REMARK    3  A    between atoms: C_2  and  C_9
REMARK                            x       y       z     vdW  Elec       q    Type
REMARK                         _______ _______ _______ _____ _____    ______ ____
ROOT
ATOM      1  C   UNL     1       4.465   4.401  18.296  0.00  0.00    +0.000 C 
ENDROOT
BRANCH   1   2
ATOM      2  C   UNL     1       4.776   4.691  16.801  0.00  0.00    +0.000 C 
ATOM      3  C   UNL     1       6.074   4.015  16.310  0.00  0.00    +0.000 C 
ATOM      4  C   UNL     1       7.332   4.707  16.835  0.00  0.00    +0.000 C 
ATOM      5  N   UNL     1       7.344   6.139  16.534  0.00  0.00    +0.000 NA
ATOM      6  C   UNL     1       6.149   6.811  17.047  0.00  0.00    +0.000 C 
ATOM      7  C   UNL     1       4.874   6.191  16.478  0.00  0.00    +0.000 C 
ATOM      8  H   UNL     1       7.382   6.264  15.521  0.00  0.00    +0.000 HD
ENDBRANCH   1   2
BRANCH   1   9
ATOM      9  C   UNL     1       2.958   4.200  18.619  0.00  0.00    +0.000 C 
ATOM     10  C   UNL     1       2.651   4.530  20.093  0.00  0.00    +0.000 C 
ATOM     11  C   UNL     1       1.199   4.221  20.446  0.00  0.00    +0.000 C 
ATOM     12  O   UNL     1       0.874   2.867  20.140  0.00  0.00    +0.000 OA
ATOM     13  C   UNL     1       1.020   2.584  18.752  0.00  0.00    +0.000 C 
ATOM     14  C   UNL     1       2.463   2.777  18.308  0.00  0.00    +0.000 C 
ENDBRANCH   1   9
BRANCH   1  15
ATOM     15  O   UNL     1       5.160   3.213  18.685  0.00  0.00    +0.000 OA
ATOM     16  H   UNL     1       6.113   3.401  18.662  0.00  0.00    +0.000 HD
ENDBRANCH   1  15
TORSDOF 3
ENDMDL
MODEL 4
REMARK VINA RESULT:      -6.1      1.384      1.454
REMARK  Name = 
REMARK  3 active torsions:
REMARK  status: ('A' for Active; 'I' for Inactive)
REMARK    1  A    between atoms: O_1  and  C_2
REMARK    2  A    between atoms: C_2  and  C_3
REMARK    3  A    between atoms: C_2  and  C_9
REMARK                            x       y       z     vdW  Elec       q    Type
REMARK                         _______ _______ _______ _____ _____    ______ ____
ROOT
ATOM      1  C   UNL     1       3.406   4.949  19.394  0.00  0.00    +0.000 C 
ENDROOT
BRANCH   1   2
ATOM      2  C   UNL     1       2.077   4.520  18.711  0.00  0.00    +0.000 C 
ATOM      3  C   UNL     1       1.091   3.835  19.681  0.00  0.00    +0.000 C 
ATOM      4  C   UNL     1       1.512   2.410  20.039  0.00  0.00    +0.000 C 
ATOM      5  N   UNL     1       1.735   1.583  18.851  0.00  0.00    +0.000 NA
ATOM      6  C   UNL     1       2.716   2.186  17.947  0.00  0.00    +0.000 C 
ATOM      7  C   UNL     1       2.284   3.584  17.508  0.00  0.00    +0.000 C 
ATOM      8  H   UNL     1       0.851   1.475  18.352  0.00  0.00    +0.000 HD
ENDBRANCH   1   2
BRANCH   1   9
ATOM      9  C   UNL     1       4.587   5.205  18.416  0.00  0.00    +0.000 C 
ATOM     10  C   UNL     1       5.937   5.216  19.158  0.00  0.00    +0.000 C 
ATOM     11  C   UNL     1       7.087   5.583  18.225  0.00  0.00    +0.000 C 
ATOM     12  O   UNL     1       6.843   6.829  17.577  0.00  0.00    +0.000 OA
ATOM     13  C   UNL     1       5.667   6.791  16.773  0.00  0.00    +0.000 C 
ATOM     14  C   UNL     1       4.436   6.516  17.625  0.00  0.00    +0.000 C 
ENDBRANCH   1   9
BRANCH   1  15
ATOM     15  O   UNL     1       3.173   6.155  20.127  0.00  0.00    +0.000 OA
ATOM     16  H   UNL     1       2.219   6.338  20.110  0.00  0.00    +0.000 HD
ENDBRANCH   1  15
TORSDOF 3
ENDMDL
MODEL 5
REMARK VINA RESULT:      -6.1      1.448      1.768
REMARK  Name = 
REMARK  3 active torsions:
REMARK  status: ('A' for Active; 'I' for Inactive)
REMARK    1  A    between atoms: O_1  and  C_2
REMARK    2  A    between atoms: C_2  and  C_3
REMARK    3  A    between atoms: C_2  and  C_9
REMARK                            x       y       z     vdW  Elec       q    Type
REMARK                         _______ _______ _______ _____ _____    ______ ____
ROOT
ATOM      1  C   UNL     1       3.762   4.682  17.886  0.00  0.00    +0.000 C 
ENDROOT
BRANCH   1   2
ATOM      2  C   UNL     1       2.575   3.783  17.439  0.00  0.00    +0.000 C 
ATOM      3  C   UNL     1       1.256   4.117  18.168  0.00  0.00    +0.000 C 
ATOM      4  C   UNL     1       1.244   3.626  19.616  0.00  0.00    +0.000 C 
ATOM      5  N   UNL     1       1.552   2.199  19.720  0.00  0.00    +0.000 NA
ATOM      6  C   UNL     1       2.831   1.872  19.089  0.00  0.00    +0.000 C 
ATOM      7  C   UNL     1       2.846   2.280  17.616  0.00  0.00    +0.000 C 
ATOM      8  H   UNL     1       0.812   1.666  19.259  0.00  0.00    +0.000 HD
ENDBRANCH   1   2
BRANCH   1   9
ATOM      9  C   UNL     1       5.144   4.270  17.304  0.00  0.00    +0.000 C 
ATOM     10  C   UNL     1       6.300   4.865  18.130  0.00  0.00    +0.000 C 
ATOM     11  C   UNL     1       7.655   4.564  17.496  0.00  0.00    +0.000 C 
ATOM     12  O   UNL     1       7.700   5.013  16.144  0.00  0.00    +0.000 OA
ATOM     13  C   UNL     1       6.723   4.366  15.335  0.00  0.00    +0.000 C 
ATOM     14  C   UNL     1       5.318   4.674  15.829  0.00  0.00    +0.000 C 
ENDBRANCH   1   9
BRANCH   1  15
ATOM     15  O   UNL     1       3.496   6.026  17.477  0.00  0.00    +0.000 OA
ATOM     16  H   UNL     1       2.586   6.063  17.139  0.00  0.00    +0.000 HD
ENDBRANCH   1  15
TORSDOF 3
ENDMDL
MODEL 6
REMARK VINA RESULT:      -6.1      2.891      5.452
REMARK  Name = 
REMARK  3 active torsions:
REMARK  status: ('A' for Active; 'I' for Inactive)
REMARK    1  A    between atoms: O_1  and  C_2
REMARK    2  A    between atoms: C_2  and  C_3
REMARK    3  A    between atoms: C_2  and  C_9
REMARK                            x       y       z     vdW  Elec       q    Type
REMARK                         _______ _______ _______ _____ _____    ______ ____
ROOT
ATOM      1  C   UNL     1       4.620   3.795  18.184  0.00  0.00    +0.000 C 
ENDROOT
BRANCH   1   2
ATOM      2  C   UNL     1       4.506   4.873  17.070  0.00  0.00    +0.000 C 
ATOM      3  C   UNL     1       5.212   4.466  15.760  0.00  0.00    +0.000 C 
ATOM      4  C   UNL     1       6.735   4.553  15.861  0.00  0.00    +0.000 C 
ATOM      5  N   UNL     1       7.187   5.871  16.310  0.00  0.00    +0.000 NA
ATOM      6  C   UNL     1       6.575   6.249  17.585  0.00  0.00    +0.000 C 
ATOM      7  C   UNL     1       5.050   6.247  17.493  0.00  0.00    +0.000 C 
ATOM      8  H   UNL     1       6.933   6.565  15.605  0.00  0.00    +0.000 HD
ENDBRANCH   1   2
BRANCH   1   9
ATOM      9  C   UNL     1       3.584   3.938  19.335  0.00  0.00    +0.000 C 
ATOM     10  C   UNL     1       3.599   2.705  20.260  0.00  0.00    +0.000 C 
ATOM     11  C   UNL     1       2.505   2.786  21.319  0.00  0.00    +0.000 C 
ATOM     12  O   UNL     1       1.224   2.969  20.721  0.00  0.00    +0.000 OA
ATOM     13  C   UNL     1       1.152   4.180  19.975  0.00  0.00    +0.000 C 
ATOM     14  C   UNL     1       2.151   4.169  18.826  0.00  0.00    +0.000 C 
ENDBRANCH   1   9
BRANCH   1  15
ATOM     15  O   UNL     1       4.442   2.506  17.591  0.00  0.00    +0.000 OA
ATOM     16  H   UNL     1       3.679   2.081  18.018  0.00  0.00    +0.000 HD
ENDBRANCH   1  15
TORSDOF 3
ENDMDL
MODEL 7
REMARK VINA RESULT:      -6.0      0.903      1.047
REMARK  Name = 
REMARK  3 active torsions:
REMARK  status: ('A' for Active; 'I' for Inactive)
REMARK    1  A    between atoms: O_1  and  C_2
REMARK    2  A    between atoms: C_2  and  C_3
REMARK    3  A    between atoms: C_2  and  C_9
REMARK                            x       y       z     vdW  Elec       q    Type
REMARK                         _______ _______ _______ _____ _____    ______ ____
ROOT
ATOM      1  C   UNL     1       3.938   4.742  18.812  0.00  0.00    +0.000 C 
ENDROOT
BRANCH   1   2
ATOM      2  C   UNL     1       2.458   5.202  18.692  0.00  0.00    +0.000 C 
ATOM      3  C   UNL     1       1.779   5.422  20.061  0.00  0.00    +0.000 C 
ATOM      4  C   UNL     1       1.444   4.108  20.768  0.00  0.00    +0.000 C 
ATOM      5  N   UNL     1       0.647   3.214  19.928  0.00  0.00    +0.000 NA
ATOM      6  C   UNL     1       1.304   2.942  18.649  0.00  0.00    +0.000 C 
ATOM      7  C   UNL     1       1.582   4.233  17.880  0.00  0.00    +0.000 C 
ATOM      8  H   UNL     1      -0.259   3.650  19.746  0.00  0.00    +0.000 HD
ENDBRANCH   1   2
BRANCH   1   9
ATOM      9  C   UNL     1       4.829   5.094  17.588  0.00  0.00    +0.000 C 
ATOM     10  C   UNL     1       5.132   3.846  16.736  0.00  0.00    +0.000 C 
ATOM     11  C   UNL     1       6.102   4.163  15.602  0.00  0.00    +0.000 C 
ATOM     12  O   UNL     1       7.300   4.751  16.102  0.00  0.00    +0.000 OA
ATOM     13  C   UNL     1       7.050   5.981  16.774  0.00  0.00    +0.000 C 
ATOM     14  C   UNL     1       6.155   5.766  17.986  0.00  0.00    +0.000 C 
ENDBRANCH   1   9
BRANCH   1  15
ATOM     15  O   UNL     1       4.514   5.358  19.967  0.00  0.00    +0.000 OA
ATOM     16  H   UNL     1       4.881   6.217  19.698  0.00  0.00    +0.000 HD
ENDBRANCH   1  15
TORSDOF 3
ENDMDL
MODEL 8
REMARK VINA RESULT:      -6.0      2.883      5.473
REMARK  Name = 
REMARK  3 active torsions:
REMARK  status: ('A' for Active; 'I' for Inactive)
REMARK    1  A    between atoms: O_1  and  C_2
REMARK    2  A    between atoms: C_2  and  C_3
REMARK    3  A    between atoms: C_2  and  C_9
REMARK                            x       y       z     vdW  Elec       q    Type
REMARK                         _______ _______ _______ _____ _____    ______ ____
ROOT
ATOM      1  C   UNL     1       4.324   3.940  17.879  0.00  0.00    +0.000 C 
ENDROOT
BRANCH   1   2
ATOM      2  C   UNL     1       5.001   5.225  17.325  0.00  0.00    +0.000 C 
ATOM      3  C   UNL     1       5.325   5.136  15.818  0.00  0.00    +0.000 C 
ATOM      4  C   UNL     1       6.522   4.230  15.527  0.00  0.00    +0.000 C 
ATOM      5  N   UNL     1       7.708   4.614  16.295  0.00  0.00    +0.000 NA
ATOM      6  C   UNL     1       7.437   4.643  17.733  0.00  0.00    +0.000 C 
ATOM      7  C   UNL     1       6.294   5.601  18.066  0.00  0.00    +0.000 C 
ATOM      8  H   UNL     1       8.007   5.544  15.998  0.00  0.00    +0.000 HD
ENDBRANCH   1   2
BRANCH   1   9
ATOM      9  C   UNL     1       3.692   4.096  19.291  0.00  0.00    +0.000 C 
ATOM     10  C   UNL     1       3.268   2.731  19.870  0.00  0.00    +0.000 C 
ATOM     11  C   UNL     1       2.541   2.889  21.201  0.00  0.00    +0.000 C 
ATOM     12  O   UNL     1       1.425   3.766  21.075  0.00  0.00    +0.000 OA
ATOM     13  C   UNL     1       1.818   5.075  20.673  0.00  0.00    +0.000 C 
ATOM     14  C   UNL     1       2.482   5.046  19.304  0.00  0.00    +0.000 C 
ENDBRANCH   1   9
BRANCH   1  15
ATOM     15  O   UNL     1       3.289   3.543  16.975  0.00  0.00    +0.000 OA
ATOM     16  H   UNL     1       2.768   4.332  16.750  0.00  0.00    +0.000 HD
ENDBRANCH   1  15
TORSDOF 3
ENDMDL
MODEL 9
REMARK VINA RESULT:      -6.0      1.282      1.461
REMARK  Name = 
REMARK  3 active torsions:
REMARK  status: ('A' for Active; 'I' for Inactive)
REMARK    1  A    between atoms: O_1  and  C_2
REMARK    2  A    between atoms: C_2  and  C_3
REMARK    3  A    between atoms: C_2  and  C_9
REMARK                            x       y       z     vdW  Elec       q    Type
REMARK                         _______ _______ _______ _____ _____    ______ ____
ROOT
ATOM      1  C   UNL     1       4.247   3.597  18.568  0.00  0.00    +0.000 C 
ENDROOT
BRANCH   1   2
ATOM      2  C   UNL     1       3.134   4.456  19.231  0.00  0.00    +0.000 C 
ATOM      3  C   UNL     1       2.756   3.970  20.646  0.00  0.00    +0.000 C 
ATOM      4  C   UNL     1       1.925   2.687  20.624  0.00  0.00    +0.000 C 
ATOM      5  N   UNL     1       0.736   2.812  19.780  0.00  0.00    +0.000 NA
ATOM      6  C   UNL     1       1.079   3.212  18.415  0.00  0.00    +0.000 C 
ATOM      7  C   UNL     1       1.845   4.534  18.398  0.00  0.00    +0.000 C 
ATOM      8  H   UNL     1       0.116   3.516  20.183  0.00  0.00    +0.000 HD
ENDBRANCH   1   2
BRANCH   1   9
ATOM      9  C   UNL     1       5.191   4.380  17.613  0.00  0.00    +0.000 C 
ATOM     10  C   UNL     1       5.210   5.883  17.952  0.00  0.00    +0.000 C 
ATOM     11  C   UNL     1       6.041   6.674  16.946  0.00  0.00    +0.000 C 
ATOM     12  O   UNL     1       5.584   6.449  15.614  0.00  0.00    +0.000 OA
ATOM     13  C   UNL     1       5.691   5.080  15.238  0.00  0.00    +0.000 C 
ATOM     14  C   UNL     1       4.825   4.202  16.129  0.00  0.00    +0.000 C 
ENDBRANCH   1   9
BRANCH   1  15
ATOM     15  O   UNL     1       5.049   3.014  19.599  0.00  0.00    +0.000 OA
ATOM     16  H   UNL     1       4.504   2.362  20.071  0.00  0.00    +0.000 HD
ENDBRANCH   1  15
TORSDOF 3
ENDMDL
