MODEL 1
REMARK VINA RESULT:      -7.7      0.000      0.000
REMARK  Name = 
REMARK  11 active torsions:
REMARK  status: ('A' for Active; 'I' for Inactive)
REMARK    1  A    between atoms: C_1  and  C_2
REMARK    2  A    between atoms: C_2  and  C_3
REMARK    3  A    between atoms: C_2  and  C_4
REMARK    4  A    between atoms: C_4  and  N_5
REMARK    5  A    between atoms: C_6  and  C_8
REMARK    6  A    between atoms: C_8  and  C_9
REMARK    7  A    between atoms: C_8  and  N_16
REMARK    8  A    between atoms: C_9  and  C_10
REMARK    9  A    between atoms: C_17  and  C_19
REMARK   10  A    between atoms: C_23  and  O_24
REMARK   11  A    between atoms: C_25  and  O_26
REMARK                            x       y       z     vdW  Elec       q    Type
REMARK                         _______ _______ _______ _____ _____    ______ ____
ROOT
ATOM      1  C   UNL     1       4.367   4.972  17.224  0.00  0.00    +0.000 C 
ENDROOT
BRANCH   1   3
ATOM      2  N   UNL     1       5.582   4.184  15.176  0.00  0.00    +0.000 N 
ATOM      3  C   UNL     1       5.217   5.215  15.991  0.00  0.00    +0.000 C 
ATOM      4  O   UNL     1       5.597   6.354  15.751  0.00  0.00    +0.000 OA
ATOM      5  H   UNL     1       5.243   3.234  15.388  0.00  0.00    +0.000 HD
BRANCH   2   6
ATOM      6  C   UNL     1       6.444   4.411  14.027  0.00  0.00    +0.000 C 
BRANCH   6   8
ATOM      7  C   UNL     1       4.740   3.574  12.386  0.00  0.00    +0.000 C 
ATOM      8  C   UNL     1       6.191   3.423  12.866  0.00  0.00    +0.000 C 
ATOM      9  C   UNL     1       7.144   3.655  11.681  0.00  0.00    +0.000 C 
ENDBRANCH   6   8
ENDBRANCH   2   6
ENDBRANCH   1   3
BRANCH   1  10
ATOM     10  N   UNL     1       3.450   6.096  17.417  0.00  0.00    +0.000 N 
ATOM     11  C   UNL     1       3.276   6.663  18.651  0.00  0.00    +0.000 C 
ATOM     12  O   UNL     1       3.888   6.206  19.606  0.00  0.00    +0.000 OA
ATOM     13  H   UNL     1       2.926   6.465  16.610  0.00  0.00    +0.000 HD
BRANCH  11  14
ATOM     14  C   UNL     1       2.351   7.818  18.867  0.00  0.00    +0.000 A 
ATOM     15  N   UNL     1       2.121   8.702  17.854  0.00  0.00    +0.000 NA
ATOM     16  C   UNL     1       1.285   9.766  17.993  0.00  0.00    +0.000 A 
ATOM     17  C   UNL     1       0.625   9.987  19.201  0.00  0.00    +0.000 A 
ATOM     18  C   UNL     1       0.834   9.110  20.269  0.00  0.00    +0.000 A 
ATOM     19  C   UNL     1       1.703   8.017  20.111  0.00  0.00    +0.000 A 
BRANCH  18  20
ATOM     20  O   UNL     1       0.201   9.303  21.446  0.00  0.00    +0.000 OA
ATOM     21  H   UNL     1      -0.280  10.117  21.649  0.00  0.00    +0.000 HD
ENDBRANCH  18  20
BRANCH  19  22
ATOM     22  O   UNL     1       1.918   7.166  21.139  0.00  0.00    +0.000 OA
ATOM     23  H   UNL     1       2.502   7.372  21.883  0.00  0.00    +0.000 HD
ENDBRANCH  19  22
ENDBRANCH  11  14
ENDBRANCH   1  10
BRANCH   1  24
ATOM     24  C   UNL     1       3.616   3.627  17.073  0.00  0.00    +0.000 C 
BRANCH  24  25
ATOM     25  C   UNL     1       2.859   3.240  18.322  0.00  0.00    +0.000 A 
ATOM     26  C   UNL     1       3.553   2.904  19.499  0.00  0.00    +0.000 A 
ATOM     27  C   UNL     1       2.853   2.544  20.654  0.00  0.00    +0.000 A 
ATOM     28  C   UNL     1       1.456   2.514  20.647  0.00  0.00    +0.000 A 
ATOM     29  C   UNL     1       0.756   2.854  19.486  0.00  0.00    +0.000 A 
ATOM     30  C   UNL     1       1.451   3.220  18.330  0.00  0.00    +0.000 A 
ENDBRANCH  24  25
ENDBRANCH   1  24
TORSDOF 9
ENDMDL
MODEL 2
REMARK VINA RESULT:      -7.5      2.902      6.926
REMARK  Name = 
REMARK  11 active torsions:
REMARK  status: ('A' for Active; 'I' for Inactive)
REMARK    1  A    between atoms: C_1  and  C_2
REMARK    2  A    between atoms: C_2  and  C_3
REMARK    3  A    between atoms: C_2  and  C_4
REMARK    4  A    between atoms: C_4  and  N_5
REMARK    5  A    between atoms: C_6  and  C_8
REMARK    6  A    between atoms: C_8  and  C_9
REMARK    7  A    between atoms: C_8  and  N_16
REMARK    8  A    between atoms: C_9  and  C_10
REMARK    9  A    between atoms: C_17  and  C_19
REMARK   10  A    between atoms: C_23  and  O_24
REMARK   11  A    between atoms: C_25  and  O_26
REMARK                            x       y       z     vdW  Elec       q    Type
REMARK                         _______ _______ _______ _____ _____    ______ ____
ROOT
ATOM      1  C   UNL     1       5.876   4.004  18.513  0.00  0.00    +0.000 C 
ENDROOT
BRANCH   1   3
ATOM      2  N   UNL     1       3.738   2.788  18.022  0.00  0.00    +0.000 N 
ATOM      3  C   UNL     1       4.697   3.144  18.925  0.00  0.00    +0.000 C 
ATOM      4  O   UNL     1       4.602   2.792  20.094  0.00  0.00    +0.000 OA
ATOM      5  H   UNL     1       3.840   3.084  17.040  0.00  0.00    +0.000 HD
BRANCH   2   6
ATOM      6  C   UNL     1       2.579   2.012  18.432  0.00  0.00    +0.000 C 
BRANCH   6   8
ATOM      7  C   UNL     1       0.997   3.272  19.919  0.00  0.00    +0.000 C 
ATOM      8  C   UNL     1       1.271   2.836  18.472  0.00  0.00    +0.000 C 
ATOM      9  C   UNL     1       1.335   4.081  17.571  0.00  0.00    +0.000 C 
ENDBRANCH   6   8
ENDBRANCH   2   6
ENDBRANCH   1   3
BRANCH   1  10
ATOM     10  N   UNL     1       5.900   4.138  17.056  0.00  0.00    +0.000 N 
ATOM     11  C   UNL     1       7.066   4.401  16.388  0.00  0.00    +0.000 C 
ATOM     12  O   UNL     1       8.098   4.540  17.029  0.00  0.00    +0.000 OA
ATOM     13  H   UNL     1       5.022   4.035  16.524  0.00  0.00    +0.000 HD
BRANCH  11  14
ATOM     14  C   UNL     1       7.112   4.532  14.899  0.00  0.00    +0.000 A 
ATOM     15  N   UNL     1       7.946   5.444  14.324  0.00  0.00    +0.000 NA
ATOM     16  C   UNL     1       8.033   5.602  12.975  0.00  0.00    +0.000 A 
ATOM     17  C   UNL     1       7.255   4.817  12.125  0.00  0.00    +0.000 A 
ATOM     18  C   UNL     1       6.382   3.871  12.671  0.00  0.00    +0.000 A 
ATOM     19  C   UNL     1       6.301   3.722  14.065  0.00  0.00    +0.000 A 
BRANCH  18  20
ATOM     20  O   UNL     1       5.622   3.098  11.865  0.00  0.00    +0.000 OA
ATOM     21  H   UNL     1       5.311   2.222  12.130  0.00  0.00    +0.000 HD
ENDBRANCH  18  20
BRANCH  19  22
ATOM     22  O   UNL     1       5.455   2.817  14.604  0.00  0.00    +0.000 OA
ATOM     23  H   UNL     1       5.064   2.090  14.098  0.00  0.00    +0.000 HD
ENDBRANCH  19  22
ENDBRANCH  11  14
ENDBRANCH   1  10
BRANCH   1  24
ATOM     24  C   UNL     1       5.784   5.376  19.223  0.00  0.00    +0.000 C 
BRANCH  24  25
ATOM     25  C   UNL     1       4.531   6.138  18.858  0.00  0.00    +0.000 A 
ATOM     26  C   UNL     1       4.458   6.846  17.645  0.00  0.00    +0.000 A 
ATOM     27  C   UNL     1       3.300   7.553  17.307  0.00  0.00    +0.000 A 
ATOM     28  C   UNL     1       2.206   7.561  18.176  0.00  0.00    +0.000 A 
ATOM     29  C   UNL     1       2.265   6.855  19.380  0.00  0.00    +0.000 A 
ATOM     30  C   UNL     1       3.418   6.142  19.720  0.00  0.00    +0.000 A 
ENDBRANCH  24  25
ENDBRANCH   1  24
TORSDOF 9
ENDMDL
MODEL 3
REMARK VINA RESULT:      -7.5      1.247      1.537
REMARK  Name = 
REMARK  11 active torsions:
REMARK  status: ('A' for Active; 'I' for Inactive)
REMARK    1  A    between atoms: C_1  and  C_2
REMARK    2  A    between atoms: C_2  and  C_3
REMARK    3  A    between atoms: C_2  and  C_4
REMARK    4  A    between atoms: C_4  and  N_5
REMARK    5  A    between atoms: C_6  and  C_8
REMARK    6  A    between atoms: C_8  and  C_9
REMARK    7  A    between atoms: C_8  and  N_16
REMARK    8  A    between atoms: C_9  and  C_10
REMARK    9  A    between atoms: C_17  and  C_19
REMARK   10  A    between atoms: C_23  and  O_24
REMARK   11  A    between atoms: C_25  and  O_26
REMARK                            x       y       z     vdW  Elec       q    Type
REMARK                         _______ _______ _______ _____ _____    ______ ____
ROOT
ATOM      1  C   UNL     1       4.508   4.779  17.285  0.00  0.00    +0.000 C 
ENDROOT
BRANCH   1   3
ATOM      2  N   UNL     1       5.611   4.093  15.140  0.00  0.00    +0.000 N 
ATOM      3  C   UNL     1       5.154   5.091  15.949  0.00  0.00    +0.000 C 
ATOM      4  O   UNL     1       5.285   6.262  15.615  0.00  0.00    +0.000 OA
ATOM      5  H   UNL     1       5.482   3.113  15.432  0.00  0.00    +0.000 HD
BRANCH   2   6
ATOM      6  C   UNL     1       6.282   4.396  13.886  0.00  0.00    +0.000 C 
BRANCH   6   8
ATOM      7  C   UNL     1       4.727   3.577  12.094  0.00  0.00    +0.000 C 
ATOM      8  C   UNL     1       6.067   3.318  12.799  0.00  0.00    +0.000 C 
ATOM      9  C   UNL     1       7.195   3.308  11.754  0.00  0.00    +0.000 C 
ENDBRANCH   6   8
ENDBRANCH   2   6
ENDBRANCH   1   3
BRANCH   1  10
ATOM     10  N   UNL     1       3.536   5.822  17.615  0.00  0.00    +0.000 N 
ATOM     11  C   UNL     1       3.472   6.358  18.874  0.00  0.00    +0.000 C 
ATOM     12  O   UNL     1       4.233   5.939  19.736  0.00  0.00    +0.000 OA
ATOM     13  H   UNL     1       2.888   6.159  16.887  0.00  0.00    +0.000 HD
BRANCH  11  14
ATOM     14  C   UNL     1       2.493   7.430  19.229  0.00  0.00    +0.000 A 
ATOM     15  N   UNL     1       1.893   7.425  20.453  0.00  0.00    +0.000 NA
ATOM     16  C   UNL     1       1.000   8.378  20.830  0.00  0.00    +0.000 A 
ATOM     17  C   UNL     1       0.666   9.412  19.956  0.00  0.00    +0.000 A 
ATOM     18  C   UNL     1       1.252   9.456  18.688  0.00  0.00    +0.000 A 
ATOM     19  C   UNL     1       2.170   8.462  18.312  0.00  0.00    +0.000 A 
BRANCH  18  20
ATOM     20  O   UNL     1       0.945  10.450  17.827  0.00  0.00    +0.000 OA
ATOM     21  H   UNL     1       1.601  11.090  17.519  0.00  0.00    +0.000 HD
ENDBRANCH  18  20
BRANCH  19  22
ATOM     22  O   UNL     1       2.738   8.489  17.085  0.00  0.00    +0.000 OA
ATOM     23  H   UNL     1       3.553   8.015  16.868  0.00  0.00    +0.000 HD
ENDBRANCH  19  22
ENDBRANCH  11  14
ENDBRANCH   1  10
BRANCH   1  24
ATOM     24  C   UNL     1       3.859   3.376  17.227  0.00  0.00    +0.000 C 
BRANCH  24  25
ATOM     25  C   UNL     1       2.937   3.112  18.394  0.00  0.00    +0.000 A 
ATOM     26  C   UNL     1       3.465   2.832  19.668  0.00  0.00    +0.000 A 
ATOM     27  C   UNL     1       2.612   2.586  20.748  0.00  0.00    +0.000 A 
ATOM     28  C   UNL     1       1.227   2.615  20.568  0.00  0.00    +0.000 A 
ATOM     29  C   UNL     1       0.692   2.900  19.310  0.00  0.00    +0.000 A 
ATOM     30  C   UNL     1       1.540   3.153  18.228  0.00  0.00    +0.000 A 
ENDBRANCH  24  25
ENDBRANCH   1  24
TORSDOF 9
ENDMDL
MODEL 4
REMARK VINA RESULT:      -7.4      2.109      5.103
REMARK  Name = 
REMARK  11 active torsions:
REMARK  status: ('A' for Active; 'I' for Inactive)
REMARK    1  A    between atoms: C_1  and  C_2
REMARK    2  A    between atoms: C_2  and  C_3
REMARK    3  A    between atoms: C_2  and  C_4
REMARK    4  A    between atoms: C_4  and  N_5
REMARK    5  A    between atoms: C_6  and  C_8
REMARK    6  A    between atoms: C_8  and  C_9
REMARK    7  A    between atoms: C_8  and  N_16
REMARK    8  A    between atoms: C_9  and  C_10
REMARK    9  A    between atoms: C_17  and  C_19
REMARK   10  A    between atoms: C_23  and  O_24
REMARK   11  A    between atoms: C_25  and  O_26
REMARK                            x       y       z     vdW  Elec       q    Type
REMARK                         _______ _______ _______ _____ _____    ______ ____
ROOT
ATOM      1  C   UNL     1       3.112   6.575  17.944  0.00  0.00    +0.000 C 
ENDROOT
BRANCH   1   3
ATOM      2  N   UNL     1       3.320   4.523  19.371  0.00  0.00    +0.000 N 
ATOM      3  C   UNL     1       2.943   5.088  18.188  0.00  0.00    +0.000 C 
ATOM      4  O   UNL     1       2.486   4.390  17.292  0.00  0.00    +0.000 OA
ATOM      5  H   UNL     1       3.693   5.128  20.118  0.00  0.00    +0.000 HD
BRANCH   2   6
ATOM      6  C   UNL     1       3.210   3.089  19.582  0.00  0.00    +0.000 C 
BRANCH   6   8
ATOM      7  C   UNL     1       2.147   3.470  21.823  0.00  0.00    +0.000 C 
ATOM      8  C   UNL     1       2.034   2.692  20.504  0.00  0.00    +0.000 C 
ATOM      9  C   UNL     1       0.666   2.977  19.863  0.00  0.00    +0.000 C 
ENDBRANCH   6   8
ENDBRANCH   2   6
ENDBRANCH   1   3
BRANCH   1  10
ATOM     10  N   UNL     1       2.336   7.325  18.931  0.00  0.00    +0.000 N 
ATOM     11  C   UNL     1       1.827   8.563  18.640  0.00  0.00    +0.000 C 
ATOM     12  O   UNL     1       2.044   9.049  17.538  0.00  0.00    +0.000 OA
ATOM     13  H   UNL     1       2.172   6.915  19.863  0.00  0.00    +0.000 HD
BRANCH  11  14
ATOM     14  C   UNL     1       1.024   9.341  19.632  0.00  0.00    +0.000 A 
ATOM     15  N   UNL     1       0.137  10.282  19.200  0.00  0.00    +0.000 NA
ATOM     16  C   UNL     1      -0.623  11.014  20.057  0.00  0.00    +0.000 A 
ATOM     17  C   UNL     1      -0.515  10.818  21.433  0.00  0.00    +0.000 A 
ATOM     18  C   UNL     1       0.385   9.868  21.924  0.00  0.00    +0.000 A 
ATOM     19  C   UNL     1       1.166   9.121  21.025  0.00  0.00    +0.000 A 
BRANCH  18  20
ATOM     20  O   UNL     1       0.503   9.659  23.253  0.00  0.00    +0.000 OA
ATOM     21  H   UNL     1       0.692  10.375  23.875  0.00  0.00    +0.000 HD
ENDBRANCH  18  20
BRANCH  19  22
ATOM     22  O   UNL     1       2.045   8.205  21.487  0.00  0.00    +0.000 OA
ATOM     23  H   UNL     1       2.362   8.189  22.402  0.00  0.00    +0.000 HD
ENDBRANCH  19  22
ENDBRANCH  11  14
ENDBRANCH   1  10
BRANCH   1  24
ATOM     24  C   UNL     1       4.617   6.935  17.988  0.00  0.00    +0.000 C 
BRANCH  24  25
ATOM     25  C   UNL     1       5.448   6.082  17.058  0.00  0.00    +0.000 A 
ATOM     26  C   UNL     1       6.500   5.298  17.564  0.00  0.00    +0.000 A 
ATOM     27  C   UNL     1       7.271   4.510  16.704  0.00  0.00    +0.000 A 
ATOM     28  C   UNL     1       7.001   4.498  15.334  0.00  0.00    +0.000 A 
ATOM     29  C   UNL     1       5.953   5.267  14.821  0.00  0.00    +0.000 A 
ATOM     30  C   UNL     1       5.176   6.052  15.677  0.00  0.00    +0.000 A 
ENDBRANCH  24  25
ENDBRANCH   1  24
TORSDOF 9
ENDMDL
MODEL 5
REMARK VINA RESULT:      -7.3      2.346      4.782
REMARK  Name = 
REMARK  11 active torsions:
REMARK  status: ('A' for Active; 'I' for Inactive)
REMARK    1  A    between atoms: C_1  and  C_2
REMARK    2  A    between atoms: C_2  and  C_3
REMARK    3  A    between atoms: C_2  and  C_4
REMARK    4  A    between atoms: C_4  and  N_5
REMARK    5  A    between atoms: C_6  and  C_8
REMARK    6  A    between atoms: C_8  and  C_9
REMARK    7  A    between atoms: C_8  and  N_16
REMARK    8  A    between atoms: C_9  and  C_10
REMARK    9  A    between atoms: C_17  and  C_19
REMARK   10  A    between atoms: C_23  and  O_24
REMARK   11  A    between atoms: C_25  and  O_26
REMARK                            x       y       z     vdW  Elec       q    Type
REMARK                         _______ _______ _______ _____ _____    ______ ____
ROOT
ATOM      1  C   UNL     1       2.802   6.546  18.416  0.00  0.00    +0.000 C 
ENDROOT
BRANCH   1   3
ATOM      2  N   UNL     1       2.507   4.315  19.523  0.00  0.00    +0.000 N 
ATOM      3  C   UNL     1       2.275   5.124  18.450  0.00  0.00    +0.000 C 
ATOM      4  O   UNL     1       1.656   4.700  17.483  0.00  0.00    +0.000 OA
ATOM      5  H   UNL     1       3.020   4.693  20.334  0.00  0.00    +0.000 HD
BRANCH   2   6
ATOM      6  C   UNL     1       2.050   2.935  19.530  0.00  0.00    +0.000 C 
BRANCH   6   8
ATOM      7  C   UNL     1       3.499   1.778  17.839  0.00  0.00    +0.000 C 
ATOM      8  C   UNL     1       3.191   1.910  19.338  0.00  0.00    +0.000 C 
ATOM      9  C   UNL     1       4.474   2.313  20.085  0.00  0.00    +0.000 C 
ENDBRANCH   6   8
ENDBRANCH   2   6
ENDBRANCH   1   3
BRANCH   1  10
ATOM     10  N   UNL     1       2.064   7.366  19.377  0.00  0.00    +0.000 N 
ATOM     11  C   UNL     1       1.644   8.629  19.055  0.00  0.00    +0.000 C 
ATOM     12  O   UNL     1       1.909   9.078  17.948  0.00  0.00    +0.000 OA
ATOM     13  H   UNL     1       1.859   6.986  20.313  0.00  0.00    +0.000 HD
BRANCH  11  14
ATOM     14  C   UNL     1       0.881   9.479  20.020  0.00  0.00    +0.000 A 
ATOM     15  N   UNL     1       0.085  10.484  19.558  0.00  0.00    +0.000 NA
ATOM     16  C   UNL     1      -0.635  11.283  20.389  0.00  0.00    +0.000 A 
ATOM     17  C   UNL     1      -0.580  11.092  21.769  0.00  0.00    +0.000 A 
ATOM     18  C   UNL     1       0.227  10.076  22.290  0.00  0.00    +0.000 A 
ATOM     19  C   UNL     1       0.968   9.261  21.418  0.00  0.00    +0.000 A 
BRANCH  18  20
ATOM     20  O   UNL     1       0.292   9.871  23.623  0.00  0.00    +0.000 OA
ATOM     21  H   UNL     1      -0.128   9.113  24.052  0.00  0.00    +0.000 HD
ENDBRANCH  18  20
BRANCH  19  22
ATOM     22  O   UNL     1       1.757   8.280  21.910  0.00  0.00    +0.000 OA
ATOM     23  H   UNL     1       2.050   8.249  22.832  0.00  0.00    +0.000 HD
ENDBRANCH  19  22
ENDBRANCH  11  14
ENDBRANCH   1  10
BRANCH   1  24
ATOM     24  C   UNL     1       4.323   6.537  18.704  0.00  0.00    +0.000 C 
BRANCH  24  25
ATOM     25  C   UNL     1       5.121   5.886  17.598  0.00  0.00    +0.000 A 
ATOM     26  C   UNL     1       4.904   6.251  16.257  0.00  0.00    +0.000 A 
ATOM     27  C   UNL     1       5.641   5.648  15.233  0.00  0.00    +0.000 A 
ATOM     28  C   UNL     1       6.597   4.675  15.536  0.00  0.00    +0.000 A 
ATOM     29  C   UNL     1       6.826   4.312  16.866  0.00  0.00    +0.000 A 
ATOM     30  C   UNL     1       6.097   4.915  17.894  0.00  0.00    +0.000 A 
ENDBRANCH  24  25
ENDBRANCH   1  24
TORSDOF 9
ENDMDL
MODEL 6
REMARK VINA RESULT:      -7.3      2.410      3.637
REMARK  Name = 
REMARK  11 active torsions:
REMARK  status: ('A' for Active; 'I' for Inactive)
REMARK    1  A    between atoms: C_1  and  C_2
REMARK    2  A    between atoms: C_2  and  C_3
REMARK    3  A    between atoms: C_2  and  C_4
REMARK    4  A    between atoms: C_4  and  N_5
REMARK    5  A    between atoms: C_6  and  C_8
REMARK    6  A    between atoms: C_8  and  C_9
REMARK    7  A    between atoms: C_8  and  N_16
REMARK    8  A    between atoms: C_9  and  C_10
REMARK    9  A    between atoms: C_17  and  C_19
REMARK   10  A    between atoms: C_23  and  O_24
REMARK   11  A    between atoms: C_25  and  O_26
REMARK                            x       y       z     vdW  Elec       q    Type
REMARK                         _______ _______ _______ _____ _____    ______ ____
ROOT
ATOM      1  C   UNL     1       2.819   6.676  18.339  0.00  0.00    +0.000 C 
ENDROOT
BRANCH   1   3
ATOM      2  N   UNL     1       5.133   6.042  17.610  0.00  0.00    +0.000 N 
ATOM      3  C   UNL     1       4.020   6.808  17.423  0.00  0.00    +0.000 C 
ATOM      4  O   UNL     1       3.989   7.637  16.522  0.00  0.00    +0.000 OA
ATOM      5  H   UNL     1       5.137   5.341  18.366  0.00  0.00    +0.000 HD
BRANCH   2   6
ATOM      6  C   UNL     1       6.306   6.210  16.767  0.00  0.00    +0.000 C 
BRANCH   6   8
ATOM      7  C   UNL     1       7.719   8.076  17.671  0.00  0.00    +0.000 C 
ATOM      8  C   UNL     1       7.588   6.550  17.560  0.00  0.00    +0.000 C 
ATOM      9  C   UNL     1       7.585   5.937  18.970  0.00  0.00    +0.000 C 
ENDBRANCH   6   8
ENDBRANCH   2   6
ENDBRANCH   1   3
BRANCH   1  10
ATOM     10  N   UNL     1       2.083   7.941  18.368  0.00  0.00    +0.000 N 
ATOM     11  C   UNL     1       1.646   8.479  19.549  0.00  0.00    +0.000 C 
ATOM     12  O   UNL     1       1.864   7.877  20.591  0.00  0.00    +0.000 OA
ATOM     13  H   UNL     1       1.891   8.434  17.483  0.00  0.00    +0.000 HD
BRANCH  11  14
ATOM     14  C   UNL     1       0.902   9.774  19.600  0.00  0.00    +0.000 A 
ATOM     15  N   UNL     1      -0.046   9.975  20.559  0.00  0.00    +0.000 NA
ATOM     16  C   UNL     1      -0.749  11.136  20.656  0.00  0.00    +0.000 A 
ATOM     17  C   UNL     1      -0.514  12.176  19.758  0.00  0.00    +0.000 A 
ATOM     18  C   UNL     1       0.446  12.013  18.754  0.00  0.00    +0.000 A 
ATOM     19  C   UNL     1       1.161  10.808  18.665  0.00  0.00    +0.000 A 
BRANCH  18  20
ATOM     20  O   UNL     1       0.692  13.009  17.876  0.00  0.00    +0.000 OA
ATOM     21  H   UNL     1       1.322  12.916  17.149  0.00  0.00    +0.000 HD
ENDBRANCH  18  20
BRANCH  19  22
ATOM     22  O   UNL     1       2.086  10.636  17.694  0.00  0.00    +0.000 OA
ATOM     23  H   UNL     1       2.771   9.953  17.730  0.00  0.00    +0.000 HD
ENDBRANCH  19  22
ENDBRANCH  11  14
ENDBRANCH   1  10
BRANCH   1  24
ATOM     24  C   UNL     1       1.935   5.499  17.861  0.00  0.00    +0.000 C 
BRANCH  24  25
ATOM     25  C   UNL     1       1.878   4.370  18.863  0.00  0.00    +0.000 A 
ATOM     26  C   UNL     1       1.398   4.599  20.165  0.00  0.00    +0.000 A 
ATOM     27  C   UNL     1       1.346   3.556  21.094  0.00  0.00    +0.000 A 
ATOM     28  C   UNL     1       1.774   2.275  20.733  0.00  0.00    +0.000 A 
ATOM     29  C   UNL     1       2.244   2.034  19.440  0.00  0.00    +0.000 A 
ATOM     30  C   UNL     1       2.293   3.073  18.506  0.00  0.00    +0.000 A 
ENDBRANCH  24  25
ENDBRANCH   1  24
TORSDOF 9
ENDMDL
MODEL 7
REMARK VINA RESULT:      -7.3      0.965      1.188
REMARK  Name = 
REMARK  11 active torsions:
REMARK  status: ('A' for Active; 'I' for Inactive)
REMARK    1  A    between atoms: C_1  and  C_2
REMARK    2  A    between atoms: C_2  and  C_3
REMARK    3  A    between atoms: C_2  and  C_4
REMARK    4  A    between atoms: C_4  and  N_5
REMARK    5  A    between atoms: C_6  and  C_8
REMARK    6  A    between atoms: C_8  and  C_9
REMARK    7  A    between atoms: C_8  and  N_16
REMARK    8  A    between atoms: C_9  and  C_10
REMARK    9  A    between atoms: C_17  and  C_19
REMARK   10  A    between atoms: C_23  and  O_24
REMARK   11  A    between atoms: C_25  and  O_26
REMARK                            x       y       z     vdW  Elec       q    Type
REMARK                         _______ _______ _______ _____ _____    ______ ____
ROOT
ATOM      1  C   UNL     1       5.074   4.448  16.708  0.00  0.00    +0.000 C 
ENDROOT
BRANCH   1   3
ATOM      2  N   UNL     1       6.049   3.711  14.518  0.00  0.00    +0.000 N 
ATOM      3  C   UNL     1       5.743   4.726  15.376  0.00  0.00    +0.000 C 
ATOM      4  O   UNL     1       6.033   5.881  15.090  0.00  0.00    +0.000 OA
ATOM      5  H   UNL     1       5.788   2.747  14.770  0.00  0.00    +0.000 HD
BRANCH   2   6
ATOM      6  C   UNL     1       6.743   3.975  13.268  0.00  0.00    +0.000 C 
BRANCH   6   8
ATOM      7  C   UNL     1       6.498   2.024  11.708  0.00  0.00    +0.000 C 
ATOM      8  C   UNL     1       5.994   3.440  12.025  0.00  0.00    +0.000 C 
ATOM      9  C   UNL     1       4.471   3.401  12.231  0.00  0.00    +0.000 C 
ENDBRANCH   6   8
ENDBRANCH   2   6
ENDBRANCH   1   3
BRANCH   1  10
ATOM     10  N   UNL     1       4.098   5.500  16.996  0.00  0.00    +0.000 N 
ATOM     11  C   UNL     1       4.093   6.150  18.201  0.00  0.00    +0.000 C 
ATOM     12  O   UNL     1       4.911   5.828  19.052  0.00  0.00    +0.000 OA
ATOM     13  H   UNL     1       3.402   5.754  16.279  0.00  0.00    +0.000 HD
BRANCH  11  14
ATOM     14  C   UNL     1       3.111   7.234  18.511  0.00  0.00    +0.000 A 
ATOM     15  N   UNL     1       2.920   8.251  17.623  0.00  0.00    +0.000 NA
ATOM     16  C   UNL     1       2.036   9.259  17.851  0.00  0.00    +0.000 A 
ATOM     17  C   UNL     1       1.282   9.280  19.024  0.00  0.00    +0.000 A 
ATOM     18  C   UNL     1       1.448   8.260  19.965  0.00  0.00    +0.000 A 
ATOM     19  C   UNL     1       2.367   7.228  19.718  0.00  0.00    +0.000 A 
BRANCH  18  20
ATOM     20  O   UNL     1       0.725   8.259  21.106  0.00  0.00    +0.000 OA
ATOM     21  H   UNL     1      -0.235   8.377  21.112  0.00  0.00    +0.000 HD
ENDBRANCH  18  20
BRANCH  19  22
ATOM     22  O   UNL     1       2.542   6.240  20.624  0.00  0.00    +0.000 OA
ATOM     23  H   UNL     1       2.783   6.405  21.547  0.00  0.00    +0.000 HD
ENDBRANCH  19  22
ENDBRANCH  11  14
ENDBRANCH   1  10
BRANCH   1  24
ATOM     24  C   UNL     1       4.423   3.044  16.672  0.00  0.00    +0.000 C 
BRANCH  24  25
ATOM     25  C   UNL     1       3.488   2.806  17.835  0.00  0.00    +0.000 A 
ATOM     26  C   UNL     1       4.000   2.634  19.134  0.00  0.00    +0.000 A 
ATOM     27  C   UNL     1       3.136   2.412  20.210  0.00  0.00    +0.000 A 
ATOM     28  C   UNL     1       1.756   2.356  20.001  0.00  0.00    +0.000 A 
ATOM     29  C   UNL     1       1.236   2.533  18.716  0.00  0.00    +0.000 A 
ATOM     30  C   UNL     1       2.095   2.762  17.638  0.00  0.00    +0.000 A 
ENDBRANCH  24  25
ENDBRANCH   1  24
TORSDOF 9
ENDMDL
MODEL 8
REMARK VINA RESULT:      -7.3      1.374      1.701
REMARK  Name = 
REMARK  11 active torsions:
REMARK  status: ('A' for Active; 'I' for Inactive)
REMARK    1  A    between atoms: C_1  and  C_2
REMARK    2  A    between atoms: C_2  and  C_3
REMARK    3  A    between atoms: C_2  and  C_4
REMARK    4  A    between atoms: C_4  and  N_5
REMARK    5  A    between atoms: C_6  and  C_8
REMARK    6  A    between atoms: C_8  and  C_9
REMARK    7  A    between atoms: C_8  and  N_16
REMARK    8  A    between atoms: C_9  and  C_10
REMARK    9  A    between atoms: C_17  and  C_19
REMARK   10  A    between atoms: C_23  and  O_24
REMARK   11  A    between atoms: C_25  and  O_26
REMARK                            x       y       z     vdW  Elec       q    Type
REMARK                         _______ _______ _______ _____ _____    ______ ____
ROOT
ATOM      1  C   UNL     1       5.321   4.457  19.091  0.00  0.00    +0.000 C 
ENDROOT
BRANCH   1   3
ATOM      2  N   UNL     1       6.218   4.163  16.768  0.00  0.00    +0.000 N 
ATOM      3  C   UNL     1       6.301   4.781  17.981  0.00  0.00    +0.000 C 
ATOM      4  O   UNL     1       7.192   5.593  18.197  0.00  0.00    +0.000 OA
ATOM      5  H   UNL     1       5.454   3.491  16.600  0.00  0.00    +0.000 HD
BRANCH   2   6
ATOM      6  C   UNL     1       7.193   4.432  15.724  0.00  0.00    +0.000 C 
BRANCH   6   8
ATOM      7  C   UNL     1       7.664   5.093  13.349  0.00  0.00    +0.000 C 
ATOM      8  C   UNL     1       6.557   4.907  14.397  0.00  0.00    +0.000 C 
ATOM      9  C   UNL     1       5.512   3.916  13.861  0.00  0.00    +0.000 C 
ENDBRANCH   6   8
ENDBRANCH   2   6
ENDBRANCH   1   3
BRANCH   1  10
ATOM     10  N   UNL     1       4.475   5.622  19.355  0.00  0.00    +0.000 N 
ATOM     11  C   UNL     1       3.712   6.181  18.364  0.00  0.00    +0.000 C 
ATOM     12  O   UNL     1       3.758   5.703  17.239  0.00  0.00    +0.000 OA
ATOM     13  H   UNL     1       4.455   6.028  20.302  0.00  0.00    +0.000 HD
BRANCH  11  14
ATOM     14  C   UNL     1       2.835   7.365  18.616  0.00  0.00    +0.000 A 
ATOM     15  N   UNL     1       2.745   8.355  17.683  0.00  0.00    +0.000 NA
ATOM     16  C   UNL     1       1.959   9.451  17.856  0.00  0.00    +0.000 A 
ATOM     17  C   UNL     1       1.204   9.595  19.020  0.00  0.00    +0.000 A 
ATOM     18  C   UNL     1       1.268   8.608  20.007  0.00  0.00    +0.000 A 
ATOM     19  C   UNL     1       2.087   7.484  19.815  0.00  0.00    +0.000 A 
BRANCH  18  20
ATOM     20  O   UNL     1       0.542   8.726  21.140  0.00  0.00    +0.000 OA
ATOM     21  H   UNL     1       0.850   9.235  21.903  0.00  0.00    +0.000 HD
ENDBRANCH  18  20
BRANCH  19  22
ATOM     22  O   UNL     1       2.163   6.526  20.766  0.00  0.00    +0.000 OA
ATOM     23  H   UNL     1       1.431   5.928  20.974  0.00  0.00    +0.000 HD
ENDBRANCH  19  22
ENDBRANCH  11  14
ENDBRANCH   1  10
BRANCH   1  24
ATOM     24  C   UNL     1       4.491   3.212  18.697  0.00  0.00    +0.000 C 
BRANCH  24  25
ATOM     25  C   UNL     1       3.245   3.053  19.536  0.00  0.00    +0.000 A 
ATOM     26  C   UNL     1       3.345   2.797  20.916  0.00  0.00    +0.000 A 
ATOM     27  C   UNL     1       2.193   2.648  21.693  0.00  0.00    +0.000 A 
ATOM     28  C   UNL     1       0.931   2.751  21.102  0.00  0.00    +0.000 A 
ATOM     29  C   UNL     1       0.819   3.013  19.734  0.00  0.00    +0.000 A 
ATOM     30  C   UNL     1       1.968   3.168  18.954  0.00  0.00    +0.000 A 
ENDBRANCH  24  25
ENDBRANCH   1  24
TORSDOF 9
ENDMDL
MODEL 9
REMARK VINA RESULT:      -7.3      2.282      7.106
REMARK  Name = 
REMARK  11 active torsions:
REMARK  status: ('A' for Active; 'I' for Inactive)
REMARK    1  A    between atoms: C_1  and  C_2
REMARK    2  A    between atoms: C_2  and  C_3
REMARK    3  A    between atoms: C_2  and  C_4
REMARK    4  A    between atoms: C_4  and  N_5
REMARK    5  A    between atoms: C_6  and  C_8
REMARK    6  A    between atoms: C_8  and  C_9
REMARK    7  A    between atoms: C_8  and  N_16
REMARK    8  A    between atoms: C_9  and  C_10
REMARK    9  A    between atoms: C_17  and  C_19
REMARK   10  A    between atoms: C_23  and  O_24
REMARK   11  A    between atoms: C_25  and  O_26
REMARK                            x       y       z     vdW  Elec       q    Type
REMARK                         _______ _______ _______ _____ _____    ______ ____
ROOT
ATOM      1  C   UNL     1       4.329   5.916  18.027  0.00  0.00    +0.000 C 
ENDROOT
BRANCH   1   3
ATOM      2  N   UNL     1       3.364   3.808  18.983  0.00  0.00    +0.000 N 
ATOM      3  C   UNL     1       4.435   4.641  18.841  0.00  0.00    +0.000 C 
ATOM      4  O   UNL     1       5.495   4.380  19.396  0.00  0.00    +0.000 OA
ATOM      5  H   UNL     1       2.483   4.038  18.500  0.00  0.00    +0.000 HD
BRANCH   2   6
ATOM      6  C   UNL     1       3.450   2.616  19.811  0.00  0.00    +0.000 C 
BRANCH   6   8
ATOM      7  C   UNL     1       2.143   3.185  21.877  0.00  0.00    +0.000 C 
ATOM      8  C   UNL     1       2.156   2.325  20.605  0.00  0.00    +0.000 C 
ATOM      9  C   UNL     1       0.888   2.614  19.784  0.00  0.00    +0.000 C 
ENDBRANCH   6   8
ENDBRANCH   2   6
ENDBRANCH   1   3
BRANCH   1  10
ATOM     10  N   UNL     1       5.150   5.797  16.821  0.00  0.00    +0.000 N 
ATOM     11  C   UNL     1       5.027   4.720  15.984  0.00  0.00    +0.000 C 
ATOM     12  O   UNL     1       4.227   3.838  16.266  0.00  0.00    +0.000 OA
ATOM     13  H   UNL     1       5.833   6.537  16.599  0.00  0.00    +0.000 HD
BRANCH  11  14
ATOM     14  C   UNL     1       5.850   4.585  14.743  0.00  0.00    +0.000 A 
ATOM     15  N   UNL     1       5.413   3.797  13.721  0.00  0.00    +0.000 NA
ATOM     16  C   UNL     1       6.117   3.643  12.568  0.00  0.00    +0.000 A 
ATOM     17  C   UNL     1       7.333   4.303  12.394  0.00  0.00    +0.000 A 
ATOM     18  C   UNL     1       7.823   5.119  13.418  0.00  0.00    +0.000 A 
ATOM     19  C   UNL     1       7.086   5.265  14.604  0.00  0.00    +0.000 A 
BRANCH  18  20
ATOM     20  O   UNL     1       8.997   5.771  13.269  0.00  0.00    +0.000 OA
ATOM     21  H   UNL     1       9.275   6.480  13.864  0.00  0.00    +0.000 HD
ENDBRANCH  18  20
BRANCH  19  22
ATOM     22  O   UNL     1       7.554   6.046  15.604  0.00  0.00    +0.000 OA
ATOM     23  H   UNL     1       6.978   6.562  16.186  0.00  0.00    +0.000 HD
ENDBRANCH  19  22
ENDBRANCH  11  14
ENDBRANCH   1  10
BRANCH   1  24
ATOM     24  C   UNL     1       2.843   6.192  17.695  0.00  0.00    +0.000 C 
BRANCH  24  25
ATOM     25  C   UNL     1       2.261   7.315  18.522  0.00  0.00    +0.000 A 
ATOM     26  C   UNL     1       2.085   7.157  19.909  0.00  0.00    +0.000 A 
ATOM     27  C   UNL     1       1.544   8.194  20.675  0.00  0.00    +0.000 A 
ATOM     28  C   UNL     1       1.173   9.395  20.067  0.00  0.00    +0.000 A 
ATOM     29  C   UNL     1       1.351   9.565  18.691  0.00  0.00    +0.000 A 
ATOM     30  C   UNL     1       1.896   8.534  17.921  0.00  0.00    +0.000 A 
ENDBRANCH  24  25
ENDBRANCH   1  24
TORSDOF 9
ENDMDL
