MODEL 1
REMARK VINA RESULT:      -7.9      0.000      0.000
REMARK  Name = 
REMARK  14 active torsions:
REMARK  status: ('A' for Active; 'I' for Inactive)
REMARK    1  A    between atoms: C_1  and  C_2
REMARK    2  A    between atoms: C_2  and  C_3
REMARK    3  A    between atoms: C_2  and  C_4
REMARK    4  A    between atoms: C_7  and  C_8
REMARK    5  A    between atoms: N_10  and  C_11
REMARK    6  A    between atoms: N_10  and  C_22
REMARK    7  A    between atoms: C_11  and  C_12
REMARK    8  A    between atoms: C_15  and  C_16
REMARK    9  A    between atoms: N_18  and  O_19
REMARK   10  A    between atoms: C_22  and  C_23
REMARK   11  A    between atoms: C_22  and  C_24
REMARK   12  A    between atoms: C_22  and  C_25
REMARK   13  A    between atoms: N_27  and  C_28
REMARK   14  A    between atoms: C_28  and  C_29
REMARK                            x       y       z     vdW  Elec       q    Type
REMARK                         _______ _______ _______ _____ _____    ______ ____
ROOT
ATOM      1  C   UNL     1       0.604   9.571  18.429  0.00  0.00    +0.000 C 
ATOM      2  O   UNL     1       1.245   9.357  17.386  0.00  0.00    +0.000 OA
ATOM      3  N   UNL     1       1.114   9.092  19.688  0.00  0.00    +0.000 N 
ENDROOT
BRANCH   1   7
ATOM      4  C   UNL     1      -3.269  11.561  18.248  0.00  0.00    +0.000 A 
ATOM      5  C   UNL     1      -2.145  12.303  18.552  0.00  0.00    +0.000 A 
ATOM      6  C   UNL     1      -0.896  11.687  18.555  0.00  0.00    +0.000 A 
ATOM      7  C   UNL     1      -0.676  10.362  18.203  0.00  0.00    +0.000 A 
ATOM      8  C   UNL     1      -1.798   9.692  17.689  0.00  0.00    +0.000 A 
ATOM      9  C   UNL     1      -3.078  10.287  17.700  0.00  0.00    +0.000 A 
BRANCH   4  11
ATOM     10  C   UNL     1      -5.751  11.113  18.583  0.00  0.00    +0.000 C 
ATOM     11  C   UNL     1      -4.604  12.107  18.714  0.00  0.00    +0.000 C 
ATOM     12  C   UNL     1      -4.501  12.730  20.105  0.00  0.00    +0.000 C 
ENDBRANCH   4  11
ENDBRANCH   1   7
BRANCH   3  13
ATOM     13  C   UNL     1       0.628   9.551  21.060  0.00  0.00    +0.000 C 
ATOM     14  C   UNL     1      -0.853   9.230  21.372  0.00  0.00    +0.000 C 
ATOM     15  C   UNL     1       1.439   8.800  22.148  0.00  0.00    +0.000 C 
BRANCH  13  16
ATOM     16  C   UNL     1       0.645  11.120  21.175  0.00  0.00    +0.000 C 
ATOM     17  O   UNL     1       1.612  11.807  20.847  0.00  0.00    +0.000 OA
ATOM     18  N   UNL     1      -0.477  11.715  21.738  0.00  0.00    +0.000 N 
ATOM     19  H   UNL     1      -1.370  11.246  21.725  0.00  0.00    +0.000 HD
BRANCH  18  20
ATOM     20  C   UNL     1      -0.435  13.102  22.161  0.00  0.00    +0.000 C 
BRANCH  20  21
ATOM     21  C   UNL     1      -1.507  13.465  23.164  0.00  0.00    +0.000 A 
ATOM     22  C   UNL     1      -1.434  14.608  23.974  0.00  0.00    +0.000 A 
ATOM     23  C   UNL     1      -2.469  14.919  24.862  0.00  0.00    +0.000 A 
ATOM     24  C   UNL     1      -3.601  14.107  24.931  0.00  0.00    +0.000 A 
ATOM     25  C   UNL     1      -3.704  12.993  24.105  0.00  0.00    +0.000 A 
ATOM     26  C   UNL     1      -2.669  12.678  23.223  0.00  0.00    +0.000 A 
ENDBRANCH  20  21
ENDBRANCH  18  20
ENDBRANCH  13  16
ENDBRANCH   3  13
BRANCH   3  27
ATOM     27  C   UNL     1       2.425   8.364  19.597  0.00  0.00    +0.000 C 
BRANCH  27  28
ATOM     28  C   UNL     1       2.429   6.859  19.333  0.00  0.00    +0.000 A 
ATOM     29  C   UNL     1       2.063   5.916  20.296  0.00  0.00    +0.000 A 
ATOM     30  C   UNL     1       2.172   4.536  20.026  0.00  0.00    +0.000 A 
ATOM     31  C   UNL     1       2.618   4.057  18.789  0.00  0.00    +0.000 A 
ATOM     32  C   UNL     1       2.856   4.984  17.776  0.00  0.00    +0.000 A 
ATOM     33  C   UNL     1       2.765   6.368  18.047  0.00  0.00    +0.000 A 
BRANCH  31  34
ATOM     34  C   UNL     1       2.845   2.580  18.678  0.00  0.00    +0.000 C 
ATOM     35  O   UNL     1       2.013   1.782  19.102  0.00  0.00    +0.000 OA
ATOM     36  N   UNL     1       4.053   2.135  18.183  0.00  0.00    +0.000 N 
ATOM     37  H   UNL     1       4.869   2.712  18.048  0.00  0.00    +0.000 HD
BRANCH  36  38
ATOM     38  O   UNL     1       4.305   0.763  18.448  0.00  0.00    +0.000 OA
ATOM     39  H   UNL     1       4.172   0.707  19.426  0.00  0.00    +0.000 HD
ENDBRANCH  36  38
ENDBRANCH  31  34
ENDBRANCH  27  28
ENDBRANCH   3  27
TORSDOF 10
ENDMDL
MODEL 2
REMARK VINA RESULT:      -7.9      1.877      2.781
REMARK  Name = 
REMARK  14 active torsions:
REMARK  status: ('A' for Active; 'I' for Inactive)
REMARK    1  A    between atoms: C_1  and  C_2
REMARK    2  A    between atoms: C_2  and  C_3
REMARK    3  A    between atoms: C_2  and  C_4
REMARK    4  A    between atoms: C_7  and  C_8
REMARK    5  A    between atoms: N_10  and  C_11
REMARK    6  A    between atoms: N_10  and  C_22
REMARK    7  A    between atoms: C_11  and  C_12
REMARK    8  A    between atoms: C_15  and  C_16
REMARK    9  A    between atoms: N_18  and  O_19
REMARK   10  A    between atoms: C_22  and  C_23
REMARK   11  A    between atoms: C_22  and  C_24
REMARK   12  A    between atoms: C_22  and  C_25
REMARK   13  A    between atoms: N_27  and  C_28
REMARK   14  A    between atoms: C_28  and  C_29
REMARK                            x       y       z     vdW  Elec       q    Type
REMARK                         _______ _______ _______ _____ _____    ______ ____
ROOT
ATOM      1  C   UNL     1      -0.944  10.846  18.231  0.00  0.00    +0.000 C 
ATOM      2  O   UNL     1      -0.936   9.922  17.400  0.00  0.00    +0.000 OA
ATOM      3  N   UNL     1       0.292  11.264  18.840  0.00  0.00    +0.000 N 
ENDROOT
BRANCH   1   7
ATOM      4  C   UNL     1      -5.098  11.987  18.887  0.00  0.00    +0.000 A 
ATOM      5  C   UNL     1      -4.189  12.135  19.916  0.00  0.00    +0.000 A 
ATOM      6  C   UNL     1      -2.849  11.828  19.698  0.00  0.00    +0.000 A 
ATOM      7  C   UNL     1      -2.326  11.435  18.472  0.00  0.00    +0.000 A 
ATOM      8  C   UNL     1      -3.224  11.504  17.396  0.00  0.00    +0.000 A 
ATOM      9  C   UNL     1      -4.592  11.788  17.597  0.00  0.00    +0.000 A 
BRANCH   4  11
ATOM     10  C   UNL     1      -6.779  11.527  20.741  0.00  0.00    +0.000 C 
ATOM     11  C   UNL     1      -6.559  11.859  19.270  0.00  0.00    +0.000 C 
ATOM     12  C   UNL     1      -7.371  13.063  18.795  0.00  0.00    +0.000 C 
ENDBRANCH   4  11
ENDBRANCH   1   7
BRANCH   3  13
ATOM     13  C   UNL     1       0.494  12.569  19.607  0.00  0.00    +0.000 C 
ATOM     14  C   UNL     1       1.959  13.060  19.690  0.00  0.00    +0.000 C 
ATOM     15  C   UNL     1      -0.267  13.699  18.866  0.00  0.00    +0.000 C 
BRANCH  13  16
ATOM     16  C   UNL     1       0.127  12.399  21.127  0.00  0.00    +0.000 C 
ATOM     17  O   UNL     1       0.317  11.355  21.751  0.00  0.00    +0.000 OA
ATOM     18  N   UNL     1      -0.500  13.476  21.740  0.00  0.00    +0.000 N 
ATOM     19  H   UNL     1      -0.391  14.410  21.376  0.00  0.00    +0.000 HD
BRANCH  18  20
ATOM     20  C   UNL     1      -1.142  13.311  23.031  0.00  0.00    +0.000 C 
BRANCH  20  21
ATOM     21  C   UNL     1      -2.622  13.618  23.017  0.00  0.00    +0.000 A 
ATOM     22  C   UNL     1      -3.175  14.658  22.255  0.00  0.00    +0.000 A 
ATOM     23  C   UNL     1      -4.557  14.879  22.248  0.00  0.00    +0.000 A 
ATOM     24  C   UNL     1      -5.403  14.047  22.981  0.00  0.00    +0.000 A 
ATOM     25  C   UNL     1      -4.871  12.989  23.710  0.00  0.00    +0.000 A 
ATOM     26  C   UNL     1      -3.493  12.771  23.723  0.00  0.00    +0.000 A 
ENDBRANCH  20  21
ENDBRANCH  18  20
ENDBRANCH  13  16
ENDBRANCH   3  13
BRANCH   3  27
ATOM     27  C   UNL     1       1.506  10.509  18.377  0.00  0.00    +0.000 C 
BRANCH  27  28
ATOM     28  C   UNL     1       1.715   9.069  18.843  0.00  0.00    +0.000 A 
ATOM     29  C   UNL     1       1.356   8.621  20.116  0.00  0.00    +0.000 A 
ATOM     30  C   UNL     1       1.655   7.304  20.525  0.00  0.00    +0.000 A 
ATOM     31  C   UNL     1       2.290   6.392  19.673  0.00  0.00    +0.000 A 
ATOM     32  C   UNL     1       2.530   6.784  18.357  0.00  0.00    +0.000 A 
ATOM     33  C   UNL     1       2.249   8.108  17.950  0.00  0.00    +0.000 A 
BRANCH  31  34
ATOM     34  C   UNL     1       2.698   5.081  20.272  0.00  0.00    +0.000 C 
ATOM     35  O   UNL     1       3.334   4.261  19.616  0.00  0.00    +0.000 OA
ATOM     36  N   UNL     1       2.257   4.771  21.542  0.00  0.00    +0.000 N 
ATOM     37  H   UNL     1       1.538   5.273  22.042  0.00  0.00    +0.000 HD
BRANCH  36  38
ATOM     38  O   UNL     1       2.390   3.396  21.871  0.00  0.00    +0.000 OA
ATOM     39  H   UNL     1       1.499   3.177  22.239  0.00  0.00    +0.000 HD
ENDBRANCH  36  38
ENDBRANCH  31  34
ENDBRANCH  27  28
ENDBRANCH   3  27
TORSDOF 10
ENDMDL
MODEL 3
REMARK VINA RESULT:      -7.8      2.936      5.028
REMARK  Name = 
REMARK  14 active torsions:
REMARK  status: ('A' for Active; 'I' for Inactive)
REMARK    1  A    between atoms: C_1  and  C_2
REMARK    2  A    between atoms: C_2  and  C_3
REMARK    3  A    between atoms: C_2  and  C_4
REMARK    4  A    between atoms: C_7  and  C_8
REMARK    5  A    between atoms: N_10  and  C_11
REMARK    6  A    between atoms: N_10  and  C_22
REMARK    7  A    between atoms: C_11  and  C_12
REMARK    8  A    between atoms: C_15  and  C_16
REMARK    9  A    between atoms: N_18  and  O_19
REMARK   10  A    between atoms: C_22  and  C_23
REMARK   11  A    between atoms: C_22  and  C_24
REMARK   12  A    between atoms: C_22  and  C_25
REMARK   13  A    between atoms: N_27  and  C_28
REMARK   14  A    between atoms: C_28  and  C_29
REMARK                            x       y       z     vdW  Elec       q    Type
REMARK                         _______ _______ _______ _____ _____    ______ ____
ROOT
ATOM      1  C   UNL     1       0.993  12.185  20.460  0.00  0.00    +0.000 C 
ATOM      2  O   UNL     1       1.844  11.786  21.273  0.00  0.00    +0.000 OA
ATOM      3  N   UNL     1       0.045  11.252  19.908  0.00  0.00    +0.000 N 
ENDROOT
BRANCH   1   7
ATOM      4  C   UNL     1       0.938  16.344  19.159  0.00  0.00    +0.000 A 
ATOM      5  C   UNL     1       0.240  15.985  20.295  0.00  0.00    +0.000 A 
ATOM      6  C   UNL     1       0.300  14.671  20.751  0.00  0.00    +0.000 A 
ATOM      7  C   UNL     1       1.079  13.677  20.174  0.00  0.00    +0.000 A 
ATOM      8  C   UNL     1       1.944  14.117  19.159  0.00  0.00    +0.000 A 
ATOM      9  C   UNL     1       1.884  15.438  18.664  0.00  0.00    +0.000 A 
BRANCH   4  11
ATOM     10  C   UNL     1       1.330  17.941  17.217  0.00  0.00    +0.000 C 
ATOM     11  C   UNL     1       0.483  17.596  18.437  0.00  0.00    +0.000 C 
ATOM     12  C   UNL     1      -1.015  17.560  18.140  0.00  0.00    +0.000 C 
ENDBRANCH   4  11
ENDBRANCH   1   7
BRANCH   3  13
ATOM     13  C   UNL     1      -1.237  11.638  19.175  0.00  0.00    +0.000 C 
ATOM     14  C   UNL     1      -1.065  12.714  18.077  0.00  0.00    +0.000 C 
ATOM     15  C   UNL     1      -1.776  10.389  18.431  0.00  0.00    +0.000 C 
BRANCH  13  16
ATOM     16  C   UNL     1      -2.261  12.334  20.146  0.00  0.00    +0.000 C 
ATOM     17  O   UNL     1      -2.216  12.210  21.370  0.00  0.00    +0.000 OA
ATOM     18  N   UNL     1      -3.286  13.059  19.554  0.00  0.00    +0.000 N 
ATOM     19  H   UNL     1      -3.182  13.432  18.622  0.00  0.00    +0.000 HD
BRANCH  18  20
ATOM     20  C   UNL     1      -4.435  13.476  20.336  0.00  0.00    +0.000 C 
BRANCH  20  21
ATOM     21  C   UNL     1      -5.583  12.494  20.303  0.00  0.00    +0.000 A 
ATOM     22  C   UNL     1      -5.750  11.554  19.275  0.00  0.00    +0.000 A 
ATOM     23  C   UNL     1      -6.810  10.642  19.308  0.00  0.00    +0.000 A 
ATOM     24  C   UNL     1      -7.699  10.640  20.383  0.00  0.00    +0.000 A 
ATOM     25  C   UNL     1      -7.522  11.540  21.428  0.00  0.00    +0.000 A 
ATOM     26  C   UNL     1      -6.469  12.455  21.393  0.00  0.00    +0.000 A 
ENDBRANCH  20  21
ENDBRANCH  18  20
ENDBRANCH  13  16
ENDBRANCH   3  13
BRANCH   3  27
ATOM     27  C   UNL     1       0.191   9.842  20.405  0.00  0.00    +0.000 C 
BRANCH  27  28
ATOM     28  C   UNL     1       1.184   8.905  19.719  0.00  0.00    +0.000 A 
ATOM     29  C   UNL     1       1.701   9.145  18.444  0.00  0.00    +0.000 A 
ATOM     30  C   UNL     1       2.543   8.200  17.822  0.00  0.00    +0.000 A 
ATOM     31  C   UNL     1       2.917   7.011  18.458  0.00  0.00    +0.000 A 
ATOM     32  C   UNL     1       2.519   6.823  19.780  0.00  0.00    +0.000 A 
ATOM     33  C   UNL     1       1.660   7.758  20.400  0.00  0.00    +0.000 A 
BRANCH  31  34
ATOM     34  C   UNL     1       3.680   6.017  17.636  0.00  0.00    +0.000 C 
ATOM     35  O   UNL     1       4.460   6.389  16.763  0.00  0.00    +0.000 OA
ATOM     36  N   UNL     1       3.412   4.675  17.810  0.00  0.00    +0.000 N 
ATOM     37  H   UNL     1       2.624   4.305  18.319  0.00  0.00    +0.000 HD
BRANCH  36  38
ATOM     38  O   UNL     1       3.909   3.856  16.763  0.00  0.00    +0.000 OA
ATOM     39  H   UNL     1       4.766   3.530  17.135  0.00  0.00    +0.000 HD
ENDBRANCH  36  38
ENDBRANCH  31  34
ENDBRANCH  27  28
ENDBRANCH   3  27
TORSDOF 10
ENDMDL
MODEL 4
REMARK VINA RESULT:      -7.8      1.782      2.701
REMARK  Name = 
REMARK  14 active torsions:
REMARK  status: ('A' for Active; 'I' for Inactive)
REMARK    1  A    between atoms: C_1  and  C_2
REMARK    2  A    between atoms: C_2  and  C_3
REMARK    3  A    between atoms: C_2  and  C_4
REMARK    4  A    between atoms: C_7  and  C_8
REMARK    5  A    between atoms: N_10  and  C_11
REMARK    6  A    between atoms: N_10  and  C_22
REMARK    7  A    between atoms: C_11  and  C_12
REMARK    8  A    between atoms: C_15  and  C_16
REMARK    9  A    between atoms: N_18  and  O_19
REMARK   10  A    between atoms: C_22  and  C_23
REMARK   11  A    between atoms: C_22  and  C_24
REMARK   12  A    between atoms: C_22  and  C_25
REMARK   13  A    between atoms: N_27  and  C_28
REMARK   14  A    between atoms: C_28  and  C_29
REMARK                            x       y       z     vdW  Elec       q    Type
REMARK                         _______ _______ _______ _____ _____    ______ ____
ROOT
ATOM      1  C   UNL     1      -0.757  10.671  18.046  0.00  0.00    +0.000 C 
ATOM      2  O   UNL     1      -0.831   9.649  17.343  0.00  0.00    +0.000 OA
ATOM      3  N   UNL     1       0.531  11.130  18.498  0.00  0.00    +0.000 N 
ENDROOT
BRANCH   1   7
ATOM      4  C   UNL     1      -4.839  11.996  18.799  0.00  0.00    +0.000 A 
ATOM      5  C   UNL     1      -3.900  12.110  19.803  0.00  0.00    +0.000 A 
ATOM      6  C   UNL     1      -2.580  11.744  19.553  0.00  0.00    +0.000 A 
ATOM      7  C   UNL     1      -2.106  11.320  18.318  0.00  0.00    +0.000 A 
ATOM      8  C   UNL     1      -3.027  11.422  17.264  0.00  0.00    +0.000 A 
ATOM      9  C   UNL     1      -4.376  11.767  17.497  0.00  0.00    +0.000 A 
BRANCH   4  11
ATOM     10  C   UNL     1      -6.937  10.569  19.000  0.00  0.00    +0.000 C 
ATOM     11  C   UNL     1      -6.294  11.934  19.219  0.00  0.00    +0.000 C 
ATOM     12  C   UNL     1      -6.493  12.473  20.634  0.00  0.00    +0.000 C 
ENDBRANCH   4  11
ENDBRANCH   1   7
BRANCH   3  13
ATOM     13  C   UNL     1       0.814  12.516  19.073  0.00  0.00    +0.000 C 
ATOM     14  C   UNL     1       2.250  13.041  18.838  0.00  0.00    +0.000 C 
ATOM     15  C   UNL     1      -0.110  13.542  18.366  0.00  0.00    +0.000 C 
BRANCH  13  16
ATOM     16  C   UNL     1       0.730  12.508  20.644  0.00  0.00    +0.000 C 
ATOM     17  O   UNL     1       1.527  11.898  21.357  0.00  0.00    +0.000 OA
ATOM     18  N   UNL     1      -0.345  13.178  21.212  0.00  0.00    +0.000 N 
ATOM     19  H   UNL     1      -0.814  13.919  20.712  0.00  0.00    +0.000 HD
BRANCH  18  20
ATOM     20  C   UNL     1      -0.677  12.978  22.611  0.00  0.00    +0.000 C 
BRANCH  20  21
ATOM     21  C   UNL     1      -2.120  13.281  22.943  0.00  0.00    +0.000 A 
ATOM     22  C   UNL     1      -3.038  12.289  23.319  0.00  0.00    +0.000 A 
ATOM     23  C   UNL     1      -4.355  12.625  23.652  0.00  0.00    +0.000 A 
ATOM     24  C   UNL     1      -4.761  13.959  23.640  0.00  0.00    +0.000 A 
ATOM     25  C   UNL     1      -3.851  14.957  23.307  0.00  0.00    +0.000 A 
ATOM     26  C   UNL     1      -2.539  14.622  22.969  0.00  0.00    +0.000 A 
ENDBRANCH  20  21
ENDBRANCH  18  20
ENDBRANCH  13  16
ENDBRANCH   3  13
BRANCH   3  27
ATOM     27  C   UNL     1       1.691  10.291  18.042  0.00  0.00    +0.000 C 
BRANCH  27  28
ATOM     28  C   UNL     1       1.866   8.883  18.609  0.00  0.00    +0.000 A 
ATOM     29  C   UNL     1       1.493   8.533  19.908  0.00  0.00    +0.000 A 
ATOM     30  C   UNL     1       1.761   7.243  20.409  0.00  0.00    +0.000 A 
ATOM     31  C   UNL     1       2.377   6.259  19.627  0.00  0.00    +0.000 A 
ATOM     32  C   UNL     1       2.631   6.552  18.288  0.00  0.00    +0.000 A 
ATOM     33  C   UNL     1       2.380   7.850  17.788  0.00  0.00    +0.000 A 
BRANCH  31  34
ATOM     34  C   UNL     1       2.754   4.985  20.318  0.00  0.00    +0.000 C 
ATOM     35  O   UNL     1       3.451   4.145  19.753  0.00  0.00    +0.000 OA
ATOM     36  N   UNL     1       2.218   4.727  21.563  0.00  0.00    +0.000 N 
ATOM     37  H   UNL     1       1.456   5.239  21.980  0.00  0.00    +0.000 HD
BRANCH  36  38
ATOM     38  O   UNL     1       2.343   3.371  21.966  0.00  0.00    +0.000 OA
ATOM     39  H   UNL     1       1.884   2.888  21.236  0.00  0.00    +0.000 HD
ENDBRANCH  36  38
ENDBRANCH  31  34
ENDBRANCH  27  28
ENDBRANCH   3  27
TORSDOF 10
ENDMDL
MODEL 5
REMARK VINA RESULT:      -7.7      3.054      5.043
REMARK  Name = 
REMARK  14 active torsions:
REMARK  status: ('A' for Active; 'I' for Inactive)
REMARK    1  A    between atoms: C_1  and  C_2
REMARK    2  A    between atoms: C_2  and  C_3
REMARK    3  A    between atoms: C_2  and  C_4
REMARK    4  A    between atoms: C_7  and  C_8
REMARK    5  A    between atoms: N_10  and  C_11
REMARK    6  A    between atoms: N_10  and  C_22
REMARK    7  A    between atoms: C_11  and  C_12
REMARK    8  A    between atoms: C_15  and  C_16
REMARK    9  A    between atoms: N_18  and  O_19
REMARK   10  A    between atoms: C_22  and  C_23
REMARK   11  A    between atoms: C_22  and  C_24
REMARK   12  A    between atoms: C_22  and  C_25
REMARK   13  A    between atoms: N_27  and  C_28
REMARK   14  A    between atoms: C_28  and  C_29
REMARK                            x       y       z     vdW  Elec       q    Type
REMARK                         _______ _______ _______ _____ _____    ______ ____
ROOT
ATOM      1  C   UNL     1       1.032  12.209  20.421  0.00  0.00    +0.000 C 
ATOM      2  O   UNL     1       1.893  11.804  21.220  0.00  0.00    +0.000 OA
ATOM      3  N   UNL     1       0.064  11.283  19.890  0.00  0.00    +0.000 N 
ENDROOT
BRANCH   1   7
ATOM      4  C   UNL     1       1.001  16.362  19.101  0.00  0.00    +0.000 A 
ATOM      5  C   UNL     1       0.304  16.013  20.241  0.00  0.00    +0.000 A 
ATOM      6  C   UNL     1       0.356  14.701  20.703  0.00  0.00    +0.000 A 
ATOM      7  C   UNL     1       1.127  13.699  20.128  0.00  0.00    +0.000 A 
ATOM      8  C   UNL     1       1.991  14.128  19.108  0.00  0.00    +0.000 A 
ATOM      9  C   UNL     1       1.939  15.447  18.607  0.00  0.00    +0.000 A 
BRANCH   4  11
ATOM     10  C   UNL     1       1.424  17.972  17.177  0.00  0.00    +0.000 C 
ATOM     11  C   UNL     1       0.552  17.614  18.374  0.00  0.00    +0.000 C 
ATOM     12  C   UNL     1      -0.938  17.567  18.042  0.00  0.00    +0.000 C 
ENDBRANCH   4  11
ENDBRANCH   1   7
BRANCH   3  13
ATOM     13  C   UNL     1      -1.228  11.679  19.179  0.00  0.00    +0.000 C 
ATOM     14  C   UNL     1      -1.069  12.768  18.091  0.00  0.00    +0.000 C 
ATOM     15  C   UNL     1      -1.779  10.439  18.429  0.00  0.00    +0.000 C 
BRANCH  13  16
ATOM     16  C   UNL     1      -2.237  12.366  20.173  0.00  0.00    +0.000 C 
ATOM     17  O   UNL     1      -2.142  12.273  21.397  0.00  0.00    +0.000 OA
ATOM     18  N   UNL     1      -3.307  13.041  19.603  0.00  0.00    +0.000 N 
ATOM     19  H   UNL     1      -3.251  13.394  18.659  0.00  0.00    +0.000 HD
BRANCH  18  20
ATOM     20  C   UNL     1      -4.439  13.441  20.419  0.00  0.00    +0.000 C 
BRANCH  20  21
ATOM     21  C   UNL     1      -5.566  12.434  20.430  0.00  0.00    +0.000 A 
ATOM     22  C   UNL     1      -6.535  12.389  21.444  0.00  0.00    +0.000 A 
ATOM     23  C   UNL     1      -7.580  11.460  21.391  0.00  0.00    +0.000 A 
ATOM     24  C   UNL     1      -7.685  10.585  20.310  0.00  0.00    +0.000 A 
ATOM     25  C   UNL     1      -6.755  10.646  19.278  0.00  0.00    +0.000 A 
ATOM     26  C   UNL     1      -5.708  11.568  19.333  0.00  0.00    +0.000 A 
ENDBRANCH  20  21
ENDBRANCH  18  20
ENDBRANCH  13  16
ENDBRANCH   3  13
BRANCH   3  27
ATOM     27  C   UNL     1       0.205   9.874  20.390  0.00  0.00    +0.000 C 
BRANCH  27  28
ATOM     28  C   UNL     1       1.187   8.929  19.699  0.00  0.00    +0.000 A 
ATOM     29  C   UNL     1       1.696   9.162  18.419  0.00  0.00    +0.000 A 
ATOM     30  C   UNL     1       2.528   8.211  17.793  0.00  0.00    +0.000 A 
ATOM     31  C   UNL     1       2.900   7.021  18.430  0.00  0.00    +0.000 A 
ATOM     32  C   UNL     1       2.511   6.839  19.756  0.00  0.00    +0.000 A 
ATOM     33  C   UNL     1       1.663   7.782  20.380  0.00  0.00    +0.000 A 
BRANCH  31  34
ATOM     34  C   UNL     1       3.651   6.021  17.606  0.00  0.00    +0.000 C 
ATOM     35  O   UNL     1       3.300   4.844  17.571  0.00  0.00    +0.000 OA
ATOM     36  N   UNL     1       4.806   6.426  16.969  0.00  0.00    +0.000 N 
ATOM     37  H   UNL     1       5.288   7.294  17.146  0.00  0.00    +0.000 HD
BRANCH  36  38
ATOM     38  O   UNL     1       5.617   5.350  16.523  0.00  0.00    +0.000 OA
ATOM     39  H   UNL     1       6.320   5.310  17.219  0.00  0.00    +0.000 HD
ENDBRANCH  36  38
ENDBRANCH  31  34
ENDBRANCH  27  28
ENDBRANCH   3  27
TORSDOF 10
ENDMDL
MODEL 6
REMARK VINA RESULT:      -7.7      1.990      2.948
REMARK  Name = 
REMARK  14 active torsions:
REMARK  status: ('A' for Active; 'I' for Inactive)
REMARK    1  A    between atoms: C_1  and  C_2
REMARK    2  A    between atoms: C_2  and  C_3
REMARK    3  A    between atoms: C_2  and  C_4
REMARK    4  A    between atoms: C_7  and  C_8
REMARK    5  A    between atoms: N_10  and  C_11
REMARK    6  A    between atoms: N_10  and  C_22
REMARK    7  A    between atoms: C_11  and  C_12
REMARK    8  A    between atoms: C_15  and  C_16
REMARK    9  A    between atoms: N_18  and  O_19
REMARK   10  A    between atoms: C_22  and  C_23
REMARK   11  A    between atoms: C_22  and  C_24
REMARK   12  A    between atoms: C_22  and  C_25
REMARK   13  A    between atoms: N_27  and  C_28
REMARK   14  A    between atoms: C_28  and  C_29
REMARK                            x       y       z     vdW  Elec       q    Type
REMARK                         _______ _______ _______ _____ _____    ______ ____
ROOT
ATOM      1  C   UNL     1      -0.881  10.579  17.912  0.00  0.00    +0.000 C 
ATOM      2  O   UNL     1      -0.778   9.540  17.238  0.00  0.00    +0.000 OA
ATOM      3  N   UNL     1       0.279  11.111  18.580  0.00  0.00    +0.000 N 
ENDROOT
BRANCH   1   7
ATOM      4  C   UNL     1      -5.086  11.720  17.825  0.00  0.00    +0.000 A 
ATOM      5  C   UNL     1      -4.383  11.833  19.007  0.00  0.00    +0.000 A 
ATOM      6  C   UNL     1      -3.025  11.527  19.031  0.00  0.00    +0.000 A 
ATOM      7  C   UNL     1      -2.285  11.167  17.912  0.00  0.00    +0.000 A 
ATOM      8  C   UNL     1      -2.970  11.270  16.691  0.00  0.00    +0.000 A 
ATOM      9  C   UNL     1      -4.351  11.555  16.645  0.00  0.00    +0.000 A 
BRANCH   4  11
ATOM     10  C   UNL     1      -7.058  10.852  19.179  0.00  0.00    +0.000 C 
ATOM     11  C   UNL     1      -6.592  11.587  17.928  0.00  0.00    +0.000 C 
ATOM     12  C   UNL     1      -7.289  12.931  17.724  0.00  0.00    +0.000 C 
ENDBRANCH   4  11
ENDBRANCH   1   7
BRANCH   3  13
ATOM     13  C   UNL     1       0.388  12.521  19.155  0.00  0.00    +0.000 C 
ATOM     14  C   UNL     1       1.805  13.140  19.107  0.00  0.00    +0.000 C 
ATOM     15  C   UNL     1      -0.494  13.471  18.305  0.00  0.00    +0.000 C 
BRANCH  13  16
ATOM     16  C   UNL     1       0.088  12.530  20.700  0.00  0.00    +0.000 C 
ATOM     17  O   UNL     1       0.967  12.650  21.554  0.00  0.00    +0.000 OA
ATOM     18  N   UNL     1      -1.232  12.324  21.078  0.00  0.00    +0.000 N 
ATOM     19  H   UNL     1      -1.988  12.530  20.443  0.00  0.00    +0.000 HD
BRANCH  18  20
ATOM     20  C   UNL     1      -1.558  12.016  22.458  0.00  0.00    +0.000 C 
BRANCH  20  21
ATOM     21  C   UNL     1      -2.903  12.548  22.898  0.00  0.00    +0.000 A 
ATOM     22  C   UNL     1      -3.553  12.103  24.059  0.00  0.00    +0.000 A 
ATOM     23  C   UNL     1      -4.782  12.652  24.443  0.00  0.00    +0.000 A 
ATOM     24  C   UNL     1      -5.360  13.671  23.687  0.00  0.00    +0.000 A 
ATOM     25  C   UNL     1      -4.707  14.150  22.556  0.00  0.00    +0.000 A 
ATOM     26  C   UNL     1      -3.485  13.598  22.168  0.00  0.00    +0.000 A 
ENDBRANCH  20  21
ENDBRANCH  18  20
ENDBRANCH  13  16
ENDBRANCH   3  13
BRANCH   3  27
ATOM     27  C   UNL     1       1.540  10.322  18.370  0.00  0.00    +0.000 C 
BRANCH  27  28
ATOM     28  C   UNL     1       1.674   8.940  19.009  0.00  0.00    +0.000 A 
ATOM     29  C   UNL     1       2.302   7.866  18.375  0.00  0.00    +0.000 A 
ATOM     30  C   UNL     1       2.317   6.588  18.973  0.00  0.00    +0.000 A 
ATOM     31  C   UNL     1       1.736   6.351  20.224  0.00  0.00    +0.000 A 
ATOM     32  C   UNL     1       1.226   7.442  20.926  0.00  0.00    +0.000 A 
ATOM     33  C   UNL     1       1.194   8.719  20.323  0.00  0.00    +0.000 A 
BRANCH  31  34
ATOM     34  C   UNL     1       1.673   4.925  20.679  0.00  0.00    +0.000 C 
ATOM     35  O   UNL     1       0.764   4.186  20.310  0.00  0.00    +0.000 OA
ATOM     36  N   UNL     1       2.599   4.488  21.605  0.00  0.00    +0.000 N 
ATOM     37  H   UNL     1       3.212   5.088  22.135  0.00  0.00    +0.000 HD
BRANCH  36  38
ATOM     38  O   UNL     1       2.245   3.262  22.227  0.00  0.00    +0.000 OA
ATOM     39  H   UNL     1       1.676   2.831  21.542  0.00  0.00    +0.000 HD
ENDBRANCH  36  38
ENDBRANCH  31  34
ENDBRANCH  27  28
ENDBRANCH   3  27
TORSDOF 10
ENDMDL
MODEL 7
REMARK VINA RESULT:      -7.7      1.721      2.864
REMARK  Name = 
REMARK  14 active torsions:
REMARK  status: ('A' for Active; 'I' for Inactive)
REMARK    1  A    between atoms: C_1  and  C_2
REMARK    2  A    between atoms: C_2  and  C_3
REMARK    3  A    between atoms: C_2  and  C_4
REMARK    4  A    between atoms: C_7  and  C_8
REMARK    5  A    between atoms: N_10  and  C_11
REMARK    6  A    between atoms: N_10  and  C_22
REMARK    7  A    between atoms: C_11  and  C_12
REMARK    8  A    between atoms: C_15  and  C_16
REMARK    9  A    between atoms: N_18  and  O_19
REMARK   10  A    between atoms: C_22  and  C_23
REMARK   11  A    between atoms: C_22  and  C_24
REMARK   12  A    between atoms: C_22  and  C_25
REMARK   13  A    between atoms: N_27  and  C_28
REMARK   14  A    between atoms: C_28  and  C_29
REMARK                            x       y       z     vdW  Elec       q    Type
REMARK                         _______ _______ _______ _____ _____    ______ ____
ROOT
ATOM      1  C   UNL     1      -1.039  10.848  18.166  0.00  0.00    +0.000 C 
ATOM      2  O   UNL     1      -1.110   9.906  17.359  0.00  0.00    +0.000 OA
ATOM      3  N   UNL     1       0.249  11.271  18.653  0.00  0.00    +0.000 N 
ENDROOT
BRANCH   1   7
ATOM      4  C   UNL     1      -5.107  12.031  19.186  0.00  0.00    +0.000 A 
ATOM      5  C   UNL     1      -4.097  12.235  20.104  0.00  0.00    +0.000 A 
ATOM      6  C   UNL     1      -2.786  11.914  19.765  0.00  0.00    +0.000 A 
ATOM      7  C   UNL     1      -2.391  11.452  18.517  0.00  0.00    +0.000 A 
ATOM      8  C   UNL     1      -3.397  11.461  17.537  0.00  0.00    +0.000 A 
ATOM      9  C   UNL     1      -4.738  11.759  17.863  0.00  0.00    +0.000 A 
BRANCH   4  11
ATOM     10  C   UNL     1      -7.506  12.869  19.044  0.00  0.00    +0.000 C 
ATOM     11  C   UNL     1      -6.520  11.927  19.725  0.00  0.00    +0.000 C 
ATOM     12  C   UNL     1      -7.000  10.477  19.763  0.00  0.00    +0.000 C 
ENDBRANCH   4  11
ENDBRANCH   1   7
BRANCH   3  13
ATOM     13  C   UNL     1       0.524  12.591  19.368  0.00  0.00    +0.000 C 
ATOM     14  C   UNL     1       1.988  13.086  19.289  0.00  0.00    +0.000 C 
ATOM     15  C   UNL     1      -0.314  13.705  18.690  0.00  0.00    +0.000 C 
BRANCH  13  16
ATOM     16  C   UNL     1       0.320  12.450  20.922  0.00  0.00    +0.000 C 
ATOM     17  O   UNL     1       0.747  11.496  21.572  0.00  0.00    +0.000 OA
ATOM     18  N   UNL     1      -0.441  13.434  21.541  0.00  0.00    +0.000 N 
ATOM     19  H   UNL     1      -0.534  14.349  21.127  0.00  0.00    +0.000 HD
BRANCH  18  20
ATOM     20  C   UNL     1      -0.935  13.236  22.891  0.00  0.00    +0.000 C 
BRANCH  20  21
ATOM     21  C   UNL     1      -2.420  13.481  23.037  0.00  0.00    +0.000 A 
ATOM     22  C   UNL     1      -3.275  12.589  23.701  0.00  0.00    +0.000 A 
ATOM     23  C   UNL     1      -4.637  12.878  23.840  0.00  0.00    +0.000 A 
ATOM     24  C   UNL     1      -5.154  14.074  23.342  0.00  0.00    +0.000 A 
ATOM     25  C   UNL     1      -4.309  14.985  22.717  0.00  0.00    +0.000 A 
ATOM     26  C   UNL     1      -2.952  14.695  22.571  0.00  0.00    +0.000 A 
ENDBRANCH  20  21
ENDBRANCH  18  20
ENDBRANCH  13  16
ENDBRANCH   3  13
BRANCH   3  27
ATOM     27  C   UNL     1       1.413  10.497  18.101  0.00  0.00    +0.000 C 
BRANCH  27  28
ATOM     28  C   UNL     1       1.748   9.128  18.689  0.00  0.00    +0.000 A 
ATOM     29  C   UNL     1       2.493   8.166  18.003  0.00  0.00    +0.000 A 
ATOM     30  C   UNL     1       2.696   6.885  18.557  0.00  0.00    +0.000 A 
ATOM     31  C   UNL     1       2.192   6.536  19.816  0.00  0.00    +0.000 A 
ATOM     32  C   UNL     1       1.564   7.527  20.568  0.00  0.00    +0.000 A 
ATOM     33  C   UNL     1       1.344   8.806  20.008  0.00  0.00    +0.000 A 
BRANCH  31  34
ATOM     34  C   UNL     1       2.333   5.102  20.225  0.00  0.00    +0.000 C 
ATOM     35  O   UNL     1       1.743   4.668  21.212  0.00  0.00    +0.000 OA
ATOM     36  N   UNL     1       3.219   4.303  19.532  0.00  0.00    +0.000 N 
ATOM     37  H   UNL     1       3.912   4.640  18.881  0.00  0.00    +0.000 HD
BRANCH  36  38
ATOM     38  O   UNL     1       3.540   3.094  20.204  0.00  0.00    +0.000 OA
ATOM     39  H   UNL     1       2.658   2.655  20.287  0.00  0.00    +0.000 HD
ENDBRANCH  36  38
ENDBRANCH  31  34
ENDBRANCH  27  28
ENDBRANCH   3  27
TORSDOF 10
ENDMDL
MODEL 8
REMARK VINA RESULT:      -7.6      1.657      2.504
REMARK  Name = 
REMARK  14 active torsions:
REMARK  status: ('A' for Active; 'I' for Inactive)
REMARK    1  A    between atoms: C_1  and  C_2
REMARK    2  A    between atoms: C_2  and  C_3
REMARK    3  A    between atoms: C_2  and  C_4
REMARK    4  A    between atoms: C_7  and  C_8
REMARK    5  A    between atoms: N_10  and  C_11
REMARK    6  A    between atoms: N_10  and  C_22
REMARK    7  A    between atoms: C_11  and  C_12
REMARK    8  A    between atoms: C_15  and  C_16
REMARK    9  A    between atoms: N_18  and  O_19
REMARK   10  A    between atoms: C_22  and  C_23
REMARK   11  A    between atoms: C_22  and  C_24
REMARK   12  A    between atoms: C_22  and  C_25
REMARK   13  A    between atoms: N_27  and  C_28
REMARK   14  A    between atoms: C_28  and  C_29
REMARK                            x       y       z     vdW  Elec       q    Type
REMARK                         _______ _______ _______ _____ _____    ______ ____
ROOT
ATOM      1  C   UNL     1      -0.667  10.344  17.805  0.00  0.00    +0.000 C 
ATOM      2  O   UNL     1      -0.558   9.356  17.059  0.00  0.00    +0.000 OA
ATOM      3  N   UNL     1       0.486  10.823  18.523  0.00  0.00    +0.000 N 
ENDROOT
BRANCH   1   7
ATOM      4  C   UNL     1      -4.869  11.496  17.761  0.00  0.00    +0.000 A 
ATOM      5  C   UNL     1      -4.172  11.543  18.951  0.00  0.00    +0.000 A 
ATOM      6  C   UNL     1      -2.814  11.233  18.964  0.00  0.00    +0.000 A 
ATOM      7  C   UNL     1      -2.070  10.933  17.831  0.00  0.00    +0.000 A 
ATOM      8  C   UNL     1      -2.748  11.105  16.614  0.00  0.00    +0.000 A 
ATOM      9  C   UNL     1      -4.129  11.395  16.576  0.00  0.00    +0.000 A 
BRANCH   4  11
ATOM     10  C   UNL     1      -6.844  10.434  18.965  0.00  0.00    +0.000 C 
ATOM     11  C   UNL     1      -6.376  11.361  17.849  0.00  0.00    +0.000 C 
ATOM     12  C   UNL     1      -7.061  12.726  17.873  0.00  0.00    +0.000 C 
ENDBRANCH   4  11
ENDBRANCH   1   7
BRANCH   3  13
ATOM     13  C   UNL     1       0.590  12.188  19.200  0.00  0.00    +0.000 C 
ATOM     14  C   UNL     1       2.003  12.817  19.189  0.00  0.00    +0.000 C 
ATOM     15  C   UNL     1      -0.303  13.192  18.427  0.00  0.00    +0.000 C 
BRANCH  13  16
ATOM     16  C   UNL     1       0.300  12.081  20.743  0.00  0.00    +0.000 C 
ATOM     17  O   UNL     1       1.048  11.499  21.529  0.00  0.00    +0.000 OA
ATOM     18  N   UNL     1      -0.898  12.623  21.189  0.00  0.00    +0.000 N 
ATOM     19  H   UNL     1      -1.362  13.349  20.664  0.00  0.00    +0.000 HD
BRANCH  18  20
ATOM     20  C   UNL     1      -1.392  12.314  22.518  0.00  0.00    +0.000 C 
BRANCH  20  21
ATOM     21  C   UNL     1      -2.810  12.779  22.763  0.00  0.00    +0.000 A 
ATOM     22  C   UNL     1      -3.528  13.549  21.836  0.00  0.00    +0.000 A 
ATOM     23  C   UNL     1      -4.850  13.925  22.095  0.00  0.00    +0.000 A 
ATOM     24  C   UNL     1      -5.479  13.513  23.270  0.00  0.00    +0.000 A 
ATOM     25  C   UNL     1      -4.791  12.716  24.179  0.00  0.00    +0.000 A 
ATOM     26  C   UNL     1      -3.470  12.346  23.925  0.00  0.00    +0.000 A 
ENDBRANCH  20  21
ENDBRANCH  18  20
ENDBRANCH  13  16
ENDBRANCH   3  13
BRANCH   3  27
ATOM     27  C   UNL     1       1.748  10.048  18.272  0.00  0.00    +0.000 C 
BRANCH  27  28
ATOM     28  C   UNL     1       1.864   8.616  18.793  0.00  0.00    +0.000 A 
ATOM     29  C   UNL     1       1.501   8.246  20.090  0.00  0.00    +0.000 A 
ATOM     30  C   UNL     1       1.714   6.929  20.547  0.00  0.00    +0.000 A 
ATOM     31  C   UNL     1       2.264   5.940  19.722  0.00  0.00    +0.000 A 
ATOM     32  C   UNL     1       2.503   6.261  18.387  0.00  0.00    +0.000 A 
ATOM     33  C   UNL     1       2.308   7.584  17.931  0.00  0.00    +0.000 A 
BRANCH  31  34
ATOM     34  C   UNL     1       2.590   4.628  20.367  0.00  0.00    +0.000 C 
ATOM     35  O   UNL     1       2.322   4.424  21.549  0.00  0.00    +0.000 OA
ATOM     36  N   UNL     1       3.292   3.692  19.636  0.00  0.00    +0.000 N 
ATOM     37  H   UNL     1       3.758   3.874  18.761  0.00  0.00    +0.000 HD
BRANCH  36  38
ATOM     38  O   UNL     1       3.853   2.656  20.429  0.00  0.00    +0.000 OA
ATOM     39  H   UNL     1       4.214   2.037  19.746  0.00  0.00    +0.000 HD
ENDBRANCH  36  38
ENDBRANCH  31  34
ENDBRANCH  27  28
ENDBRANCH   3  27
TORSDOF 10
ENDMDL
MODEL 9
REMARK VINA RESULT:      -7.6      2.639      7.390
REMARK  Name = 
REMARK  14 active torsions:
REMARK  status: ('A' for Active; 'I' for Inactive)
REMARK    1  A    between atoms: C_1  and  C_2
REMARK    2  A    between atoms: C_2  and  C_3
REMARK    3  A    between atoms: C_2  and  C_4
REMARK    4  A    between atoms: C_7  and  C_8
REMARK    5  A    between atoms: N_10  and  C_11
REMARK    6  A    between atoms: N_10  and  C_22
REMARK    7  A    between atoms: C_11  and  C_12
REMARK    8  A    between atoms: C_15  and  C_16
REMARK    9  A    between atoms: N_18  and  O_19
REMARK   10  A    between atoms: C_22  and  C_23
REMARK   11  A    between atoms: C_22  and  C_24
REMARK   12  A    between atoms: C_22  and  C_25
REMARK   13  A    between atoms: N_27  and  C_28
REMARK   14  A    between atoms: C_28  and  C_29
REMARK                            x       y       z     vdW  Elec       q    Type
REMARK                         _______ _______ _______ _____ _____    ______ ____
ROOT
ATOM      1  C   UNL     1       2.165   8.279  18.315  0.00  0.00    +0.000 C 
ATOM      2  O   UNL     1       2.287   8.902  17.247  0.00  0.00    +0.000 OA
ATOM      3  N   UNL     1       1.660   8.958  19.481  0.00  0.00    +0.000 N 
ENDROOT
BRANCH   1   7
ATOM      4  C   UNL     1       3.432   4.120  18.599  0.00  0.00    +0.000 A 
ATOM      5  C   UNL     1       2.115   4.402  18.298  0.00  0.00    +0.000 A 
ATOM      6  C   UNL     1       1.714   5.727  18.147  0.00  0.00    +0.000 A 
ATOM      7  C   UNL     1       2.573   6.817  18.215  0.00  0.00    +0.000 A 
ATOM      8  C   UNL     1       3.936   6.492  18.304  0.00  0.00    +0.000 A 
ATOM      9  C   UNL     1       4.363   5.158  18.482  0.00  0.00    +0.000 A 
BRANCH   4  11
ATOM     10  C   UNL     1       3.086   2.568  20.587  0.00  0.00    +0.000 C 
ATOM     11  C   UNL     1       3.723   2.766  19.217  0.00  0.00    +0.000 C 
ATOM     12  C   UNL     1       3.423   1.629  18.242  0.00  0.00    +0.000 C 
ENDBRANCH   4  11
ENDBRANCH   1   7
BRANCH   3  13
ATOM     13  C   UNL     1       1.151   8.269  20.744  0.00  0.00    +0.000 C 
ATOM     14  C   UNL     1      -0.227   7.578  20.603  0.00  0.00    +0.000 C 
ATOM     15  C   UNL     1       2.135   7.129  21.116  0.00  0.00    +0.000 C 
BRANCH  13  16
ATOM     16  C   UNL     1       0.869   9.312  21.888  0.00  0.00    +0.000 C 
ATOM     17  O   UNL     1       1.744   9.730  22.646  0.00  0.00    +0.000 OA
ATOM     18  N   UNL     1      -0.452   9.704  22.060  0.00  0.00    +0.000 N 
ATOM     19  H   UNL     1      -1.112   9.637  21.300  0.00  0.00    +0.000 HD
BRANCH  18  20
ATOM     20  C   UNL     1      -0.855  10.414  23.260  0.00  0.00    +0.000 C 
BRANCH  20  21
ATOM     21  C   UNL     1      -1.412  11.793  22.992  0.00  0.00    +0.000 A 
ATOM     22  C   UNL     1      -0.645  12.829  22.439  0.00  0.00    +0.000 A 
ATOM     23  C   UNL     1      -1.217  14.079  22.178  0.00  0.00    +0.000 A 
ATOM     24  C   UNL     1      -2.569  14.298  22.438  0.00  0.00    +0.000 A 
ATOM     25  C   UNL     1      -3.351  13.268  22.949  0.00  0.00    +0.000 A 
ATOM     26  C   UNL     1      -2.780  12.023  23.217  0.00  0.00    +0.000 A 
ENDBRANCH  20  21
ENDBRANCH  18  20
ENDBRANCH  13  16
ENDBRANCH   3  13
BRANCH   3  27
ATOM     27  C   UNL     1       1.313  10.404  19.263  0.00  0.00    +0.000 C 
BRANCH  27  28
ATOM     28  C   UNL     1      -0.061  10.768  18.703  0.00  0.00    +0.000 A 
ATOM     29  C   UNL     1      -0.671  12.004  18.926  0.00  0.00    +0.000 A 
ATOM     30  C   UNL     1      -1.980  12.253  18.462  0.00  0.00    +0.000 A 
ATOM     31  C   UNL     1      -2.704  11.296  17.742  0.00  0.00    +0.000 A 
ATOM     32  C   UNL     1      -2.057  10.110  17.396  0.00  0.00    +0.000 A 
ATOM     33  C   UNL     1      -0.753   9.850  17.875  0.00  0.00    +0.000 A 
BRANCH  31  34
ATOM     34  C   UNL     1      -4.136  11.616  17.445  0.00  0.00    +0.000 C 
ATOM     35  O   UNL     1      -4.692  11.152  16.452  0.00  0.00    +0.000 OA
ATOM     36  N   UNL     1      -4.790  12.523  18.253  0.00  0.00    +0.000 N 
ATOM     37  H   UNL     1      -4.340  13.125  18.926  0.00  0.00    +0.000 HD
BRANCH  36  38
ATOM     38  O   UNL     1      -5.996  13.019  17.691  0.00  0.00    +0.000 OA
ATOM     39  H   UNL     1      -6.652  12.853  18.413  0.00  0.00    +0.000 HD
ENDBRANCH  36  38
ENDBRANCH  31  34
ENDBRANCH  27  28
ENDBRANCH   3  27
TORSDOF 10
ENDMDL
