MODEL 1
REMARK VINA RESULT:      -9.0      0.000      0.000
REMARK  Name = 
REMARK  5 active torsions:
REMARK  status: ('A' for Active; 'I' for Inactive)
REMARK    1  A    between atoms: C_1  and  C_2
REMARK    2  A    between atoms: N_10  and  S_11
REMARK    3  A    between atoms: S_11  and  C_14
REMARK    4  A    between atoms: C_18  and  C_19
REMARK    5  A    between atoms: N_21  and  C_22
REMARK                            x       y       z     vdW  Elec       q    Type
REMARK                         _______ _______ _______ _____ _____    ______ ____
ROOT
ATOM      1  S   UNL     1       3.728   2.987  18.782  0.00  0.00    +0.000 S 
ATOM      2  O   UNL     1       4.079   2.779  20.171  0.00  0.00    +0.000 OA
ATOM      3  O   UNL     1       3.482   1.870  17.895  0.00  0.00    +0.000 OA
ENDROOT
BRANCH   1  13
ATOM      4  C   UNL     1       2.555   4.107  21.332  0.00  0.00    +0.000 C 
ATOM      5  C   UNL     1       1.820   4.527  20.062  0.00  0.00    +0.000 C 
ATOM      6  C   UNL     1       1.779   6.028  19.915  0.00  0.00    +0.000 A 
ATOM      7  C   UNL     1       1.463   7.002  20.852  0.00  0.00    +0.000 A 
ATOM      8  C   UNL     1       1.526   8.347  20.472  0.00  0.00    +0.000 A 
ATOM      9  C   UNL     1       1.882   8.701  19.163  0.00  0.00    +0.000 A 
ATOM     10  C   UNL     1       2.183   7.717  18.221  0.00  0.00    +0.000 A 
ATOM     11  C   UNL     1       2.138   6.388  18.618  0.00  0.00    +0.000 A 
ATOM     12  C   UNL     1       2.474   5.181  17.810  0.00  0.00    +0.000 C 
ATOM     13  N   UNL     1       2.381   4.006  18.736  0.00  0.00    +0.000 NA
ENDBRANCH   1  13
BRANCH   1  14
ATOM     14  C   UNL     1       5.057   3.921  18.043  0.00  0.00    +0.000 A 
ATOM     15  C   UNL     1       5.952   4.601  18.880  0.00  0.00    +0.000 A 
ATOM     16  C   UNL     1       7.052   5.257  18.333  0.00  0.00    +0.000 A 
ATOM     17  C   UNL     1       7.259   5.225  16.954  0.00  0.00    +0.000 A 
ATOM     18  C   UNL     1       6.378   4.527  16.113  0.00  0.00    +0.000 A 
ATOM     19  C   UNL     1       5.261   3.877  16.658  0.00  0.00    +0.000 A 
BRANCH  18  20
ATOM     20  C   UNL     1       6.682   4.525  14.654  0.00  0.00    +0.000 C 
ATOM     21  O   UNL     1       7.565   5.255  14.219  0.00  0.00    +0.000 OA
ATOM     22  N   UNL     1       5.955   3.643  13.873  0.00  0.00    +0.000 N 
ATOM     23  H   UNL     1       5.352   2.964  14.316  0.00  0.00    +0.000 HD
BRANCH  22  24
ATOM     24  C   UNL     1       6.196   3.511  12.468  0.00  0.00    +0.000 C 
ATOM     25  C   UNL     1       6.120   2.171  11.791  0.00  0.00    +0.000 C 
ATOM     26  C   UNL     1       5.059   3.199  11.537  0.00  0.00    +0.000 C 
ENDBRANCH  22  24
ENDBRANCH  18  20
ENDBRANCH   1  14
TORSDOF 4
ENDMDL
MODEL 2
REMARK VINA RESULT:      -8.5      3.347      8.444
REMARK  Name = 
REMARK  5 active torsions:
REMARK  status: ('A' for Active; 'I' for Inactive)
REMARK    1  A    between atoms: C_1  and  C_2
REMARK    2  A    between atoms: N_10  and  S_11
REMARK    3  A    between atoms: S_11  and  C_14
REMARK    4  A    between atoms: C_18  and  C_19
REMARK    5  A    between atoms: N_21  and  C_22
REMARK                            x       y       z     vdW  Elec       q    Type
REMARK                         _______ _______ _______ _____ _____    ______ ____
ROOT
ATOM      1  S   UNL     1       2.533   5.625  19.307  0.00  0.00    +0.000 S 
ATOM      2  O   UNL     1       1.709   5.005  18.292  0.00  0.00    +0.000 OA
ATOM      3  O   UNL     1       2.565   5.119  20.662  0.00  0.00    +0.000 OA
ENDROOT
BRANCH   1  13
ATOM      4  C   UNL     1       4.026   3.077  18.668  0.00  0.00    +0.000 C 
ATOM      5  C   UNL     1       4.830   4.353  18.437  0.00  0.00    +0.000 C 
ATOM      6  C   UNL     1       5.306   4.460  17.009  0.00  0.00    +0.000 A 
ATOM      7  C   UNL     1       5.910   3.504  16.203  0.00  0.00    +0.000 A 
ATOM      8  C   UNL     1       6.237   3.844  14.886  0.00  0.00    +0.000 A 
ATOM      9  C   UNL     1       5.978   5.133  14.398  0.00  0.00    +0.000 A 
ATOM     10  C   UNL     1       5.385   6.093  15.218  0.00  0.00    +0.000 A 
ATOM     11  C   UNL     1       5.046   5.736  16.515  0.00  0.00    +0.000 A 
ATOM     12  C   UNL     1       4.357   6.568  17.542  0.00  0.00    +0.000 C 
ATOM     13  N   UNL     1       4.119   5.679  18.724  0.00  0.00    +0.000 NA
ENDBRANCH   1  13
BRANCH   1  14
ATOM     14  C   UNL     1       2.013   7.329  19.429  0.00  0.00    +0.000 A 
ATOM     15  C   UNL     1       1.953   8.102  18.262  0.00  0.00    +0.000 A 
ATOM     16  C   UNL     1       1.460   9.403  18.317  0.00  0.00    +0.000 A 
ATOM     17  C   UNL     1       1.020   9.924  19.534  0.00  0.00    +0.000 A 
ATOM     18  C   UNL     1       1.058   9.147  20.701  0.00  0.00    +0.000 A 
ATOM     19  C   UNL     1       1.568   7.840  20.654  0.00  0.00    +0.000 A 
BRANCH  18  20
ATOM     20  C   UNL     1       0.551   9.771  21.956  0.00  0.00    +0.000 C 
ATOM     21  O   UNL     1       1.143   9.576  23.011  0.00  0.00    +0.000 OA
ATOM     22  N   UNL     1      -0.561  10.586  21.835  0.00  0.00    +0.000 N 
ATOM     23  H   UNL     1      -0.907  10.826  20.916  0.00  0.00    +0.000 HD
BRANCH  22  24
ATOM     24  C   UNL     1      -1.105  11.284  22.960  0.00  0.00    +0.000 C 
ATOM     25  C   UNL     1      -1.156  12.787  22.990  0.00  0.00    +0.000 C 
ATOM     26  C   UNL     1      -2.421  11.998  22.835  0.00  0.00    +0.000 C 
ENDBRANCH  22  24
ENDBRANCH  18  20
ENDBRANCH   1  14
TORSDOF 4
ENDMDL
MODEL 3
REMARK VINA RESULT:      -8.5      2.854      7.778
REMARK  Name = 
REMARK  5 active torsions:
REMARK  status: ('A' for Active; 'I' for Inactive)
REMARK    1  A    between atoms: C_1  and  C_2
REMARK    2  A    between atoms: N_10  and  S_11
REMARK    3  A    between atoms: S_11  and  C_14
REMARK    4  A    between atoms: C_18  and  C_19
REMARK    5  A    between atoms: N_21  and  C_22
REMARK                            x       y       z     vdW  Elec       q    Type
REMARK                         _______ _______ _______ _____ _____    ______ ____
ROOT
ATOM      1  S   UNL     1       2.290   4.411  19.927  0.00  0.00    +0.000 S 
ATOM      2  O   UNL     1       1.343   3.759  19.047  0.00  0.00    +0.000 OA
ATOM      3  O   UNL     1       2.220   4.242  21.363  0.00  0.00    +0.000 OA
ENDROOT
BRANCH   1  13
ATOM      4  C   UNL     1       2.749   3.248  17.176  0.00  0.00    +0.000 C 
ATOM      5  C   UNL     1       4.012   3.386  18.022  0.00  0.00    +0.000 C 
ATOM      6  C   UNL     1       5.046   4.246  17.339  0.00  0.00    +0.000 A 
ATOM      7  C   UNL     1       5.495   4.218  16.025  0.00  0.00    +0.000 A 
ATOM      8  C   UNL     1       6.455   5.153  15.622  0.00  0.00    +0.000 A 
ATOM      9  C   UNL     1       6.969   6.084  16.535  0.00  0.00    +0.000 A 
ATOM     10  C   UNL     1       6.526   6.097  17.857  0.00  0.00    +0.000 A 
ATOM     11  C   UNL     1       5.558   5.179  18.238  0.00  0.00    +0.000 A 
ATOM     12  C   UNL     1       4.897   5.046  19.568  0.00  0.00    +0.000 C 
ATOM     13  N   UNL     1       3.845   3.988  19.419  0.00  0.00    +0.000 NA
ENDBRANCH   1  13
BRANCH   1  14
ATOM     14  C   UNL     1       2.152   6.166  19.629  0.00  0.00    +0.000 A 
ATOM     15  C   UNL     1       2.320   6.646  18.324  0.00  0.00    +0.000 A 
ATOM     16  C   UNL     1       2.125   7.997  18.050  0.00  0.00    +0.000 A 
ATOM     17  C   UNL     1       1.751   8.862  19.078  0.00  0.00    +0.000 A 
ATOM     18  C   UNL     1       1.560   8.384  20.383  0.00  0.00    +0.000 A 
ATOM     19  C   UNL     1       1.771   7.026  20.667  0.00  0.00    +0.000 A 
BRANCH  18  20
ATOM     20  C   UNL     1       1.143   9.371  21.419  0.00  0.00    +0.000 C 
ATOM     21  O   UNL     1       1.662   9.339  22.528  0.00  0.00    +0.000 OA
ATOM     22  N   UNL     1       0.200  10.308  21.035  0.00  0.00    +0.000 N 
ATOM     23  H   UNL     1      -0.074  10.373  20.064  0.00  0.00    +0.000 HD
BRANCH  22  24
ATOM     24  C   UNL     1      -0.238  11.340  21.925  0.00  0.00    +0.000 C 
ATOM     25  C   UNL     1      -1.637  11.886  21.852  0.00  0.00    +0.000 C 
ATOM     26  C   UNL     1      -1.229  11.026  23.009  0.00  0.00    +0.000 C 
ENDBRANCH  22  24
ENDBRANCH  18  20
ENDBRANCH   1  14
TORSDOF 4
ENDMDL
MODEL 4
REMARK VINA RESULT:      -8.3      1.077      1.460
REMARK  Name = 
REMARK  5 active torsions:
REMARK  status: ('A' for Active; 'I' for Inactive)
REMARK    1  A    between atoms: C_1  and  C_2
REMARK    2  A    between atoms: N_10  and  S_11
REMARK    3  A    between atoms: S_11  and  C_14
REMARK    4  A    between atoms: C_18  and  C_19
REMARK    5  A    between atoms: N_21  and  C_22
REMARK                            x       y       z     vdW  Elec       q    Type
REMARK                         _______ _______ _______ _____ _____    ______ ____
ROOT
ATOM      1  S   UNL     1       4.279   3.135  18.159  0.00  0.00    +0.000 S 
ATOM      2  O   UNL     1       4.937   3.302  19.437  0.00  0.00    +0.000 OA
ATOM      3  O   UNL     1       3.945   1.821  17.653  0.00  0.00    +0.000 OA
ENDROOT
BRANCH   1  13
ATOM      4  C   UNL     1       2.568   3.299  20.644  0.00  0.00    +0.000 C 
ATOM      5  C   UNL     1       2.035   4.098  19.458  0.00  0.00    +0.000 C 
ATOM      6  C   UNL     1       1.879   5.559  19.798  0.00  0.00    +0.000 A 
ATOM      7  C   UNL     1       1.308   6.153  20.917  0.00  0.00    +0.000 A 
ATOM      8  C   UNL     1       1.311   7.548  21.012  0.00  0.00    +0.000 A 
ATOM      9  C   UNL     1       1.859   8.332  19.987  0.00  0.00    +0.000 A 
ATOM     10  C   UNL     1       2.417   7.730  18.859  0.00  0.00    +0.000 A 
ATOM     11  C   UNL     1       2.428   6.345  18.787  0.00  0.00    +0.000 A 
ATOM     12  C   UNL     1       3.017   5.489  17.717  0.00  0.00    +0.000 C 
ATOM     13  N   UNL     1       2.871   4.069  18.176  0.00  0.00    +0.000 NA
ENDBRANCH   1  13
BRANCH   1  14
ATOM     14  C   UNL     1       5.334   3.884  16.929  0.00  0.00    +0.000 A 
ATOM     15  C   UNL     1       6.396   4.693  17.353  0.00  0.00    +0.000 A 
ATOM     16  C   UNL     1       7.289   5.211  16.418  0.00  0.00    +0.000 A 
ATOM     17  C   UNL     1       7.124   4.912  15.065  0.00  0.00    +0.000 A 
ATOM     18  C   UNL     1       6.074   4.084  14.638  0.00  0.00    +0.000 A 
ATOM     19  C   UNL     1       5.163   3.572  15.574  0.00  0.00    +0.000 A 
BRANCH  18  20
ATOM     20  C   UNL     1       5.980   3.797  13.179  0.00  0.00    +0.000 C 
ATOM     21  O   UNL     1       6.998   3.784  12.498  0.00  0.00    +0.000 OA
ATOM     22  N   UNL     1       4.718   3.515  12.685  0.00  0.00    +0.000 N 
ATOM     23  H   UNL     1       3.946   3.393  13.327  0.00  0.00    +0.000 HD
BRANCH  22  24
ATOM     24  C   UNL     1       4.509   3.170  11.312  0.00  0.00    +0.000 C 
ATOM     25  C   UNL     1       3.171   2.683  10.829  0.00  0.00    +0.000 C 
ATOM     26  C   UNL     1       3.657   4.046  10.438  0.00  0.00    +0.000 C 
ENDBRANCH  22  24
ENDBRANCH  18  20
ENDBRANCH   1  14
TORSDOF 4
ENDMDL
MODEL 5
REMARK VINA RESULT:      -8.2      1.409      2.306
REMARK  Name = 
REMARK  5 active torsions:
REMARK  status: ('A' for Active; 'I' for Inactive)
REMARK    1  A    between atoms: C_1  and  C_2
REMARK    2  A    between atoms: N_10  and  S_11
REMARK    3  A    between atoms: S_11  and  C_14
REMARK    4  A    between atoms: C_18  and  C_19
REMARK    5  A    between atoms: N_21  and  C_22
REMARK                            x       y       z     vdW  Elec       q    Type
REMARK                         _______ _______ _______ _____ _____    ______ ____
ROOT
ATOM      1  S   UNL     1       3.050   4.964  18.623  0.00  0.00    +0.000 S 
ATOM      2  O   UNL     1       2.946   3.807  19.486  0.00  0.00    +0.000 OA
ATOM      3  O   UNL     1       2.119   5.174  17.534  0.00  0.00    +0.000 OA
ENDROOT
BRANCH   1  13
ATOM      4  C   UNL     1       2.741   7.713  17.408  0.00  0.00    +0.000 C 
ATOM      5  C   UNL     1       2.900   7.709  18.925  0.00  0.00    +0.000 C 
ATOM      6  C   UNL     1       1.728   8.371  19.608  0.00  0.00    +0.000 A 
ATOM      7  C   UNL     1       1.096   9.573  19.316  0.00  0.00    +0.000 A 
ATOM      8  C   UNL     1      -0.002   9.960  20.091  0.00  0.00    +0.000 A 
ATOM      9  C   UNL     1      -0.440   9.160  21.155  0.00  0.00    +0.000 A 
ATOM     10  C   UNL     1       0.209   7.962  21.454  0.00  0.00    +0.000 A 
ATOM     11  C   UNL     1       1.283   7.579  20.663  0.00  0.00    +0.000 A 
ATOM     12  C   UNL     1       2.084   6.325  20.755  0.00  0.00    +0.000 C 
ATOM     13  N   UNL     1       3.040   6.342  19.601  0.00  0.00    +0.000 NA
ENDBRANCH   1  13
BRANCH   1  14
ATOM     14  C   UNL     1       4.673   4.917  17.882  0.00  0.00    +0.000 A 
ATOM     15  C   UNL     1       5.794   4.809  18.716  0.00  0.00    +0.000 A 
ATOM     16  C   UNL     1       7.063   4.675  18.159  0.00  0.00    +0.000 A 
ATOM     17  C   UNL     1       7.208   4.638  16.772  0.00  0.00    +0.000 A 
ATOM     18  C   UNL     1       6.087   4.724  15.933  0.00  0.00    +0.000 A 
ATOM     19  C   UNL     1       4.808   4.874  16.489  0.00  0.00    +0.000 A 
BRANCH  18  20
ATOM     20  C   UNL     1       6.326   4.657  14.463  0.00  0.00    +0.000 C 
ATOM     21  O   UNL     1       7.252   5.292  13.971  0.00  0.00    +0.000 OA
ATOM     22  N   UNL     1       5.490   3.826  13.739  0.00  0.00    +0.000 N 
ATOM     23  H   UNL     1       4.847   3.216  14.225  0.00  0.00    +0.000 HD
BRANCH  22  24
ATOM     24  C   UNL     1       5.657   3.637  12.329  0.00  0.00    +0.000 C 
ATOM     25  C   UNL     1       5.579   2.266  11.716  0.00  0.00    +0.000 C 
ATOM     26  C   UNL     1       4.480   3.257  11.477  0.00  0.00    +0.000 C 
ENDBRANCH  22  24
ENDBRANCH  18  20
ENDBRANCH   1  14
TORSDOF 4
ENDMDL
MODEL 6
REMARK VINA RESULT:      -7.9      3.646      5.586
REMARK  Name = 
REMARK  5 active torsions:
REMARK  status: ('A' for Active; 'I' for Inactive)
REMARK    1  A    between atoms: C_1  and  C_2
REMARK    2  A    between atoms: N_10  and  S_11
REMARK    3  A    between atoms: S_11  and  C_14
REMARK    4  A    between atoms: C_18  and  C_19
REMARK    5  A    between atoms: N_21  and  C_22
REMARK                            x       y       z     vdW  Elec       q    Type
REMARK                         _______ _______ _______ _____ _____    ______ ____
ROOT
ATOM      1  S   UNL     1       5.702   5.004  16.031  0.00  0.00    +0.000 S 
ATOM      2  O   UNL     1       5.967   3.583  16.102  0.00  0.00    +0.000 OA
ATOM      3  O   UNL     1       5.964   5.757  14.823  0.00  0.00    +0.000 OA
ENDROOT
BRANCH   1  13
ATOM      4  C   UNL     1       4.189   2.905  17.590  0.00  0.00    +0.000 C 
ATOM      5  C   UNL     1       3.370   4.144  17.243  0.00  0.00    +0.000 C 
ATOM      6  C   UNL     1       2.824   4.813  18.481  0.00  0.00    +0.000 A 
ATOM      7  C   UNL     1       2.183   4.256  19.580  0.00  0.00    +0.000 A 
ATOM      8  C   UNL     1       1.791   5.097  20.627  0.00  0.00    +0.000 A 
ATOM      9  C   UNL     1       2.021   6.478  20.556  0.00  0.00    +0.000 A 
ATOM     10  C   UNL     1       2.650   7.034  19.443  0.00  0.00    +0.000 A 
ATOM     11  C   UNL     1       3.054   6.186  18.421  0.00  0.00    +0.000 A 
ATOM     12  C   UNL     1       3.790   6.542  17.174  0.00  0.00    +0.000 C 
ATOM     13  N   UNL     1       4.089   5.253  16.471  0.00  0.00    +0.000 NA
ENDBRANCH   1  13
BRANCH   1  14
ATOM     14  C   UNL     1       6.671   5.778  17.315  0.00  0.00    +0.000 A 
ATOM     15  C   UNL     1       7.179   4.984  18.351  0.00  0.00    +0.000 A 
ATOM     16  C   UNL     1       8.016   5.547  19.311  0.00  0.00    +0.000 A 
ATOM     17  C   UNL     1       8.350   6.899  19.228  0.00  0.00    +0.000 A 
ATOM     18  C   UNL     1       7.862   7.694  18.180  0.00  0.00    +0.000 A 
ATOM     19  C   UNL     1       7.006   7.135  17.218  0.00  0.00    +0.000 A 
BRANCH  18  20
ATOM     20  C   UNL     1       8.282   9.124  18.153  0.00  0.00    +0.000 C 
ATOM     21  O   UNL     1       7.882   9.855  17.255  0.00  0.00    +0.000 OA
ATOM     22  N   UNL     1       9.085   9.551  19.196  0.00  0.00    +0.000 N 
ATOM     23  H   UNL     1       9.253   8.937  19.982  0.00  0.00    +0.000 HD
BRANCH  22  24
ATOM     24  C   UNL     1       9.507  10.914  19.309  0.00  0.00    +0.000 C 
ATOM     25  C   UNL     1      10.398  11.361  20.435  0.00  0.00    +0.000 C 
ATOM     26  C   UNL     1      10.939  11.282  19.040  0.00  0.00    +0.000 C 
ENDBRANCH  22  24
ENDBRANCH  18  20
ENDBRANCH   1  14
TORSDOF 4
ENDMDL
MODEL 7
REMARK VINA RESULT:      -7.9      3.635      5.601
REMARK  Name = 
REMARK  5 active torsions:
REMARK  status: ('A' for Active; 'I' for Inactive)
REMARK    1  A    between atoms: C_1  and  C_2
REMARK    2  A    between atoms: N_10  and  S_11
REMARK    3  A    between atoms: S_11  and  C_14
REMARK    4  A    between atoms: C_18  and  C_19
REMARK    5  A    between atoms: N_21  and  C_22
REMARK                            x       y       z     vdW  Elec       q    Type
REMARK                         _______ _______ _______ _____ _____    ______ ____
ROOT
ATOM      1  S   UNL     1       5.020   5.031  16.685  0.00  0.00    +0.000 S 
ATOM      2  O   UNL     1       5.289   3.610  16.709  0.00  0.00    +0.000 OA
ATOM      3  O   UNL     1       4.959   5.763  15.437  0.00  0.00    +0.000 OA
ENDROOT
BRANCH   1  13
ATOM      4  C   UNL     1       2.775   3.012  16.582  0.00  0.00    +0.000 C 
ATOM      5  C   UNL     1       2.471   4.250  17.421  0.00  0.00    +0.000 C 
ATOM      6  C   UNL     1       2.131   3.885  18.845  0.00  0.00    +0.000 A 
ATOM      7  C   UNL     1       1.275   2.905  19.329  0.00  0.00    +0.000 A 
ATOM      8  C   UNL     1       1.151   2.745  20.713  0.00  0.00    +0.000 A 
ATOM      9  C   UNL     1       1.860   3.573  21.593  0.00  0.00    +0.000 A 
ATOM     10  C   UNL     1       2.707   4.567  21.101  0.00  0.00    +0.000 A 
ATOM     11  C   UNL     1       2.838   4.701  19.727  0.00  0.00    +0.000 A 
ATOM     12  C   UNL     1       3.721   5.643  18.980  0.00  0.00    +0.000 C 
ATOM     13  N   UNL     1       3.580   5.300  17.528  0.00  0.00    +0.000 NA
ENDBRANCH   1  13
BRANCH   1  14
ATOM     14  C   UNL     1       6.294   5.818  17.656  0.00  0.00    +0.000 A 
ATOM     15  C   UNL     1       7.041   5.039  18.550  0.00  0.00    +0.000 A 
ATOM     16  C   UNL     1       8.102   5.609  19.248  0.00  0.00    +0.000 A 
ATOM     17  C   UNL     1       8.421   6.953  19.044  0.00  0.00    +0.000 A 
ATOM     18  C   UNL     1       7.690   7.732  18.135  0.00  0.00    +0.000 A 
ATOM     19  C   UNL     1       6.610   7.166  17.440  0.00  0.00    +0.000 A 
BRANCH  18  20
ATOM     20  C   UNL     1       8.107   9.152  17.961  0.00  0.00    +0.000 C 
ATOM     21  O   UNL     1       7.593   9.830  17.079  0.00  0.00    +0.000 OA
ATOM     22  N   UNL     1       9.041   9.636  18.861  0.00  0.00    +0.000 N 
ATOM     23  H   UNL     1       9.309   9.071  19.655  0.00  0.00    +0.000 HD
BRANCH  22  24
ATOM     24  C   UNL     1       9.477  10.999  18.829  0.00  0.00    +0.000 C 
ATOM     25  C   UNL     1      10.891  11.370  19.183  0.00  0.00    +0.000 C 
ATOM     26  C   UNL     1      10.428  11.459  17.760  0.00  0.00    +0.000 C 
ENDBRANCH  22  24
ENDBRANCH  18  20
ENDBRANCH   1  14
TORSDOF 4
ENDMDL
MODEL 8
REMARK VINA RESULT:      -7.8      2.295      7.681
REMARK  Name = 
REMARK  5 active torsions:
REMARK  status: ('A' for Active; 'I' for Inactive)
REMARK    1  A    between atoms: C_1  and  C_2
REMARK    2  A    between atoms: N_10  and  S_11
REMARK    3  A    between atoms: S_11  and  C_14
REMARK    4  A    between atoms: C_18  and  C_19
REMARK    5  A    between atoms: N_21  and  C_22
REMARK                            x       y       z     vdW  Elec       q    Type
REMARK                         _______ _______ _______ _____ _____    ______ ____
ROOT
ATOM      1  S   UNL     1       4.942   3.967  18.504  0.00  0.00    +0.000 S 
ATOM      2  O   UNL     1       4.721   2.594  18.101  0.00  0.00    +0.000 OA
ATOM      3  O   UNL     1       6.029   4.322  19.392  0.00  0.00    +0.000 OA
ENDROOT
BRANCH   1  13
ATOM      4  C   UNL     1       7.653   4.759  17.432  0.00  0.00    +0.000 C 
ATOM      5  C   UNL     1       6.475   5.289  16.620  0.00  0.00    +0.000 C 
ATOM      6  C   UNL     1       6.540   4.831  15.184  0.00  0.00    +0.000 A 
ATOM      7  C   UNL     1       7.612   4.830  14.301  0.00  0.00    +0.000 A 
ATOM      8  C   UNL     1       7.421   4.320  13.013  0.00  0.00    +0.000 A 
ATOM      9  C   UNL     1       6.165   3.841  12.614  0.00  0.00    +0.000 A 
ATOM     10  C   UNL     1       5.088   3.860  13.500  0.00  0.00    +0.000 A 
ATOM     11  C   UNL     1       5.296   4.347  14.782  0.00  0.00    +0.000 A 
ATOM     12  C   UNL     1       4.319   4.409  15.907  0.00  0.00    +0.000 C 
ATOM     13  N   UNL     1       5.075   4.903  17.104  0.00  0.00    +0.000 NA
ENDBRANCH   1  13
BRANCH   1  14
ATOM     14  C   UNL     1       3.447   4.520  19.308  0.00  0.00    +0.000 A 
ATOM     15  C   UNL     1       2.596   3.567  19.882  0.00  0.00    +0.000 A 
ATOM     16  C   UNL     1       1.474   3.980  20.596  0.00  0.00    +0.000 A 
ATOM     17  C   UNL     1       1.212   5.342  20.743  0.00  0.00    +0.000 A 
ATOM     18  C   UNL     1       2.073   6.301  20.188  0.00  0.00    +0.000 A 
ATOM     19  C   UNL     1       3.196   5.890  19.455  0.00  0.00    +0.000 A 
BRANCH  18  20
ATOM     20  C   UNL     1       1.731   7.735  20.408  0.00  0.00    +0.000 C 
ATOM     21  O   UNL     1       1.753   8.514  19.462  0.00  0.00    +0.000 OA
ATOM     22  N   UNL     1       1.362   8.092  21.693  0.00  0.00    +0.000 N 
ATOM     23  H   UNL     1       1.219   7.374  22.390  0.00  0.00    +0.000 HD
BRANCH  22  24
ATOM     24  C   UNL     1       0.960   9.428  22.014  0.00  0.00    +0.000 C 
ATOM     25  C   UNL     1      -0.446   9.897  21.759  0.00  0.00    +0.000 C 
ATOM     26  C   UNL     1       0.026   9.676  23.164  0.00  0.00    +0.000 C 
ENDBRANCH  22  24
ENDBRANCH  18  20
ENDBRANCH   1  14
TORSDOF 4
ENDMDL
MODEL 9
REMARK VINA RESULT:      -7.8      1.236      1.460
REMARK  Name = 
REMARK  5 active torsions:
REMARK  status: ('A' for Active; 'I' for Inactive)
REMARK    1  A    between atoms: C_1  and  C_2
REMARK    2  A    between atoms: N_10  and  S_11
REMARK    3  A    between atoms: S_11  and  C_14
REMARK    4  A    between atoms: C_18  and  C_19
REMARK    5  A    between atoms: N_21  and  C_22
REMARK                            x       y       z     vdW  Elec       q    Type
REMARK                         _______ _______ _______ _____ _____    ______ ____
ROOT
ATOM      1  S   UNL     1       4.466   4.129  18.776  0.00  0.00    +0.000 S 
ATOM      2  O   UNL     1       5.139   4.710  19.917  0.00  0.00    +0.000 OA
ATOM      3  O   UNL     1       4.236   2.702  18.685  0.00  0.00    +0.000 OA
ENDROOT
BRANCH   1  13
ATOM      4  C   UNL     1       2.580   4.421  21.118  0.00  0.00    +0.000 C 
ATOM      5  C   UNL     1       2.060   5.016  19.813  0.00  0.00    +0.000 C 
ATOM      6  C   UNL     1       1.750   6.486  19.957  0.00  0.00    +0.000 A 
ATOM      7  C   UNL     1       1.053   7.150  20.957  0.00  0.00    +0.000 A 
ATOM      8  C   UNL     1       0.923   8.541  20.876  0.00  0.00    +0.000 A 
ATOM      9  C   UNL     1       1.468   9.245  19.794  0.00  0.00    +0.000 A 
ATOM     10  C   UNL     1       2.154   8.570  18.784  0.00  0.00    +0.000 A 
ATOM     11  C   UNL     1       2.295   7.194  18.888  0.00  0.00    +0.000 A 
ATOM     12  C   UNL     1       3.030   6.278  17.969  0.00  0.00    +0.000 C 
ATOM     13  N   UNL     1       2.982   4.916  18.594  0.00  0.00    +0.000 NA
ENDBRANCH   1  13
BRANCH   1  14
ATOM     14  C   UNL     1       5.418   4.568  17.331  0.00  0.00    +0.000 A 
ATOM     15  C   UNL     1       6.576   5.339  17.494  0.00  0.00    +0.000 A 
ATOM     16  C   UNL     1       7.387   5.614  16.396  0.00  0.00    +0.000 A 
ATOM     17  C   UNL     1       7.044   5.110  15.141  0.00  0.00    +0.000 A 
ATOM     18  C   UNL     1       5.897   4.319  14.976  0.00  0.00    +0.000 A 
ATOM     19  C   UNL     1       5.069   4.051  16.077  0.00  0.00    +0.000 A 
BRANCH  18  20
ATOM     20  C   UNL     1       5.612   3.803  13.607  0.00  0.00    +0.000 C 
ATOM     21  O   UNL     1       4.487   3.923  13.137  0.00  0.00    +0.000 OA
ATOM     22  N   UNL     1       6.679   3.246  12.923  0.00  0.00    +0.000 N 
ATOM     23  H   UNL     1       7.611   3.315  13.308  0.00  0.00    +0.000 HD
BRANCH  22  24
ATOM     24  C   UNL     1       6.542   2.767  11.581  0.00  0.00    +0.000 C 
ATOM     25  C   UNL     1       7.378   1.624  11.076  0.00  0.00    +0.000 C 
ATOM     26  C   UNL     1       5.913   1.427  11.322  0.00  0.00    +0.000 C 
ENDBRANCH  22  24
ENDBRANCH  18  20
ENDBRANCH   1  14
TORSDOF 4
ENDMDL
