MODEL 1
REMARK VINA RESULT:      -5.5      0.000      0.000
REMARK  Name = 
REMARK  5 active torsions:
REMARK  status: ('A' for Active; 'I' for Inactive)
REMARK    1  A    between atoms: C_1  and  C_2
REMARK    2  A    between atoms: C_6  and  N_7
REMARK    3  A    between atoms: N_7  and  C_8
REMARK    4  A    between atoms: C_8  and  C_9
REMARK    5  A    between atoms: C_9  and  C_10
REMARK                            x       y       z     vdW  Elec       q    Type
REMARK                         _______ _______ _______ _____ _____    ______ ____
ROOT
ATOM      1  C   UNL     1       2.125   2.866  21.580  0.00  0.00    +0.000 C 
ATOM      2  C   UNL     1       2.311   3.241  20.137  0.00  0.00    +0.000 A 
ATOM      3  C   UNL     1       1.239   3.629  19.342  0.00  0.00    +0.000 A 
ATOM      4  C   UNL     1       1.452   3.963  18.001  0.00  0.00    +0.000 A 
ATOM      5  C   UNL     1       2.745   3.920  17.466  0.00  0.00    +0.000 A 
ATOM      6  C   UNL     1       3.844   3.546  18.244  0.00  0.00    +0.000 A 
ATOM      7  C   UNL     1       3.599   3.189  19.582  0.00  0.00    +0.000 A 
ENDROOT
BRANCH   6   8
ATOM      8  N   UNL     1       5.092   3.437  17.652  0.00  0.00    +0.000 N 
ATOM      9  H   UNL     1       5.720   2.727  18.026  0.00  0.00    +0.000 HD
BRANCH   8  10
ATOM     10  C   UNL     1       5.405   4.088  16.387  0.00  0.00    +0.000 C 
BRANCH  10  11
ATOM     11  C   UNL     1       6.892   4.408  16.287  0.00  0.00    +0.000 C 
BRANCH  11  12
ATOM     12  C   UNL     1       7.454   4.693  17.670  0.00  0.00    +0.000 C 
ATOM     13  N   UNL     1       7.922   4.930  18.817  0.00  0.00    +0.000 NA
ENDBRANCH  11  12
ENDBRANCH  10  11
ENDBRANCH   8  10
ENDBRANCH   6   8
TORSDOF 4
ENDMDL
MODEL 2
REMARK VINA RESULT:      -5.4      1.999      2.544
REMARK  Name = 
REMARK  5 active torsions:
REMARK  status: ('A' for Active; 'I' for Inactive)
REMARK    1  A    between atoms: C_1  and  C_2
REMARK    2  A    between atoms: C_6  and  N_7
REMARK    3  A    between atoms: N_7  and  C_8
REMARK    4  A    between atoms: C_8  and  C_9
REMARK    5  A    between atoms: C_9  and  C_10
REMARK                            x       y       z     vdW  Elec       q    Type
REMARK                         _______ _______ _______ _____ _____    ______ ____
ROOT
ATOM      1  C   UNL     1       2.276   6.760  19.704  0.00  0.00    +0.000 C 
ATOM      2  C   UNL     1       2.876   5.629  18.919  0.00  0.00    +0.000 A 
ATOM      3  C   UNL     1       2.110   4.857  18.053  0.00  0.00    +0.000 A 
ATOM      4  C   UNL     1       2.704   3.808  17.345  0.00  0.00    +0.000 A 
ATOM      5  C   UNL     1       4.071   3.546  17.498  0.00  0.00    +0.000 A 
ATOM      6  C   UNL     1       4.869   4.314  18.351  0.00  0.00    +0.000 A 
ATOM      7  C   UNL     1       4.242   5.345  19.071  0.00  0.00    +0.000 A 
ENDROOT
BRANCH   6   8
ATOM      8  N   UNL     1       6.198   3.966  18.535  0.00  0.00    +0.000 N 
ATOM      9  H   UNL     1       6.383   3.071  18.983  0.00  0.00    +0.000 HD
BRANCH   8  10
ATOM     10  C   UNL     1       7.281   4.687  17.881  0.00  0.00    +0.000 C 
BRANCH  10  11
ATOM     11  C   UNL     1       7.772   5.844  18.744  0.00  0.00    +0.000 C 
BRANCH  11  12
ATOM     12  C   UNL     1       7.694   7.144  17.961  0.00  0.00    +0.000 C 
ATOM     13  N   UNL     1       7.630   8.223  17.310  0.00  0.00    +0.000 NA
ENDBRANCH  11  12
ENDBRANCH  10  11
ENDBRANCH   8  10
ENDBRANCH   6   8
TORSDOF 4
ENDMDL
MODEL 3
REMARK VINA RESULT:      -5.3      1.432      1.687
REMARK  Name = 
REMARK  5 active torsions:
REMARK  status: ('A' for Active; 'I' for Inactive)
REMARK    1  A    between atoms: C_1  and  C_2
REMARK    2  A    between atoms: C_6  and  N_7
REMARK    3  A    between atoms: N_7  and  C_8
REMARK    4  A    between atoms: C_8  and  C_9
REMARK    5  A    between atoms: C_9  and  C_10
REMARK                            x       y       z     vdW  Elec       q    Type
REMARK                         _______ _______ _______ _____ _____    ______ ____
ROOT
ATOM      1  C   UNL     1       1.652   3.267  21.209  0.00  0.00    +0.000 C 
ATOM      2  C   UNL     1       2.305   3.447  19.868  0.00  0.00    +0.000 A 
ATOM      3  C   UNL     1       1.567   3.423  18.691  0.00  0.00    +0.000 A 
ATOM      4  C   UNL     1       2.213   3.586  17.461  0.00  0.00    +0.000 A 
ATOM      5  C   UNL     1       3.597   3.787  17.419  0.00  0.00    +0.000 A 
ATOM      6  C   UNL     1       4.364   3.829  18.588  0.00  0.00    +0.000 A 
ATOM      7  C   UNL     1       3.694   3.635  19.808  0.00  0.00    +0.000 A 
ENDROOT
BRANCH   6   8
ATOM      8  N   UNL     1       5.741   3.947  18.493  0.00  0.00    +0.000 N 
ATOM      9  H   UNL     1       6.229   3.233  17.956  0.00  0.00    +0.000 HD
BRANCH   8  10
ATOM     10  C   UNL     1       6.440   5.161  18.889  0.00  0.00    +0.000 C 
BRANCH  10  11
ATOM     11  C   UNL     1       6.314   6.241  17.821  0.00  0.00    +0.000 C 
BRANCH  11  12
ATOM     12  C   UNL     1       6.932   5.757  16.520  0.00  0.00    +0.000 C 
ATOM     13  N   UNL     1       7.445   5.354  15.440  0.00  0.00    +0.000 NA
ENDBRANCH  11  12
ENDBRANCH  10  11
ENDBRANCH   8  10
ENDBRANCH   6   8
TORSDOF 4
ENDMDL
MODEL 4
REMARK VINA RESULT:      -5.2      1.767      1.948
REMARK  Name = 
REMARK  5 active torsions:
REMARK  status: ('A' for Active; 'I' for Inactive)
REMARK    1  A    between atoms: C_1  and  C_2
REMARK    2  A    between atoms: C_6  and  N_7
REMARK    3  A    between atoms: N_7  and  C_8
REMARK    4  A    between atoms: C_8  and  C_9
REMARK    5  A    between atoms: C_9  and  C_10
REMARK                            x       y       z     vdW  Elec       q    Type
REMARK                         _______ _______ _______ _____ _____    ______ ____
ROOT
ATOM      1  C   UNL     1       1.633   2.771  21.584  0.00  0.00    +0.000 C 
ATOM      2  C   UNL     1       2.420   3.745  20.753  0.00  0.00    +0.000 A 
ATOM      3  C   UNL     1       2.010   5.064  20.594  0.00  0.00    +0.000 A 
ATOM      4  C   UNL     1       2.766   5.937  19.807  0.00  0.00    +0.000 A 
ATOM      5  C   UNL     1       3.941   5.487  19.193  0.00  0.00    +0.000 A 
ATOM      6  C   UNL     1       4.385   4.171  19.346  0.00  0.00    +0.000 A 
ATOM      7  C   UNL     1       3.593   3.306  20.120  0.00  0.00    +0.000 A 
ENDROOT
BRANCH   6   8
ATOM      8  N   UNL     1       5.507   3.747  18.652  0.00  0.00    +0.000 N 
ATOM      9  H   UNL     1       5.792   2.778  18.782  0.00  0.00    +0.000 HD
BRANCH   8  10
ATOM     10  C   UNL     1       6.094   4.537  17.578  0.00  0.00    +0.000 C 
BRANCH  10  11
ATOM     11  C   UNL     1       7.393   5.196  18.028  0.00  0.00    +0.000 C 
BRANCH  11  12
ATOM     12  C   UNL     1       7.442   6.633  17.536  0.00  0.00    +0.000 C 
ATOM     13  N   UNL     1       7.482   7.826  17.127  0.00  0.00    +0.000 NA
ENDBRANCH  11  12
ENDBRANCH  10  11
ENDBRANCH   8  10
ENDBRANCH   6   8
TORSDOF 4
ENDMDL
MODEL 5
REMARK VINA RESULT:      -5.2      1.330      1.476
REMARK  Name = 
REMARK  5 active torsions:
REMARK  status: ('A' for Active; 'I' for Inactive)
REMARK    1  A    between atoms: C_1  and  C_2
REMARK    2  A    between atoms: C_6  and  N_7
REMARK    3  A    between atoms: N_7  and  C_8
REMARK    4  A    between atoms: C_8  and  C_9
REMARK    5  A    between atoms: C_9  and  C_10
REMARK                            x       y       z     vdW  Elec       q    Type
REMARK                         _______ _______ _______ _____ _____    ______ ____
ROOT
ATOM      1  C   UNL     1       1.501   2.654  21.569  0.00  0.00    +0.000 C 
ATOM      2  C   UNL     1       2.183   3.670  20.699  0.00  0.00    +0.000 A 
ATOM      3  C   UNL     1       1.849   5.018  20.755  0.00  0.00    +0.000 A 
ATOM      4  C   UNL     1       2.502   5.932  19.921  0.00  0.00    +0.000 A 
ATOM      5  C   UNL     1       3.499   5.491  19.044  0.00  0.00    +0.000 A 
ATOM      6  C   UNL     1       3.866   4.144  18.975  0.00  0.00    +0.000 A 
ATOM      7  C   UNL     1       3.175   3.242  19.803  0.00  0.00    +0.000 A 
ENDROOT
BRANCH   6   8
ATOM      8  N   UNL     1       4.798   3.740  18.033  0.00  0.00    +0.000 N 
ATOM      9  H   UNL     1       5.603   3.218  18.375  0.00  0.00    +0.000 HD
BRANCH   8  10
ATOM     10  C   UNL     1       4.526   3.800  16.603  0.00  0.00    +0.000 C 
BRANCH  10  11
ATOM     11  C   UNL     1       5.763   4.236  15.826  0.00  0.00    +0.000 C 
BRANCH  11  12
ATOM     12  C   UNL     1       6.935   4.415  16.776  0.00  0.00    +0.000 C 
ATOM     13  N   UNL     1       7.908   4.563  17.566  0.00  0.00    +0.000 NA
ENDBRANCH  11  12
ENDBRANCH  10  11
ENDBRANCH   8  10
ENDBRANCH   6   8
TORSDOF 4
ENDMDL
MODEL 6
REMARK VINA RESULT:      -5.2      2.139      5.127
REMARK  Name = 
REMARK  5 active torsions:
REMARK  status: ('A' for Active; 'I' for Inactive)
REMARK    1  A    between atoms: C_1  and  C_2
REMARK    2  A    between atoms: C_6  and  N_7
REMARK    3  A    between atoms: N_7  and  C_8
REMARK    4  A    between atoms: C_8  and  C_9
REMARK    5  A    between atoms: C_9  and  C_10
REMARK                            x       y       z     vdW  Elec       q    Type
REMARK                         _______ _______ _______ _____ _____    ______ ____
ROOT
ATOM      1  C   UNL     1       6.181   4.655  14.268  0.00  0.00    +0.000 C 
ATOM      2  C   UNL     1       5.677   5.024  15.634  0.00  0.00    +0.000 A 
ATOM      3  C   UNL     1       5.165   6.287  15.905  0.00  0.00    +0.000 A 
ATOM      4  C   UNL     1       4.713   6.594  17.192  0.00  0.00    +0.000 A 
ATOM      5  C   UNL     1       4.764   5.625  18.201  0.00  0.00    +0.000 A 
ATOM      6  C   UNL     1       5.261   4.342  17.956  0.00  0.00    +0.000 A 
ATOM      7  C   UNL     1       5.734   4.068  16.661  0.00  0.00    +0.000 A 
ENDROOT
BRANCH   6   8
ATOM      8  N   UNL     1       5.369   3.443  19.004  0.00  0.00    +0.000 N 
ATOM      9  H   UNL     1       6.265   3.402  19.486  0.00  0.00    +0.000 HD
BRANCH   8  10
ATOM     10  C   UNL     1       4.204   2.789  19.583  0.00  0.00    +0.000 C 
BRANCH  10  11
ATOM     11  C   UNL     1       3.516   1.888  18.564  0.00  0.00    +0.000 C 
BRANCH  11  12
ATOM     12  C   UNL     1       2.036   2.227  18.488  0.00  0.00    +0.000 C 
ATOM     13  N   UNL     1       0.808   2.509  18.425  0.00  0.00    +0.000 NA
ENDBRANCH  11  12
ENDBRANCH  10  11
ENDBRANCH   8  10
ENDBRANCH   6   8
TORSDOF 4
ENDMDL
MODEL 7
REMARK VINA RESULT:      -5.2      2.380      5.106
REMARK  Name = 
REMARK  5 active torsions:
REMARK  status: ('A' for Active; 'I' for Inactive)
REMARK    1  A    between atoms: C_1  and  C_2
REMARK    2  A    between atoms: C_6  and  N_7
REMARK    3  A    between atoms: N_7  and  C_8
REMARK    4  A    between atoms: C_8  and  C_9
REMARK    5  A    between atoms: C_9  and  C_10
REMARK                            x       y       z     vdW  Elec       q    Type
REMARK                         _______ _______ _______ _____ _____    ______ ____
ROOT
ATOM      1  C   UNL     1       7.756   5.796  18.954  0.00  0.00    +0.000 C 
ATOM      2  C   UNL     1       6.341   5.768  18.451  0.00  0.00    +0.000 A 
ATOM      3  C   UNL     1       5.945   6.517  17.350  0.00  0.00    +0.000 A 
ATOM      4  C   UNL     1       4.616   6.470  16.918  0.00  0.00    +0.000 A 
ATOM      5  C   UNL     1       3.691   5.658  17.585  0.00  0.00    +0.000 A 
ATOM      6  C   UNL     1       4.063   4.884  18.688  0.00  0.00    +0.000 A 
ATOM      7  C   UNL     1       5.399   4.970  19.118  0.00  0.00    +0.000 A 
ENDROOT
BRANCH   6   8
ATOM      8  N   UNL     1       3.097   4.161  19.368  0.00  0.00    +0.000 N 
ATOM      9  H   UNL     1       3.352   3.798  20.285  0.00  0.00    +0.000 HD
BRANCH   8  10
ATOM     10  C   UNL     1       1.703   4.148  18.945  0.00  0.00    +0.000 C 
BRANCH  10  11
ATOM     11  C   UNL     1       0.823   3.450  19.976  0.00  0.00    +0.000 C 
BRANCH  11  12
ATOM     12  C   UNL     1       1.630   3.151  21.228  0.00  0.00    +0.000 C 
ATOM     13  N   UNL     1       2.299   2.901  22.268  0.00  0.00    +0.000 NA
ENDBRANCH  11  12
ENDBRANCH  10  11
ENDBRANCH   8  10
ENDBRANCH   6   8
TORSDOF 4
ENDMDL
MODEL 8
REMARK VINA RESULT:      -5.2      2.163      5.092
REMARK  Name = 
REMARK  5 active torsions:
REMARK  status: ('A' for Active; 'I' for Inactive)
REMARK    1  A    between atoms: C_1  and  C_2
REMARK    2  A    between atoms: C_6  and  N_7
REMARK    3  A    between atoms: N_7  and  C_8
REMARK    4  A    between atoms: C_8  and  C_9
REMARK    5  A    between atoms: C_9  and  C_10
REMARK                            x       y       z     vdW  Elec       q    Type
REMARK                         _______ _______ _______ _____ _____    ______ ____
ROOT
ATOM      1  C   UNL     1       6.658   4.456  15.752  0.00  0.00    +0.000 C 
ATOM      2  C   UNL     1       5.497   4.934  16.576  0.00  0.00    +0.000 A 
ATOM      3  C   UNL     1       5.204   6.287  16.705  0.00  0.00    +0.000 A 
ATOM      4  C   UNL     1       4.119   6.692  17.488  0.00  0.00    +0.000 A 
ATOM      5  C   UNL     1       3.321   5.736  18.127  0.00  0.00    +0.000 A 
ATOM      6  C   UNL     1       3.582   4.369  18.004  0.00  0.00    +0.000 A 
ATOM      7  C   UNL     1       4.695   3.989  17.234  0.00  0.00    +0.000 A 
ENDROOT
BRANCH   6   8
ATOM      8  N   UNL     1       2.817   3.463  18.722  0.00  0.00    +0.000 N 
ATOM      9  H   UNL     1       3.312   2.856  19.374  0.00  0.00    +0.000 HD
BRANCH   8  10
ATOM     10  C   UNL     1       1.364   3.547  18.768  0.00  0.00    +0.000 C 
BRANCH  10  11
ATOM     11  C   UNL     1       0.877   3.864  20.178  0.00  0.00    +0.000 C 
BRANCH  11  12
ATOM     12  C   UNL     1       1.785   3.202  21.200  0.00  0.00    +0.000 C 
ATOM     13  N   UNL     1       2.539   2.653  22.050  0.00  0.00    +0.000 NA
ENDBRANCH  11  12
ENDBRANCH  10  11
ENDBRANCH   8  10
ENDBRANCH   6   8
TORSDOF 4
ENDMDL
MODEL 9
REMARK VINA RESULT:      -5.2      1.244      1.269
REMARK  Name = 
REMARK  5 active torsions:
REMARK  status: ('A' for Active; 'I' for Inactive)
REMARK    1  A    between atoms: C_1  and  C_2
REMARK    2  A    between atoms: C_6  and  N_7
REMARK    3  A    between atoms: N_7  and  C_8
REMARK    4  A    between atoms: C_8  and  C_9
REMARK    5  A    between atoms: C_9  and  C_10
REMARK                            x       y       z     vdW  Elec       q    Type
REMARK                         _______ _______ _______ _____ _____    ______ ____
ROOT
ATOM      1  C   UNL     1       1.690   2.777  21.437  0.00  0.00    +0.000 C 
ATOM      2  C   UNL     1       2.249   2.932  20.052  0.00  0.00    +0.000 A 
ATOM      3  C   UNL     1       1.775   2.176  18.986  0.00  0.00    +0.000 A 
ATOM      4  C   UNL     1       2.328   2.344  17.713  0.00  0.00    +0.000 A 
ATOM      5  C   UNL     1       3.346   3.283  17.511  0.00  0.00    +0.000 A 
ATOM      6  C   UNL     1       3.833   4.068  18.560  0.00  0.00    +0.000 A 
ATOM      7  C   UNL     1       3.280   3.860  19.835  0.00  0.00    +0.000 A 
ENDROOT
BRANCH   6   8
ATOM      8  N   UNL     1       4.898   4.924  18.331  0.00  0.00    +0.000 N 
ATOM      9  H   UNL     1       5.754   4.746  18.853  0.00  0.00    +0.000 HD
BRANCH   8  10
ATOM     10  C   UNL     1       4.913   5.854  17.210  0.00  0.00    +0.000 C 
BRANCH  10  11
ATOM     11  C   UNL     1       6.067   5.553  16.261  0.00  0.00    +0.000 C 
BRANCH  11  12
ATOM     12  C   UNL     1       7.174   4.826  17.006  0.00  0.00    +0.000 C 
ATOM     13  N   UNL     1       8.093   4.222  17.624  0.00  0.00    +0.000 NA
ENDBRANCH  11  12
ENDBRANCH  10  11
ENDBRANCH   8  10
ENDBRANCH   6   8
TORSDOF 4
ENDMDL
