MODEL 1
REMARK VINA RESULT:      -8.2      0.000      0.000
REMARK  Name = 
REMARK  5 active torsions:
REMARK  status: ('A' for Active; 'I' for Inactive)
REMARK    1  A    between atoms: C_1  and  C_2
REMARK    2  A    between atoms: C_2  and  C_3
REMARK    3  A    between atoms: C_3  and  C_4
REMARK    4  A    between atoms: C_4  and  C_5
REMARK    5  A    between atoms: C_10  and  C_12
REMARK                            x       y       z     vdW  Elec       q    Type
REMARK                         _______ _______ _______ _____ _____    ______ ____
ROOT
ATOM      1  C   UNL     1       6.529   5.677  17.783  0.00  0.00    +0.000 C 
ATOM      2  C   UNL     1       6.881   4.567  16.814  0.00  0.00    +0.000 C 
ATOM      3  O   UNL     1       7.857   4.499  16.089  0.00  0.00    +0.000 OA
ATOM      4  N   UNL     1       5.854   3.655  16.878  0.00  0.00    +0.000 N 
ATOM      5  N   UNL     1       5.010   3.889  17.969  0.00  0.00    +0.000 N 
ATOM      6  C   UNL     1       3.712   3.383  17.887  0.00  0.00    +0.000 C 
ATOM      7  O   UNL     1       3.208   2.993  16.836  0.00  0.00    +0.000 OA
ATOM      8  C   UNL     1       5.337   5.127  18.552  0.00  0.00    +0.000 C 
ATOM      9  O   UNL     1       4.815   5.675  19.513  0.00  0.00    +0.000 OA
ATOM     10  H   UNL     1       5.805   2.788  16.355  0.00  0.00    +0.000 HD
ENDROOT
BRANCH   6  11
ATOM     11  C   UNL     1       2.925   3.328  19.149  0.00  0.00    +0.000 A 
ATOM     12  C   UNL     1       1.676   3.957  19.209  0.00  0.00    +0.000 A 
ATOM     13  C   UNL     1       0.925   3.901  20.385  0.00  0.00    +0.000 A 
ATOM     14  C   UNL     1       1.413   3.209  21.494  0.00  0.00    +0.000 A 
ATOM     15  C   UNL     1       2.645   2.558  21.428  0.00  0.00    +0.000 A 
ATOM     16  C   UNL     1       3.395   2.608  20.255  0.00  0.00    +0.000 A 
ENDBRANCH   6  11
BRANCH   1  18
ATOM     17  C   UNL     1       4.998   6.710  15.949  0.00  0.00    +0.000 C 
ATOM     18  C   UNL     1       6.093   6.933  16.992  0.00  0.00    +0.000 C 
ENDBRANCH   1  18
BRANCH   1  19
ATOM     19  C   UNL     1       7.697   6.028  18.722  0.00  0.00    +0.000 C 
ATOM     20  C   UNL     1       8.254   7.441  18.561  0.00  0.00    +0.000 C 
ENDBRANCH   1  19
TORSDOF 3
ENDMDL
MODEL 2
REMARK VINA RESULT:      -8.2      0.071      1.112
REMARK  Name = 
REMARK  5 active torsions:
REMARK  status: ('A' for Active; 'I' for Inactive)
REMARK    1  A    between atoms: C_1  and  C_2
REMARK    2  A    between atoms: C_2  and  C_3
REMARK    3  A    between atoms: C_3  and  C_4
REMARK    4  A    between atoms: C_4  and  C_5
REMARK    5  A    between atoms: C_10  and  C_12
REMARK                            x       y       z     vdW  Elec       q    Type
REMARK                         _______ _______ _______ _____ _____    ______ ____
ROOT
ATOM      1  C   UNL     1       6.488   5.656  17.760  0.00  0.00    +0.000 C 
ATOM      2  C   UNL     1       6.819   4.548  16.781  0.00  0.00    +0.000 C 
ATOM      3  O   UNL     1       7.785   4.477  16.043  0.00  0.00    +0.000 OA
ATOM      4  N   UNL     1       5.785   3.645  16.851  0.00  0.00    +0.000 N 
ATOM      5  N   UNL     1       4.956   3.880  17.953  0.00  0.00    +0.000 N 
ATOM      6  C   UNL     1       3.652   3.385  17.884  0.00  0.00    +0.000 C 
ATOM      7  O   UNL     1       3.133   3.005  16.837  0.00  0.00    +0.000 OA
ATOM      8  C   UNL     1       5.300   5.110  18.541  0.00  0.00    +0.000 C 
ATOM      9  O   UNL     1       4.795   5.656  19.511  0.00  0.00    +0.000 OA
ATOM     10  H   UNL     1       5.722   2.782  16.323  0.00  0.00    +0.000 HD
ENDROOT
BRANCH   6  11
ATOM     11  C   UNL     1       2.880   3.328  19.155  0.00  0.00    +0.000 A 
ATOM     12  C   UNL     1       3.399   2.618  20.243  0.00  0.00    +0.000 A 
ATOM     13  C   UNL     1       2.687   2.568  21.444  0.00  0.00    +0.000 A 
ATOM     14  C   UNL     1       1.467   3.236  21.562  0.00  0.00    +0.000 A 
ATOM     15  C   UNL     1       0.961   3.966  20.487  0.00  0.00    +0.000 A 
ATOM     16  C   UNL     1       1.670   4.022  19.289  0.00  0.00    +0.000 A 
ENDBRANCH   6  11
BRANCH   1  18
ATOM     17  C   UNL     1       5.053   6.688  15.850  0.00  0.00    +0.000 C 
ATOM     18  C   UNL     1       6.053   6.920  16.983  0.00  0.00    +0.000 C 
ENDBRANCH   1  18
BRANCH   1  19
ATOM     19  C   UNL     1       7.670   5.991  18.687  0.00  0.00    +0.000 C 
ATOM     20  C   UNL     1       8.227   7.404  18.540  0.00  0.00    +0.000 C 
ENDBRANCH   1  19
TORSDOF 3
ENDMDL
MODEL 3
REMARK VINA RESULT:      -7.9      1.632      2.447
REMARK  Name = 
REMARK  5 active torsions:
REMARK  status: ('A' for Active; 'I' for Inactive)
REMARK    1  A    between atoms: C_1  and  C_2
REMARK    2  A    between atoms: C_2  and  C_3
REMARK    3  A    between atoms: C_3  and  C_4
REMARK    4  A    between atoms: C_4  and  C_5
REMARK    5  A    between atoms: C_10  and  C_12
REMARK                            x       y       z     vdW  Elec       q    Type
REMARK                         _______ _______ _______ _____ _____    ______ ____
ROOT
ATOM      1  C   UNL     1       5.733   4.614  16.372  0.00  0.00    +0.000 C 
ATOM      2  C   UNL     1       6.892   4.685  17.344  0.00  0.00    +0.000 C 
ATOM      3  O   UNL     1       8.018   5.092  17.124  0.00  0.00    +0.000 OA
ATOM      4  N   UNL     1       6.439   4.155  18.529  0.00  0.00    +0.000 N 
ATOM      5  N   UNL     1       5.048   4.002  18.539  0.00  0.00    +0.000 N 
ATOM      6  C   UNL     1       4.519   3.066  19.428  0.00  0.00    +0.000 C 
ATOM      7  O   UNL     1       5.201   2.209  19.987  0.00  0.00    +0.000 OA
ATOM      8  C   UNL     1       4.546   4.231  17.245  0.00  0.00    +0.000 C 
ATOM      9  O   UNL     1       3.387   4.178  16.860  0.00  0.00    +0.000 OA
ATOM     10  H   UNL     1       6.980   4.077  19.383  0.00  0.00    +0.000 HD
ENDROOT
BRANCH   6  11
ATOM     11  C   UNL     1       3.055   3.131  19.690  0.00  0.00    +0.000 A 
ATOM     12  C   UNL     1       2.529   4.229  20.380  0.00  0.00    +0.000 A 
ATOM     13  C   UNL     1       1.155   4.305  20.621  0.00  0.00    +0.000 A 
ATOM     14  C   UNL     1       0.308   3.295  20.163  0.00  0.00    +0.000 A 
ATOM     15  C   UNL     1       0.826   2.214  19.451  0.00  0.00    +0.000 A 
ATOM     16  C   UNL     1       2.196   2.136  19.205  0.00  0.00    +0.000 A 
ENDBRANCH   6  11
BRANCH   1  18
ATOM     17  C   UNL     1       6.195   3.957  13.896  0.00  0.00    +0.000 C 
ATOM     18  C   UNL     1       5.992   3.492  15.338  0.00  0.00    +0.000 C 
ENDBRANCH   1  18
BRANCH   1  19
ATOM     19  C   UNL     1       5.494   5.950  15.646  0.00  0.00    +0.000 C 
ATOM     20  C   UNL     1       5.041   7.101  16.541  0.00  0.00    +0.000 C 
ENDBRANCH   1  19
TORSDOF 3
ENDMDL
MODEL 4
REMARK VINA RESULT:      -7.9      1.637      2.490
REMARK  Name = 
REMARK  5 active torsions:
REMARK  status: ('A' for Active; 'I' for Inactive)
REMARK    1  A    between atoms: C_1  and  C_2
REMARK    2  A    between atoms: C_2  and  C_3
REMARK    3  A    between atoms: C_3  and  C_4
REMARK    4  A    between atoms: C_4  and  C_5
REMARK    5  A    between atoms: C_10  and  C_12
REMARK                            x       y       z     vdW  Elec       q    Type
REMARK                         _______ _______ _______ _____ _____    ______ ____
ROOT
ATOM      1  C   UNL     1       5.749   4.596  16.343  0.00  0.00    +0.000 C 
ATOM      2  C   UNL     1       6.908   4.655  17.316  0.00  0.00    +0.000 C 
ATOM      3  O   UNL     1       8.039   5.049  17.097  0.00  0.00    +0.000 OA
ATOM      4  N   UNL     1       6.448   4.132  18.502  0.00  0.00    +0.000 N 
ATOM      5  N   UNL     1       5.056   3.995  18.510  0.00  0.00    +0.000 N 
ATOM      6  C   UNL     1       4.515   3.065  19.400  0.00  0.00    +0.000 C 
ATOM      7  O   UNL     1       5.187   2.202  19.960  0.00  0.00    +0.000 OA
ATOM      8  C   UNL     1       4.557   4.227  17.216  0.00  0.00    +0.000 C 
ATOM      9  O   UNL     1       3.398   4.187  16.830  0.00  0.00    +0.000 OA
ATOM     10  H   UNL     1       6.988   4.049  19.356  0.00  0.00    +0.000 HD
ENDROOT
BRANCH   6  11
ATOM     11  C   UNL     1       3.052   3.148  19.661  0.00  0.00    +0.000 A 
ATOM     12  C   UNL     1       2.213   2.129  19.197  0.00  0.00    +0.000 A 
ATOM     13  C   UNL     1       0.839   2.193  19.447  0.00  0.00    +0.000 A 
ATOM     14  C   UNL     1       0.308   3.262  20.168  0.00  0.00    +0.000 A 
ATOM     15  C   UNL     1       1.147   4.265  20.654  0.00  0.00    +0.000 A 
ATOM     16  C   UNL     1       2.517   4.204  20.412  0.00  0.00    +0.000 A 
ENDBRANCH   6  11
BRANCH   1  18
ATOM     17  C   UNL     1       6.194   3.930  13.867  0.00  0.00    +0.000 C 
ATOM     18  C   UNL     1       5.996   3.470  15.311  0.00  0.00    +0.000 C 
ENDBRANCH   1  18
BRANCH   1  19
ATOM     19  C   UNL     1       5.526   5.934  15.615  0.00  0.00    +0.000 C 
ATOM     20  C   UNL     1       5.091   7.092  16.510  0.00  0.00    +0.000 C 
ENDBRANCH   1  19
TORSDOF 3
ENDMDL
MODEL 5
REMARK VINA RESULT:      -7.5      1.711      2.776
REMARK  Name = 
REMARK  5 active torsions:
REMARK  status: ('A' for Active; 'I' for Inactive)
REMARK    1  A    between atoms: C_1  and  C_2
REMARK    2  A    between atoms: C_2  and  C_3
REMARK    3  A    between atoms: C_3  and  C_4
REMARK    4  A    between atoms: C_4  and  C_5
REMARK    5  A    between atoms: C_10  and  C_12
REMARK                            x       y       z     vdW  Elec       q    Type
REMARK                         _______ _______ _______ _____ _____    ______ ____
ROOT
ATOM      1  C   UNL     1       6.432   5.443  17.851  0.00  0.00    +0.000 C 
ATOM      2  C   UNL     1       5.863   6.634  17.107  0.00  0.00    +0.000 C 
ATOM      3  O   UNL     1       6.433   7.341  16.296  0.00  0.00    +0.000 OA
ATOM      4  N   UNL     1       4.574   6.795  17.559  0.00  0.00    +0.000 N 
ATOM      5  N   UNL     1       4.135   5.693  18.300  0.00  0.00    +0.000 N 
ATOM      6  C   UNL     1       3.087   5.908  19.197  0.00  0.00    +0.000 C 
ATOM      7  O   UNL     1       2.727   7.028  19.553  0.00  0.00    +0.000 OA
ATOM      8  C   UNL     1       5.223   4.837  18.550  0.00  0.00    +0.000 C 
ATOM      9  O   UNL     1       5.233   3.785  19.172  0.00  0.00    +0.000 OA
ATOM     10  H   UNL     1       3.924   7.504  17.238  0.00  0.00    +0.000 HD
ENDROOT
BRANCH   6  11
ATOM     11  C   UNL     1       2.395   4.704  19.731  0.00  0.00    +0.000 A 
ATOM     12  C   UNL     1       2.469   4.419  21.099  0.00  0.00    +0.000 A 
ATOM     13  C   UNL     1       1.813   3.297  21.612  0.00  0.00    +0.000 A 
ATOM     14  C   UNL     1       1.075   2.470  20.764  0.00  0.00    +0.000 A 
ATOM     15  C   UNL     1       0.978   2.767  19.405  0.00  0.00    +0.000 A 
ATOM     16  C   UNL     1       1.627   3.887  18.890  0.00  0.00    +0.000 A 
ENDBRANCH   6  11
BRANCH   1  18
ATOM     17  C   UNL     1       8.184   7.227  18.572  0.00  0.00    +0.000 C 
ATOM     18  C   UNL     1       7.446   5.932  18.912  0.00  0.00    +0.000 C 
ENDBRANCH   1  18
BRANCH   1  19
ATOM     19  C   UNL     1       7.107   4.431  16.908  0.00  0.00    +0.000 C 
ATOM     20  C   UNL     1       6.247   3.967  15.735  0.00  0.00    +0.000 C 
ENDBRANCH   1  19
TORSDOF 3
ENDMDL
MODEL 6
REMARK VINA RESULT:      -7.4      1.716      2.733
REMARK  Name = 
REMARK  5 active torsions:
REMARK  status: ('A' for Active; 'I' for Inactive)
REMARK    1  A    between atoms: C_1  and  C_2
REMARK    2  A    between atoms: C_2  and  C_3
REMARK    3  A    between atoms: C_3  and  C_4
REMARK    4  A    between atoms: C_4  and  C_5
REMARK    5  A    between atoms: C_10  and  C_12
REMARK                            x       y       z     vdW  Elec       q    Type
REMARK                         _______ _______ _______ _____ _____    ______ ____
ROOT
ATOM      1  C   UNL     1       6.425   5.431  17.873  0.00  0.00    +0.000 C 
ATOM      2  C   UNL     1       5.978   6.695  17.170  0.00  0.00    +0.000 C 
ATOM      3  O   UNL     1       6.650   7.429  16.468  0.00  0.00    +0.000 OA
ATOM      4  N   UNL     1       4.659   6.885  17.512  0.00  0.00    +0.000 N 
ATOM      5  N   UNL     1       4.108   5.756  18.126  0.00  0.00    +0.000 N 
ATOM      6  C   UNL     1       2.989   5.958  18.937  0.00  0.00    +0.000 C 
ATOM      7  O   UNL     1       2.642   7.066  19.339  0.00  0.00    +0.000 OA
ATOM      8  C   UNL     1       5.132   4.835  18.413  0.00  0.00    +0.000 C 
ATOM      9  O   UNL     1       5.041   3.743  18.955  0.00  0.00    +0.000 OA
ATOM     10  H   UNL     1       4.071   7.644  17.185  0.00  0.00    +0.000 HD
ENDROOT
BRANCH   6  11
ATOM     11  C   UNL     1       2.201   4.753  19.315  0.00  0.00    +0.000 A 
ATOM     12  C   UNL     1       1.642   3.954  18.312  0.00  0.00    +0.000 A 
ATOM     13  C   UNL     1       0.910   2.815  18.658  0.00  0.00    +0.000 A 
ATOM     14  C   UNL     1       0.748   2.469  20.000  0.00  0.00    +0.000 A 
ATOM     15  C   UNL     1       1.328   3.249  21.001  0.00  0.00    +0.000 A 
ATOM     16  C   UNL     1       2.062   4.383  20.660  0.00  0.00    +0.000 A 
ENDBRANCH   6  11
BRANCH   1  18
ATOM     17  C   UNL     1       8.265   7.003  18.830  0.00  0.00    +0.000 C 
ATOM     18  C   UNL     1       7.352   5.797  19.056  0.00  0.00    +0.000 C 
ENDBRANCH   1  18
BRANCH   1  19
ATOM     19  C   UNL     1       7.146   4.456  16.925  0.00  0.00    +0.000 C 
ATOM     20  C   UNL     1       6.346   4.043  15.692  0.00  0.00    +0.000 C 
ENDBRANCH   1  19
TORSDOF 3
ENDMDL
MODEL 7
REMARK VINA RESULT:      -7.3      0.640      1.009
REMARK  Name = 
REMARK  5 active torsions:
REMARK  status: ('A' for Active; 'I' for Inactive)
REMARK    1  A    between atoms: C_1  and  C_2
REMARK    2  A    between atoms: C_2  and  C_3
REMARK    3  A    between atoms: C_3  and  C_4
REMARK    4  A    between atoms: C_4  and  C_5
REMARK    5  A    between atoms: C_10  and  C_12
REMARK                            x       y       z     vdW  Elec       q    Type
REMARK                         _______ _______ _______ _____ _____    ______ ____
ROOT
ATOM      1  C   UNL     1       6.779   5.641  17.805  0.00  0.00    +0.000 C 
ATOM      2  C   UNL     1       6.931   4.640  16.678  0.00  0.00    +0.000 C 
ATOM      3  O   UNL     1       7.846   4.559  15.879  0.00  0.00    +0.000 OA
ATOM      4  N   UNL     1       5.804   3.853  16.703  0.00  0.00    +0.000 N 
ATOM      5  N   UNL     1       5.062   4.033  17.875  0.00  0.00    +0.000 N 
ATOM      6  C   UNL     1       3.708   3.696  17.827  0.00  0.00    +0.000 C 
ATOM      7  O   UNL     1       3.098   3.513  16.776  0.00  0.00    +0.000 OA
ATOM      8  C   UNL     1       5.575   5.133  18.586  0.00  0.00    +0.000 C 
ATOM      9  O   UNL     1       5.184   5.601  19.645  0.00  0.00    +0.000 OA
ATOM     10  H   UNL     1       5.616   3.077  16.078  0.00  0.00    +0.000 HD
ENDROOT
BRANCH   6  11
ATOM     11  C   UNL     1       2.998   3.560  19.128  0.00  0.00    +0.000 A 
ATOM     12  C   UNL     1       1.830   4.297  19.353  0.00  0.00    +0.000 A 
ATOM     13  C   UNL     1       1.149   4.169  20.566  0.00  0.00    +0.000 A 
ATOM     14  C   UNL     1       1.626   3.297  21.546  0.00  0.00    +0.000 A 
ATOM     15  C   UNL     1       2.775   2.541  21.314  0.00  0.00    +0.000 A 
ATOM     16  C   UNL     1       3.454   2.664  20.103  0.00  0.00    +0.000 A 
ENDBRANCH   6  11
BRANCH   1  18
ATOM     17  C   UNL     1       7.494   8.124  17.491  0.00  0.00    +0.000 C 
ATOM     18  C   UNL     1       6.456   7.035  17.217  0.00  0.00    +0.000 C 
ENDBRANCH   1  18
BRANCH   1  19
ATOM     19  C   UNL     1       8.035   5.724  18.690  0.00  0.00    +0.000 C 
ATOM     20  C   UNL     1       7.814   5.381  20.161  0.00  0.00    +0.000 C 
ENDBRANCH   1  19
TORSDOF 3
ENDMDL
MODEL 8
REMARK VINA RESULT:      -7.3      1.843      2.856
REMARK  Name = 
REMARK  5 active torsions:
REMARK  status: ('A' for Active; 'I' for Inactive)
REMARK    1  A    between atoms: C_1  and  C_2
REMARK    2  A    between atoms: C_2  and  C_3
REMARK    3  A    between atoms: C_3  and  C_4
REMARK    4  A    between atoms: C_4  and  C_5
REMARK    5  A    between atoms: C_10  and  C_12
REMARK                            x       y       z     vdW  Elec       q    Type
REMARK                         _______ _______ _______ _____ _____    ______ ____
ROOT
ATOM      1  C   UNL     1       5.529   5.000  16.578  0.00  0.00    +0.000 C 
ATOM      2  C   UNL     1       4.963   6.330  16.126  0.00  0.00    +0.000 C 
ATOM      3  O   UNL     1       5.330   7.008  15.184  0.00  0.00    +0.000 OA
ATOM      4  N   UNL     1       3.968   6.654  17.019  0.00  0.00    +0.000 N 
ATOM      5  N   UNL     1       3.624   5.572  17.836  0.00  0.00    +0.000 N 
ATOM      6  C   UNL     1       3.017   5.868  19.058  0.00  0.00    +0.000 C 
ATOM      7  O   UNL     1       3.017   6.993  19.553  0.00  0.00    +0.000 OA
ATOM      8  C   UNL     1       4.554   4.533  17.651  0.00  0.00    +0.000 C 
ATOM      9  O   UNL     1       4.590   3.440  18.196  0.00  0.00    +0.000 OA
ATOM     10  H   UNL     1       3.388   7.484  16.976  0.00  0.00    +0.000 HD
ENDROOT
BRANCH   6  11
ATOM     11  C   UNL     1       2.349   4.747  19.773  0.00  0.00    +0.000 A 
ATOM     12  C   UNL     1       1.379   3.989  19.108  0.00  0.00    +0.000 A 
ATOM     13  C   UNL     1       0.754   2.927  19.766  0.00  0.00    +0.000 A 
ATOM     14  C   UNL     1       1.106   2.615  21.080  0.00  0.00    +0.000 A 
ATOM     15  C   UNL     1       2.092   3.351  21.736  0.00  0.00    +0.000 A 
ATOM     16  C   UNL     1       2.721   4.408  21.081  0.00  0.00    +0.000 A 
ENDBRANCH   6  11
BRANCH   1  18
ATOM     17  C   UNL     1       6.926   5.916  18.573  0.00  0.00    +0.000 C 
ATOM     18  C   UNL     1       6.922   5.219  17.212  0.00  0.00    +0.000 C 
ENDBRANCH   1  18
BRANCH   1  19
ATOM     19  C   UNL     1       5.631   3.984  15.426  0.00  0.00    +0.000 C 
ATOM     20  C   UNL     1       6.750   4.255  14.423  0.00  0.00    +0.000 C 
ENDBRANCH   1  19
TORSDOF 3
ENDMDL
MODEL 9
REMARK VINA RESULT:      -7.3      1.834      2.985
REMARK  Name = 
REMARK  5 active torsions:
REMARK  status: ('A' for Active; 'I' for Inactive)
REMARK    1  A    between atoms: C_1  and  C_2
REMARK    2  A    between atoms: C_2  and  C_3
REMARK    3  A    between atoms: C_3  and  C_4
REMARK    4  A    between atoms: C_4  and  C_5
REMARK    5  A    between atoms: C_10  and  C_12
REMARK                            x       y       z     vdW  Elec       q    Type
REMARK                         _______ _______ _______ _____ _____    ______ ____
ROOT
ATOM      1  C   UNL     1       5.542   4.950  16.533  0.00  0.00    +0.000 C 
ATOM      2  C   UNL     1       4.984   6.289  16.097  0.00  0.00    +0.000 C 
ATOM      3  O   UNL     1       5.351   6.973  15.158  0.00  0.00    +0.000 OA
ATOM      4  N   UNL     1       3.999   6.613  17.000  0.00  0.00    +0.000 N 
ATOM      5  N   UNL     1       3.651   5.528  17.810  0.00  0.00    +0.000 N 
ATOM      6  C   UNL     1       3.056   5.817  19.039  0.00  0.00    +0.000 C 
ATOM      7  O   UNL     1       3.069   6.938  19.544  0.00  0.00    +0.000 OA
ATOM      8  C   UNL     1       4.571   4.482  17.608  0.00  0.00    +0.000 C 
ATOM      9  O   UNL     1       4.601   3.384  18.143  0.00  0.00    +0.000 OA
ATOM     10  H   UNL     1       3.426   7.449  16.969  0.00  0.00    +0.000 HD
ENDROOT
BRANCH   6  11
ATOM     11  C   UNL     1       2.383   4.695  19.748  0.00  0.00    +0.000 A 
ATOM     12  C   UNL     1       2.735   4.408  21.071  0.00  0.00    +0.000 A 
ATOM     13  C   UNL     1       2.101   3.364  21.749  0.00  0.00    +0.000 A 
ATOM     14  C   UNL     1       1.110   2.617  21.111  0.00  0.00    +0.000 A 
ATOM     15  C   UNL     1       0.738   2.918  19.801  0.00  0.00    +0.000 A 
ATOM     16  C   UNL     1       1.365   3.962  19.124  0.00  0.00    +0.000 A 
ENDBRANCH   6  11
BRANCH   1  18
ATOM     17  C   UNL     1       7.004   6.121  18.339  0.00  0.00    +0.000 C 
ATOM     18  C   UNL     1       6.942   5.151  17.159  0.00  0.00    +0.000 C 
ENDBRANCH   1  18
BRANCH   1  19
ATOM     19  C   UNL     1       5.627   3.944  15.370  0.00  0.00    +0.000 C 
ATOM     20  C   UNL     1       6.704   4.246  14.332  0.00  0.00    +0.000 C 
ENDBRANCH   1  19
TORSDOF 3
ENDMDL
