MODEL 1
REMARK VINA RESULT:      -8.5      0.000      0.000
REMARK  Name = 
REMARK  10 active torsions:
REMARK  status: ('A' for Active; 'I' for Inactive)
REMARK    1  A    between atoms: C_1  and  C_2
REMARK    2  A    between atoms: C_5  and  C_6
REMARK    3  A    between atoms: C_6  and  S_7
REMARK    4  A    between atoms: S_7  and  C_8
REMARK    5  A    between atoms: C_8  and  C_20
REMARK    6  A    between atoms: C_9  and  C_10
REMARK    7  A    between atoms: C_15  and  N_16
REMARK    8  A    between atoms: C_20  and  C_22
REMARK    9  A    between atoms: C_25  and  C_26
REMARK   10  A    between atoms: C_26  and  O_28
REMARK                            x       y       z     vdW  Elec       q    Type
REMARK                         _______ _______ _______ _____ _____    ______ ____
ROOT
ATOM      1  C   UNL     1       6.677   6.567  17.843  0.00  0.00    +0.000 C 
ATOM      2  C   UNL     1       5.466   6.643  18.436  0.00  0.00    +0.000 C 
ENDROOT
BRANCH   2   3
ATOM      3  C   UNL     1       4.492   5.551  18.601  0.00  0.00    +0.000 A 
ATOM      4  C   UNL     1       3.352   5.569  17.779  0.00  0.00    +0.000 A 
ATOM      5  C   UNL     1       2.384   4.561  17.858  0.00  0.00    +0.000 A 
ATOM      6  C   UNL     1       2.542   3.510  18.757  0.00  0.00    +0.000 A 
ATOM      7 CL   UNL     1       1.295   2.317  18.823  0.00  0.00    +0.000 Cl
ATOM      8  C   UNL     1       3.675   3.495  19.573  0.00  0.00    +0.000 A 
ATOM      9  C   UNL     1       4.650   4.510  19.520  0.00  0.00    +0.000 A 
BRANCH   8  10
ATOM     10  N   UNL     1       3.876   2.414  20.511  0.00  0.00    +0.000 N 
ATOM     11  O   UNL     1       4.806   1.630  20.289  0.00  0.00    +0.000 OA
ATOM     12  O   UNL     1       3.125   2.384  21.496  0.00  0.00    +0.000 OA
ENDBRANCH   8  10
ENDBRANCH   2   3
BRANCH   1  13
ATOM     13  C   UNL     1       7.236   5.252  17.331  0.00  0.00    +0.000 C 
ATOM     14  O   UNL     1       8.012   4.569  18.000  0.00  0.00    +0.000 OA
BRANCH  13  15
ATOM     15  C   UNL     1       6.828   4.736  15.985  0.00  0.00    +0.000 A 
ATOM     16  C   UNL     1       7.447   5.158  14.803  0.00  0.00    +0.000 A 
ATOM     17  C   UNL     1       7.035   4.644  13.568  0.00  0.00    +0.000 A 
ATOM     18  C   UNL     1       6.023   3.678  13.498  0.00  0.00    +0.000 A 
ATOM     19  C   UNL     1       5.426   3.223  14.679  0.00  0.00    +0.000 A 
ATOM     20  C   UNL     1       5.825   3.756  15.916  0.00  0.00    +0.000 A 
BRANCH  18  21
ATOM     21  C   UNL     1       5.695   3.127  12.155  0.00  0.00    +0.000 C 
ATOM     22  O   UNL     1       4.692   3.453  11.543  0.00  0.00    +0.000 OA
BRANCH  21  23
ATOM     23  O   UNL     1       6.572   2.217  11.687  0.00  0.00    +0.000 OA
ATOM     24  H   UNL     1       6.927   1.593  12.343  0.00  0.00    +0.000 HD
ENDBRANCH  21  23
ENDBRANCH  18  21
ENDBRANCH  13  15
ENDBRANCH   1  13
BRANCH   1  25
ATOM     25  S   UNL     1       7.537   7.998  17.310  0.00  0.00    +0.000 S 
BRANCH  25  26
ATOM     26  C   UNL     1       8.581   8.507  18.704  0.00  0.00    +0.000 C 
BRANCH  26  31
ATOM     27  C   UNL     1       9.846  14.196  18.250  0.00  0.00    +0.000 C 
ATOM     28  C   UNL     1       9.508  12.738  18.375  0.00  0.00    +0.000 A 
ATOM     29  C   UNL     1       8.513  12.161  17.581  0.00  0.00    +0.000 A 
ATOM     30  C   UNL     1       8.209  10.801  17.701  0.00  0.00    +0.000 A 
ATOM     31  C   UNL     1       8.893   9.988  18.618  0.00  0.00    +0.000 A 
ATOM     32  C   UNL     1       9.893  10.569  19.408  0.00  0.00    +0.000 A 
ATOM     33  C   UNL     1      10.195  11.932  19.290  0.00  0.00    +0.000 A 
ENDBRANCH  26  31
ENDBRANCH  25  26
ENDBRANCH   1  25
TORSDOF 9
ENDMDL
MODEL 2
REMARK VINA RESULT:      -8.5      0.096      1.018
REMARK  Name = 
REMARK  10 active torsions:
REMARK  status: ('A' for Active; 'I' for Inactive)
REMARK    1  A    between atoms: C_1  and  C_2
REMARK    2  A    between atoms: C_5  and  C_6
REMARK    3  A    between atoms: C_6  and  S_7
REMARK    4  A    between atoms: S_7  and  C_8
REMARK    5  A    between atoms: C_8  and  C_20
REMARK    6  A    between atoms: C_9  and  C_10
REMARK    7  A    between atoms: C_15  and  N_16
REMARK    8  A    between atoms: C_20  and  C_22
REMARK    9  A    between atoms: C_25  and  C_26
REMARK   10  A    between atoms: C_26  and  O_28
REMARK                            x       y       z     vdW  Elec       q    Type
REMARK                         _______ _______ _______ _____ _____    ______ ____
ROOT
ATOM      1  C   UNL     1       6.758   6.580  17.803  0.00  0.00    +0.000 C 
ATOM      2  C   UNL     1       5.546   6.678  18.392  0.00  0.00    +0.000 C 
ENDROOT
BRANCH   2   3
ATOM      3  C   UNL     1       4.550   5.605  18.549  0.00  0.00    +0.000 A 
ATOM      4  C   UNL     1       3.433   5.626  17.696  0.00  0.00    +0.000 A 
ATOM      5  C   UNL     1       2.447   4.636  17.767  0.00  0.00    +0.000 A 
ATOM      6  C   UNL     1       2.562   3.599  18.689  0.00  0.00    +0.000 A 
ATOM      7 CL   UNL     1       1.294   2.428  18.742  0.00  0.00    +0.000 Cl
ATOM      8  C   UNL     1       3.672   3.581  19.536  0.00  0.00    +0.000 A 
ATOM      9  C   UNL     1       4.666   4.579  19.491  0.00  0.00    +0.000 A 
BRANCH   8  10
ATOM     10  N   UNL     1       3.829   2.515  20.499  0.00  0.00    +0.000 N 
ATOM     11  O   UNL     1       2.991   2.436  21.406  0.00  0.00    +0.000 OA
ATOM     12  O   UNL     1       4.769   1.730  20.313  0.00  0.00    +0.000 OA
ENDBRANCH   8  10
ENDBRANCH   2   3
BRANCH   1  13
ATOM     13  C   UNL     1       7.292   5.255  17.288  0.00  0.00    +0.000 C 
ATOM     14  O   UNL     1       8.063   4.561  17.951  0.00  0.00    +0.000 OA
BRANCH  13  15
ATOM     15  C   UNL     1       6.864   4.742  15.947  0.00  0.00    +0.000 A 
ATOM     16  C   UNL     1       7.477   5.153  14.758  0.00  0.00    +0.000 A 
ATOM     17  C   UNL     1       7.046   4.643  13.529  0.00  0.00    +0.000 A 
ATOM     18  C   UNL     1       6.020   3.692  13.470  0.00  0.00    +0.000 A 
ATOM     19  C   UNL     1       5.427   3.248  14.658  0.00  0.00    +0.000 A 
ATOM     20  C   UNL     1       5.846   3.777  15.889  0.00  0.00    +0.000 A 
BRANCH  18  21
ATOM     21  C   UNL     1       5.671   3.144  12.131  0.00  0.00    +0.000 C 
ATOM     22  O   UNL     1       4.637   3.436  11.556  0.00  0.00    +0.000 OA
BRANCH  21  23
ATOM     23  O   UNL     1       6.568   2.274  11.624  0.00  0.00    +0.000 OA
ATOM     24  H   UNL     1       6.903   1.601  12.242  0.00  0.00    +0.000 HD
ENDBRANCH  21  23
ENDBRANCH  18  21
ENDBRANCH  13  15
ENDBRANCH   1  13
BRANCH   1  25
ATOM     25  S   UNL     1       7.648   7.994  17.277  0.00  0.00    +0.000 S 
BRANCH  25  26
ATOM     26  C   UNL     1       8.551   8.591  18.734  0.00  0.00    +0.000 C 
BRANCH  26  31
ATOM     27  C   UNL     1       9.908  14.253  18.210  0.00  0.00    +0.000 C 
ATOM     28  C   UNL     1       9.572  12.795  18.335  0.00  0.00    +0.000 A 
ATOM     29  C   UNL     1      10.294  11.963  19.195  0.00  0.00    +0.000 A 
ATOM     30  C   UNL     1       9.970  10.607  19.310  0.00  0.00    +0.000 A 
ATOM     31  C   UNL     1       8.917  10.053  18.566  0.00  0.00    +0.000 A 
ATOM     32  C   UNL     1       8.192  10.891  17.709  0.00  0.00    +0.000 A 
ATOM     33  C   UNL     1       8.519  12.248  17.592  0.00  0.00    +0.000 A 
ENDBRANCH  26  31
ENDBRANCH  25  26
ENDBRANCH   1  25
TORSDOF 9
ENDMDL
MODEL 3
REMARK VINA RESULT:      -7.9      0.869      1.563
REMARK  Name = 
REMARK  10 active torsions:
REMARK  status: ('A' for Active; 'I' for Inactive)
REMARK    1  A    between atoms: C_1  and  C_2
REMARK    2  A    between atoms: C_5  and  C_6
REMARK    3  A    between atoms: C_6  and  S_7
REMARK    4  A    between atoms: S_7  and  C_8
REMARK    5  A    between atoms: C_8  and  C_20
REMARK    6  A    between atoms: C_9  and  C_10
REMARK    7  A    between atoms: C_15  and  N_16
REMARK    8  A    between atoms: C_20  and  C_22
REMARK    9  A    between atoms: C_25  and  C_26
REMARK   10  A    between atoms: C_26  and  O_28
REMARK                            x       y       z     vdW  Elec       q    Type
REMARK                         _______ _______ _______ _____ _____    ______ ____
ROOT
ATOM      1  C   UNL     1       6.942   6.551  17.747  0.00  0.00    +0.000 C 
ATOM      2  C   UNL     1       5.732   6.817  18.287  0.00  0.00    +0.000 C 
ENDROOT
BRANCH   2   3
ATOM      3  C   UNL     1       4.613   5.875  18.455  0.00  0.00    +0.000 A 
ATOM      4  C   UNL     1       3.417   6.160  17.773  0.00  0.00    +0.000 A 
ATOM      5  C   UNL     1       2.309   5.310  17.865  0.00  0.00    +0.000 A 
ATOM      6  C   UNL     1       2.379   4.151  18.635  0.00  0.00    +0.000 A 
ATOM      7 CL   UNL     1       0.965   3.164  18.726  0.00  0.00    +0.000 Cl
ATOM      8  C   UNL     1       3.568   3.872  19.311  0.00  0.00    +0.000 A 
ATOM      9  C   UNL     1       4.687   4.725  19.246  0.00  0.00    +0.000 A 
BRANCH   8  10
ATOM     10  N   UNL     1       3.678   2.673  20.112  0.00  0.00    +0.000 N 
ATOM     11  O   UNL     1       3.161   2.688  21.236  0.00  0.00    +0.000 OA
ATOM     12  O   UNL     1       4.245   1.704  19.589  0.00  0.00    +0.000 OA
ENDBRANCH   8  10
ENDBRANCH   2   3
BRANCH   1  13
ATOM     13  C   UNL     1       7.333   5.151  17.311  0.00  0.00    +0.000 C 
ATOM     14  O   UNL     1       8.025   4.417  18.018  0.00  0.00    +0.000 OA
BRANCH  13  15
ATOM     15  C   UNL     1       6.856   4.612  15.997  0.00  0.00    +0.000 A 
ATOM     16  C   UNL     1       5.783   3.720  15.898  0.00  0.00    +0.000 A 
ATOM     17  C   UNL     1       5.370   3.248  14.648  0.00  0.00    +0.000 A 
ATOM     18  C   UNL     1       6.000   3.684  13.475  0.00  0.00    +0.000 A 
ATOM     19  C   UNL     1       7.049   4.606  13.563  0.00  0.00    +0.000 A 
ATOM     20  C   UNL     1       7.477   5.062  14.820  0.00  0.00    +0.000 A 
BRANCH  18  21
ATOM     21  C   UNL     1       5.453   3.194  12.181  0.00  0.00    +0.000 C 
ATOM     22  O   UNL     1       4.531   3.751  11.610  0.00  0.00    +0.000 OA
BRANCH  21  23
ATOM     23  O   UNL     1       6.031   2.070  11.711  0.00  0.00    +0.000 OA
ATOM     24  H   UNL     1       6.912   1.864  12.069  0.00  0.00    +0.000 HD
ENDBRANCH  21  23
ENDBRANCH  18  21
ENDBRANCH  13  15
ENDBRANCH   1  13
BRANCH   1  25
ATOM     25  S   UNL     1       8.007   7.827  17.193  0.00  0.00    +0.000 S 
BRANCH  25  26
ATOM     26  C   UNL     1       7.538   9.314  18.122  0.00  0.00    +0.000 C 
BRANCH  26  31
ATOM     27  C   UNL     1      12.217  12.433  19.719  0.00  0.00    +0.000 C 
ATOM     28  C   UNL     1      11.024  11.619  19.310  0.00  0.00    +0.000 A 
ATOM     29  C   UNL     1      10.251  10.950  20.263  0.00  0.00    +0.000 A 
ATOM     30  C   UNL     1       9.137  10.198  19.874  0.00  0.00    +0.000 A 
ATOM     31  C   UNL     1       8.773  10.098  18.523  0.00  0.00    +0.000 A 
ATOM     32  C   UNL     1       9.547  10.774  17.570  0.00  0.00    +0.000 A 
ATOM     33  C   UNL     1      10.664  11.524  17.961  0.00  0.00    +0.000 A 
ENDBRANCH  26  31
ENDBRANCH  25  26
ENDBRANCH   1  25
TORSDOF 9
ENDMDL
MODEL 4
REMARK VINA RESULT:      -7.7      0.616      1.141
REMARK  Name = 
REMARK  10 active torsions:
REMARK  status: ('A' for Active; 'I' for Inactive)
REMARK    1  A    between atoms: C_1  and  C_2
REMARK    2  A    between atoms: C_5  and  C_6
REMARK    3  A    between atoms: C_6  and  S_7
REMARK    4  A    between atoms: S_7  and  C_8
REMARK    5  A    between atoms: C_8  and  C_20
REMARK    6  A    between atoms: C_9  and  C_10
REMARK    7  A    between atoms: C_15  and  N_16
REMARK    8  A    between atoms: C_20  and  C_22
REMARK    9  A    between atoms: C_25  and  C_26
REMARK   10  A    between atoms: C_26  and  O_28
REMARK                            x       y       z     vdW  Elec       q    Type
REMARK                         _______ _______ _______ _____ _____    ______ ____
ROOT
ATOM      1  C   UNL     1       6.937   6.497  17.797  0.00  0.00    +0.000 C 
ATOM      2  C   UNL     1       5.727   6.758  18.339  0.00  0.00    +0.000 C 
ENDROOT
BRANCH   2   3
ATOM      3  C   UNL     1       4.609   5.813  18.500  0.00  0.00    +0.000 A 
ATOM      4  C   UNL     1       3.447   6.049  17.745  0.00  0.00    +0.000 A 
ATOM      5  C   UNL     1       2.343   5.193  17.825  0.00  0.00    +0.000 A 
ATOM      6  C   UNL     1       2.383   4.077  18.657  0.00  0.00    +0.000 A 
ATOM      7 CL   UNL     1       0.975   3.080  18.730  0.00  0.00    +0.000 Cl
ATOM      8  C   UNL     1       3.538   3.846  19.407  0.00  0.00    +0.000 A 
ATOM      9  C   UNL     1       4.651   4.707  19.353  0.00  0.00    +0.000 A 
BRANCH   8  10
ATOM     10  N   UNL     1       3.617   2.693  20.274  0.00  0.00    +0.000 N 
ATOM     11  O   UNL     1       4.384   1.780  19.942  0.00  0.00    +0.000 OA
ATOM     12  O   UNL     1       2.943   2.729  21.313  0.00  0.00    +0.000 OA
ENDBRANCH   8  10
ENDBRANCH   2   3
BRANCH   1  13
ATOM     13  C   UNL     1       7.329   5.101  17.349  0.00  0.00    +0.000 C 
ATOM     14  O   UNL     1       8.014   4.359  18.053  0.00  0.00    +0.000 OA
BRANCH  13  15
ATOM     15  C   UNL     1       6.860   4.577  16.026  0.00  0.00    +0.000 A 
ATOM     16  C   UNL     1       5.766   3.713  15.908  0.00  0.00    +0.000 A 
ATOM     17  C   UNL     1       5.362   3.253  14.649  0.00  0.00    +0.000 A 
ATOM     18  C   UNL     1       6.022   3.675  13.488  0.00  0.00    +0.000 A 
ATOM     19  C   UNL     1       7.093   4.570  13.596  0.00  0.00    +0.000 A 
ATOM     20  C   UNL     1       7.512   5.013  14.861  0.00  0.00    +0.000 A 
BRANCH  18  21
ATOM     21  C   UNL     1       5.485   3.201  12.184  0.00  0.00    +0.000 C 
ATOM     22  O   UNL     1       4.503   3.702  11.663  0.00  0.00    +0.000 OA
BRANCH  21  23
ATOM     23  O   UNL     1       6.145   2.157  11.645  0.00  0.00    +0.000 OA
ATOM     24  H   UNL     1       7.004   1.944  12.049  0.00  0.00    +0.000 HD
ENDBRANCH  21  23
ENDBRANCH  18  21
ENDBRANCH  13  15
ENDBRANCH   1  13
BRANCH   1  25
ATOM     25  S   UNL     1       8.001   7.779  17.253  0.00  0.00    +0.000 S 
BRANCH  25  26
ATOM     26  C   UNL     1       7.271   9.329  17.851  0.00  0.00    +0.000 C 
BRANCH  26  31
ATOM     27  C   UNL     1      11.533  13.025  19.382  0.00  0.00    +0.000 C 
ATOM     28  C   UNL     1      10.428  12.083  18.997  0.00  0.00    +0.000 A 
ATOM     29  C   UNL     1       9.520  12.417  17.988  0.00  0.00    +0.000 A 
ATOM     30  C   UNL     1       8.497  11.533  17.632  0.00  0.00    +0.000 A 
ATOM     31  C   UNL     1       8.358  10.295  18.278  0.00  0.00    +0.000 A 
ATOM     32  C   UNL     1       9.273   9.962  19.286  0.00  0.00    +0.000 A 
ATOM     33  C   UNL     1      10.296  10.849  19.644  0.00  0.00    +0.000 A 
ENDBRANCH  26  31
ENDBRANCH  25  26
ENDBRANCH   1  25
TORSDOF 9
ENDMDL
MODEL 5
REMARK VINA RESULT:      -7.7      9.288     11.751
REMARK  Name = 
REMARK  10 active torsions:
REMARK  status: ('A' for Active; 'I' for Inactive)
REMARK    1  A    between atoms: C_1  and  C_2
REMARK    2  A    between atoms: C_5  and  C_6
REMARK    3  A    between atoms: C_6  and  S_7
REMARK    4  A    between atoms: S_7  and  C_8
REMARK    5  A    between atoms: C_8  and  C_20
REMARK    6  A    between atoms: C_9  and  C_10
REMARK    7  A    between atoms: C_15  and  N_16
REMARK    8  A    between atoms: C_20  and  C_22
REMARK    9  A    between atoms: C_25  and  C_26
REMARK   10  A    between atoms: C_26  and  O_28
REMARK                            x       y       z     vdW  Elec       q    Type
REMARK                         _______ _______ _______ _____ _____    ______ ____
ROOT
ATOM      1  C   UNL     1      -0.048  10.688  20.233  0.00  0.00    +0.000 C 
ATOM      2  C   UNL     1      -0.217  10.796  21.569  0.00  0.00    +0.000 C 
ENDROOT
BRANCH   2   3
ATOM      3  C   UNL     1      -0.959  11.849  22.284  0.00  0.00    +0.000 A 
ATOM      4  C   UNL     1      -0.350  13.111  22.393  0.00  0.00    +0.000 A 
ATOM      5  C   UNL     1      -0.991  14.173  23.042  0.00  0.00    +0.000 A 
ATOM      6  C   UNL     1      -2.259  13.993  23.589  0.00  0.00    +0.000 A 
ATOM      7 CL   UNL     1      -2.979  15.337  24.401  0.00  0.00    +0.000 Cl
ATOM      8  C   UNL     1      -2.860  12.738  23.480  0.00  0.00    +0.000 A 
ATOM      9  C   UNL     1      -2.223  11.654  22.846  0.00  0.00    +0.000 A 
BRANCH   8  10
ATOM     10  N   UNL     1      -4.180  12.519  24.028  0.00  0.00    +0.000 N 
ATOM     11  O   UNL     1      -5.131  12.498  23.237  0.00  0.00    +0.000 OA
ATOM     12  O   UNL     1      -4.250  12.323  25.249  0.00  0.00    +0.000 OA
ENDBRANCH   8  10
ENDBRANCH   2   3
BRANCH   1  13
ATOM     13  C   UNL     1      -0.717  11.645  19.262  0.00  0.00    +0.000 C 
ATOM     14  O   UNL     1      -0.086  12.525  18.675  0.00  0.00    +0.000 OA
BRANCH  13  15
ATOM     15  C   UNL     1      -2.182  11.521  18.975  0.00  0.00    +0.000 A 
ATOM     16  C   UNL     1      -3.133  12.364  19.562  0.00  0.00    +0.000 A 
ATOM     17  C   UNL     1      -4.491  12.213  19.259  0.00  0.00    +0.000 A 
ATOM     18  C   UNL     1      -4.917  11.242  18.343  0.00  0.00    +0.000 A 
ATOM     19  C   UNL     1      -3.966  10.422  17.724  0.00  0.00    +0.000 A 
ATOM     20  C   UNL     1      -2.606  10.559  18.045  0.00  0.00    +0.000 A 
BRANCH  18  21
ATOM     21  C   UNL     1      -6.368  11.196  18.019  0.00  0.00    +0.000 C 
ATOM     22  O   UNL     1      -7.128  10.397  18.539  0.00  0.00    +0.000 OA
BRANCH  21  23
ATOM     23  O   UNL     1      -6.767  12.080  17.082  0.00  0.00    +0.000 OA
ATOM     24  H   UNL     1      -7.603  11.872  16.630  0.00  0.00    +0.000 HD
ENDBRANCH  21  23
ENDBRANCH  18  21
ENDBRANCH  13  15
ENDBRANCH   1  13
BRANCH   1  25
ATOM     25  S   UNL     1       1.204   9.679  19.538  0.00  0.00    +0.000 S 
BRANCH  25  26
ATOM     26  C   UNL     1       1.452   8.310  20.703  0.00  0.00    +0.000 C 
BRANCH  26  31
ATOM     27  C   UNL     1       3.270   3.574  17.799  0.00  0.00    +0.000 C 
ATOM     28  C   UNL     1       2.818   4.793  18.550  0.00  0.00    +0.000 A 
ATOM     29  C   UNL     1       2.990   6.072  18.011  0.00  0.00    +0.000 A 
ATOM     30  C   UNL     1       2.560   7.202  18.715  0.00  0.00    +0.000 A 
ATOM     31  C   UNL     1       1.951   7.078  19.973  0.00  0.00    +0.000 A 
ATOM     32  C   UNL     1       1.776   5.795  20.507  0.00  0.00    +0.000 A 
ATOM     33  C   UNL     1       2.209   4.664  19.803  0.00  0.00    +0.000 A 
ENDBRANCH  26  31
ENDBRANCH  25  26
ENDBRANCH   1  25
TORSDOF 9
ENDMDL
MODEL 6
REMARK VINA RESULT:      -7.6      1.551      1.886
REMARK  Name = 
REMARK  10 active torsions:
REMARK  status: ('A' for Active; 'I' for Inactive)
REMARK    1  A    between atoms: C_1  and  C_2
REMARK    2  A    between atoms: C_5  and  C_6
REMARK    3  A    between atoms: C_6  and  S_7
REMARK    4  A    between atoms: S_7  and  C_8
REMARK    5  A    between atoms: C_8  and  C_20
REMARK    6  A    between atoms: C_9  and  C_10
REMARK    7  A    between atoms: C_15  and  N_16
REMARK    8  A    between atoms: C_20  and  C_22
REMARK    9  A    between atoms: C_25  and  C_26
REMARK   10  A    between atoms: C_26  and  O_28
REMARK                            x       y       z     vdW  Elec       q    Type
REMARK                         _______ _______ _______ _____ _____    ______ ____
ROOT
ATOM      1  C   UNL     1       6.768   6.242  18.174  0.00  0.00    +0.000 C 
ATOM      2  C   UNL     1       6.302   5.436  19.153  0.00  0.00    +0.000 C 
ENDROOT
BRANCH   2   3
ATOM      3  C   UNL     1       4.965   4.824  19.232  0.00  0.00    +0.000 A 
ATOM      4  C   UNL     1       3.959   5.545  19.899  0.00  0.00    +0.000 A 
ATOM      5  C   UNL     1       2.657   5.045  20.008  0.00  0.00    +0.000 A 
ATOM      6  C   UNL     1       2.332   3.814  19.443  0.00  0.00    +0.000 A 
ATOM      7 CL   UNL     1       0.714   3.244  19.639  0.00  0.00    +0.000 Cl
ATOM      8  C   UNL     1       3.333   3.100  18.782  0.00  0.00    +0.000 A 
ATOM      9  C   UNL     1       4.653   3.579  18.679  0.00  0.00    +0.000 A 
BRANCH   8  10
ATOM     10  N   UNL     1       3.028   1.823  18.176  0.00  0.00    +0.000 N 
ATOM     11  O   UNL     1       3.641   0.832  18.593  0.00  0.00    +0.000 OA
ATOM     12  O   UNL     1       2.140   1.813  17.313  0.00  0.00    +0.000 OA
ENDBRANCH   8  10
ENDBRANCH   2   3
BRANCH   1  13
ATOM     13  C   UNL     1       5.947   6.551  16.934  0.00  0.00    +0.000 C 
ATOM     14  O   UNL     1       5.238   7.554  16.856  0.00  0.00    +0.000 OA
BRANCH  13  15
ATOM     15  C   UNL     1       6.003   5.636  15.749  0.00  0.00    +0.000 A 
ATOM     16  C   UNL     1       4.895   4.898  15.321  0.00  0.00    +0.000 A 
ATOM     17  C   UNL     1       4.994   4.060  14.205  0.00  0.00    +0.000 A 
ATOM     18  C   UNL     1       6.190   3.971  13.481  0.00  0.00    +0.000 A 
ATOM     19  C   UNL     1       7.292   4.736  13.882  0.00  0.00    +0.000 A 
ATOM     20  C   UNL     1       7.198   5.560  15.015  0.00  0.00    +0.000 A 
BRANCH  18  21
ATOM     21  C   UNL     1       6.191   3.116  12.263  0.00  0.00    +0.000 C 
ATOM     22  O   UNL     1       5.162   2.730  11.736  0.00  0.00    +0.000 OA
BRANCH  21  23
ATOM     23  O   UNL     1       7.415   2.775  11.813  0.00  0.00    +0.000 OA
ATOM     24  H   UNL     1       7.452   2.428  10.904  0.00  0.00    +0.000 HD
ENDBRANCH  21  23
ENDBRANCH  18  21
ENDBRANCH  13  15
ENDBRANCH   1  13
BRANCH   1  25
ATOM     25  S   UNL     1       8.178   7.256  18.404  0.00  0.00    +0.000 S 
BRANCH  25  26
ATOM     26  C   UNL     1       7.817   8.821  17.559  0.00  0.00    +0.000 C 
BRANCH  26  31
ATOM     27  C   UNL     1      10.631  13.246  20.140  0.00  0.00    +0.000 C 
ATOM     28  C   UNL     1       9.894  12.115  19.483  0.00  0.00    +0.000 A 
ATOM     29  C   UNL     1       9.229  12.303  18.268  0.00  0.00    +0.000 A 
ATOM     30  C   UNL     1       8.550  11.242  17.659  0.00  0.00    +0.000 A 
ATOM     31  C   UNL     1       8.520   9.971  18.252  0.00  0.00    +0.000 A 
ATOM     32  C   UNL     1       9.193   9.786  19.468  0.00  0.00    +0.000 A 
ATOM     33  C   UNL     1       9.870  10.849  20.078  0.00  0.00    +0.000 A 
ENDBRANCH  26  31
ENDBRANCH  25  26
ENDBRANCH   1  25
TORSDOF 9
ENDMDL
MODEL 7
REMARK VINA RESULT:      -7.6      9.280     11.763
REMARK  Name = 
REMARK  10 active torsions:
REMARK  status: ('A' for Active; 'I' for Inactive)
REMARK    1  A    between atoms: C_1  and  C_2
REMARK    2  A    between atoms: C_5  and  C_6
REMARK    3  A    between atoms: C_6  and  S_7
REMARK    4  A    between atoms: S_7  and  C_8
REMARK    5  A    between atoms: C_8  and  C_20
REMARK    6  A    between atoms: C_9  and  C_10
REMARK    7  A    between atoms: C_15  and  N_16
REMARK    8  A    between atoms: C_20  and  C_22
REMARK    9  A    between atoms: C_25  and  C_26
REMARK   10  A    between atoms: C_26  and  O_28
REMARK                            x       y       z     vdW  Elec       q    Type
REMARK                         _______ _______ _______ _____ _____    ______ ____
ROOT
ATOM      1  C   UNL     1      -0.069  10.695  20.205  0.00  0.00    +0.000 C 
ATOM      2  C   UNL     1      -0.251  10.772  21.541  0.00  0.00    +0.000 C 
ENDROOT
BRANCH   2   3
ATOM      3  C   UNL     1      -1.003  11.805  22.273  0.00  0.00    +0.000 A 
ATOM      4  C   UNL     1      -0.378  13.051  22.461  0.00  0.00    +0.000 A 
ATOM      5  C   UNL     1      -1.027  14.094  23.131  0.00  0.00    +0.000 A 
ATOM      6  C   UNL     1      -2.318  13.914  23.621  0.00  0.00    +0.000 A 
ATOM      7 CL   UNL     1      -3.047  15.233  24.464  0.00  0.00    +0.000 Cl
ATOM      8  C   UNL     1      -2.934  12.675  23.435  0.00  0.00    +0.000 A 
ATOM      9  C   UNL     1      -2.290  11.608  22.779  0.00  0.00    +0.000 A 
BRANCH   8  10
ATOM     10  N   UNL     1      -4.278  12.456  23.923  0.00  0.00    +0.000 N 
ATOM     11  O   UNL     1      -5.209  12.621  23.125  0.00  0.00    +0.000 OA
ATOM     12  O   UNL     1      -4.388  12.073  25.095  0.00  0.00    +0.000 OA
ENDBRANCH   8  10
ENDBRANCH   2   3
BRANCH   1  13
ATOM     13  C   UNL     1      -0.733  11.672  19.250  0.00  0.00    +0.000 C 
ATOM     14  O   UNL     1      -0.105  12.582  18.709  0.00  0.00    +0.000 OA
BRANCH  13  15
ATOM     15  C   UNL     1      -2.188  11.532  18.923  0.00  0.00    +0.000 A 
ATOM     16  C   UNL     1      -2.670  10.538  18.065  0.00  0.00    +0.000 A 
ATOM     17  C   UNL     1      -4.039  10.443  17.793  0.00  0.00    +0.000 A 
ATOM     18  C   UNL     1      -4.951  11.317  18.398  0.00  0.00    +0.000 A 
ATOM     19  C   UNL     1      -4.479  12.289  19.289  0.00  0.00    +0.000 A 
ATOM     20  C   UNL     1      -3.103  12.398  19.543  0.00  0.00    +0.000 A 
BRANCH  18  21
ATOM     21  C   UNL     1      -6.396  11.102  18.116  0.00  0.00    +0.000 C 
ATOM     22  O   UNL     1      -7.040  10.216  18.651  0.00  0.00    +0.000 OA
BRANCH  21  23
ATOM     23  O   UNL     1      -6.924  11.939  17.200  0.00  0.00    +0.000 OA
ATOM     24  H   UNL     1      -6.296  12.536  16.758  0.00  0.00    +0.000 HD
ENDBRANCH  21  23
ENDBRANCH  18  21
ENDBRANCH  13  15
ENDBRANCH   1  13
BRANCH   1  25
ATOM     25  S   UNL     1       1.193   9.706  19.498  0.00  0.00    +0.000 S 
BRANCH  25  26
ATOM     26  C   UNL     1       1.472   8.340  20.661  0.00  0.00    +0.000 C 
BRANCH  26  31
ATOM     27  C   UNL     1       3.382   3.561  17.890  0.00  0.00    +0.000 C 
ATOM     28  C   UNL     1       2.877   4.785  18.597  0.00  0.00    +0.000 A 
ATOM     29  C   UNL     1       2.252   4.688  19.843  0.00  0.00    +0.000 A 
ATOM     30  C   UNL     1       1.789   5.834  20.497  0.00  0.00    +0.000 A 
ATOM     31  C   UNL     1       1.940   7.104  19.919  0.00  0.00    +0.000 A 
ATOM     32  C   UNL     1       2.571   7.198  18.672  0.00  0.00    +0.000 A 
ATOM     33  C   UNL     1       3.032   6.049  18.016  0.00  0.00    +0.000 A 
ENDBRANCH  26  31
ENDBRANCH  25  26
ENDBRANCH   1  25
TORSDOF 9
ENDMDL
MODEL 8
REMARK VINA RESULT:      -7.6      9.274     11.268
REMARK  Name = 
REMARK  10 active torsions:
REMARK  status: ('A' for Active; 'I' for Inactive)
REMARK    1  A    between atoms: C_1  and  C_2
REMARK    2  A    between atoms: C_5  and  C_6
REMARK    3  A    between atoms: C_6  and  S_7
REMARK    4  A    between atoms: S_7  and  C_8
REMARK    5  A    between atoms: C_8  and  C_20
REMARK    6  A    between atoms: C_9  and  C_10
REMARK    7  A    between atoms: C_15  and  N_16
REMARK    8  A    between atoms: C_20  and  C_22
REMARK    9  A    between atoms: C_25  and  C_26
REMARK   10  A    between atoms: C_26  and  O_28
REMARK                            x       y       z     vdW  Elec       q    Type
REMARK                         _______ _______ _______ _____ _____    ______ ____
ROOT
ATOM      1  C   UNL     1       0.008  10.619  21.803  0.00  0.00    +0.000 C 
ATOM      2  C   UNL     1      -0.782  10.935  22.852  0.00  0.00    +0.000 C 
ENDROOT
BRANCH   2   3
ATOM      3  C   UNL     1      -1.631  12.131  22.991  0.00  0.00    +0.000 A 
ATOM      4  C   UNL     1      -0.985  13.371  23.139  0.00  0.00    +0.000 A 
ATOM      5  C   UNL     1      -1.714  14.559  23.261  0.00  0.00    +0.000 A 
ATOM      6  C   UNL     1      -3.106  14.531  23.229  0.00  0.00    +0.000 A 
ATOM      7 CL   UNL     1      -3.942  16.031  23.414  0.00  0.00    +0.000 Cl
ATOM      8  C   UNL     1      -3.744  13.298  23.082  0.00  0.00    +0.000 A 
ATOM      9  C   UNL     1      -3.027  12.090  22.977  0.00  0.00    +0.000 A 
BRANCH   8  10
ATOM     10  N   UNL     1      -5.188  13.233  23.036  0.00  0.00    +0.000 N 
ATOM     11  O   UNL     1      -5.786  13.060  24.105  0.00  0.00    +0.000 OA
ATOM     12  O   UNL     1      -5.718  13.404  21.930  0.00  0.00    +0.000 OA
ENDBRANCH   8  10
ENDBRANCH   2   3
BRANCH   1  13
ATOM     13  C   UNL     1       0.040  11.465  20.543  0.00  0.00    +0.000 C 
ATOM     14  O   UNL     1       0.936  12.282  20.330  0.00  0.00    +0.000 OA
BRANCH  13  15
ATOM     15  C   UNL     1      -1.024  11.302  19.501  0.00  0.00    +0.000 A 
ATOM     16  C   UNL     1      -2.147  12.134  19.443  0.00  0.00    +0.000 A 
ATOM     17  C   UNL     1      -3.113  11.947  18.448  0.00  0.00    +0.000 A 
ATOM     18  C   UNL     1      -2.957  10.949  17.478  0.00  0.00    +0.000 A 
ATOM     19  C   UNL     1      -1.816  10.138  17.508  0.00  0.00    +0.000 A 
ATOM     20  C   UNL     1      -0.859  10.312  18.519  0.00  0.00    +0.000 A 
BRANCH  18  21
ATOM     21  C   UNL     1      -3.990  10.864  16.411  0.00  0.00    +0.000 C 
ATOM     22  O   UNL     1      -3.717  10.562  15.261  0.00  0.00    +0.000 OA
BRANCH  21  23
ATOM     23  O   UNL     1      -5.240  11.180  16.805  0.00  0.00    +0.000 OA
ATOM     24  H   UNL     1      -5.334  12.022  17.284  0.00  0.00    +0.000 HD
ENDBRANCH  21  23
ENDBRANCH  18  21
ENDBRANCH  13  15
ENDBRANCH   1  13
BRANCH   1  25
ATOM     25  S   UNL     1       1.291   9.433  21.937  0.00  0.00    +0.000 S 
BRANCH  25  26
ATOM     26  C   UNL     1       0.711   7.960  21.048  0.00  0.00    +0.000 C 
BRANCH  26  31
ATOM     27  C   UNL     1       4.540   6.590  16.850  0.00  0.00    +0.000 C 
ATOM     28  C   UNL     1       3.546   6.933  17.922  0.00  0.00    +0.000 A 
ATOM     29  C   UNL     1       3.289   6.047  18.972  0.00  0.00    +0.000 A 
ATOM     30  C   UNL     1       2.365   6.377  19.969  0.00  0.00    +0.000 A 
ATOM     31  C   UNL     1       1.677   7.599  19.937  0.00  0.00    +0.000 A 
ATOM     32  C   UNL     1       1.940   8.486  18.885  0.00  0.00    +0.000 A 
ATOM     33  C   UNL     1       2.864   8.154  17.886  0.00  0.00    +0.000 A 
ENDBRANCH  26  31
ENDBRANCH  25  26
ENDBRANCH   1  25
TORSDOF 9
ENDMDL
MODEL 9
REMARK VINA RESULT:      -7.5      9.049     11.365
REMARK  Name = 
REMARK  10 active torsions:
REMARK  status: ('A' for Active; 'I' for Inactive)
REMARK    1  A    between atoms: C_1  and  C_2
REMARK    2  A    between atoms: C_5  and  C_6
REMARK    3  A    between atoms: C_6  and  S_7
REMARK    4  A    between atoms: S_7  and  C_8
REMARK    5  A    between atoms: C_8  and  C_20
REMARK    6  A    between atoms: C_9  and  C_10
REMARK    7  A    between atoms: C_15  and  N_16
REMARK    8  A    between atoms: C_20  and  C_22
REMARK    9  A    between atoms: C_25  and  C_26
REMARK   10  A    between atoms: C_26  and  O_28
REMARK                            x       y       z     vdW  Elec       q    Type
REMARK                         _______ _______ _______ _____ _____    ______ ____
ROOT
ATOM      1  C   UNL     1      -0.074  10.104  21.628  0.00  0.00    +0.000 C 
ATOM      2  C   UNL     1      -0.777  10.537  22.697  0.00  0.00    +0.000 C 
ENDROOT
BRANCH   2   3
ATOM      3  C   UNL     1      -1.368  11.873  22.885  0.00  0.00    +0.000 A 
ATOM      4  C   UNL     1      -2.745  11.940  23.164  0.00  0.00    +0.000 A 
ATOM      5  C   UNL     1      -3.384  13.167  23.373  0.00  0.00    +0.000 A 
ATOM      6  C   UNL     1      -2.656  14.353  23.313  0.00  0.00    +0.000 A 
ATOM      7 CL   UNL     1      -3.514  15.833  23.550  0.00  0.00    +0.000 Cl
ATOM      8  C   UNL     1      -1.290  14.283  23.034  0.00  0.00    +0.000 A 
ATOM      9  C   UNL     1      -0.633  13.058  22.803  0.00  0.00    +0.000 A 
BRANCH   8  10
ATOM     10  N   UNL     1      -0.502  15.493  22.973  0.00  0.00    +0.000 N 
ATOM     11  O   UNL     1       0.061  15.861  24.011  0.00  0.00    +0.000 OA
ATOM     12  O   UNL     1      -0.414  16.046  21.868  0.00  0.00    +0.000 OA
ENDBRANCH   8  10
ENDBRANCH   2   3
BRANCH   1  13
ATOM     13  C   UNL     1       0.120  10.969  20.395  0.00  0.00    +0.000 C 
ATOM     14  O   UNL     1       1.119  11.671  20.243  0.00  0.00    +0.000 OA
BRANCH  13  15
ATOM     15  C   UNL     1      -0.910  10.967  19.307  0.00  0.00    +0.000 A 
ATOM     16  C   UNL     1      -0.813  10.134  18.187  0.00  0.00    +0.000 A 
ATOM     17  C   UNL     1      -1.802  10.164  17.198  0.00  0.00    +0.000 A 
ATOM     18  C   UNL     1      -2.918  11.000  17.328  0.00  0.00    +0.000 A 
ATOM     19  C   UNL     1      -3.041  11.808  18.465  0.00  0.00    +0.000 A 
ATOM     20  C   UNL     1      -2.036  11.793  19.446  0.00  0.00    +0.000 A 
BRANCH  18  21
ATOM     21  C   UNL     1      -3.962  10.918  16.270  0.00  0.00    +0.000 C 
ATOM     22  O   UNL     1      -3.704  10.599  15.122  0.00  0.00    +0.000 OA
BRANCH  21  23
ATOM     23  O   UNL     1      -5.203  11.257  16.673  0.00  0.00    +0.000 OA
ATOM     24  H   UNL     1      -5.879  10.561  16.598  0.00  0.00    +0.000 HD
ENDBRANCH  21  23
ENDBRANCH  18  21
ENDBRANCH  13  15
ENDBRANCH   1  13
BRANCH   1  25
ATOM     25  S   UNL     1       0.946   8.682  21.707  0.00  0.00    +0.000 S 
BRANCH  25  26
ATOM     26  C   UNL     1       1.756   8.552  20.088  0.00  0.00    +0.000 C 
BRANCH  26  31
ATOM     27  C   UNL     1       2.472   2.935  18.636  0.00  0.00    +0.000 C 
ATOM     28  C   UNL     1       2.273   4.377  19.007  0.00  0.00    +0.000 A 
ATOM     29  C   UNL     1       1.791   4.733  20.270  0.00  0.00    +0.000 A 
ATOM     30  C   UNL     1       1.614   6.079  20.608  0.00  0.00    +0.000 A 
ATOM     31  C   UNL     1       1.913   7.098  19.691  0.00  0.00    +0.000 A 
ATOM     32  C   UNL     1       2.400   6.736  18.427  0.00  0.00    +0.000 A 
ATOM     33  C   UNL     1       2.575   5.389  18.088  0.00  0.00    +0.000 A 
ENDBRANCH  26  31
ENDBRANCH  25  26
ENDBRANCH   1  25
TORSDOF 9
ENDMDL
