MODEL 1
REMARK VINA RESULT:      -7.1      0.000      0.000
REMARK  Name = 
REMARK  5 active torsions:
REMARK  status: ('A' for Active; 'I' for Inactive)
REMARK    1  A    between atoms: O_1  and  C_2
REMARK    2  A    between atoms: C_2  and  C_3
REMARK    3  A    between atoms: C_2  and  C_18
REMARK    4  A    between atoms: C_3  and  N_4
REMARK    5  A    between atoms: C_10  and  C_11
REMARK                            x       y       z     vdW  Elec       q    Type
REMARK                         _______ _______ _______ _____ _____    ______ ____
ROOT
ATOM      1  N   UNL     1       5.259   5.807  17.991  0.00  0.00    +0.000 NA
ATOM      2  C   UNL     1       5.315   5.772  16.513  0.00  0.00    +0.000 C 
ATOM      3  C   UNL     1       6.175   7.064  16.255  0.00  0.00    +0.000 C 
ATOM      4  C   UNL     1       7.225   7.164  17.328  0.00  0.00    +0.000 C 
ATOM      5  C   UNL     1       6.781   5.975  18.141  0.00  0.00    +0.000 C 
ATOM      6  C   UNL     1       7.682   4.743  17.328  0.00  0.00    +0.000 C 
ATOM      7  C   UNL     1       6.932   3.970  16.158  0.00  0.00    +0.000 C 
ATOM      8  C   UNL     1       5.538   4.246  16.569  0.00  0.00    +0.000 C 
ENDROOT
BRANCH   7   9
ATOM      9  C   UNL     1       6.892   4.216  14.641  0.00  0.00    +0.000 A 
ATOM     10  C   UNL     1       6.053   3.585  13.749  0.00  0.00    +0.000 A 
ATOM     11  C   UNL     1       6.179   3.860  12.365  0.00  0.00    +0.000 A 
ATOM     12  C   UNL     1       7.188   4.704  11.859  0.00  0.00    +0.000 A 
ATOM     13  C   UNL     1       8.027   5.342  12.735  0.00  0.00    +0.000 A 
ATOM     14  C   UNL     1       7.841   5.140  14.098  0.00  0.00    +0.000 A 
ENDBRANCH   7   9
BRANCH   1  15
ATOM     15  C   UNL     1       3.907   6.445  18.104  0.00  0.00    +0.000 C 
BRANCH  15  16
ATOM     16  C   UNL     1       2.361   6.113  18.004  0.00  0.00    +0.000 C 
BRANCH  16  17
ATOM     17  C   UNL     1       1.964   4.879  18.909  0.00  0.00    +0.000 A 
ATOM     18  C   UNL     1       1.933   3.564  18.389  0.00  0.00    +0.000 A 
ATOM     19 CL   UNL     1       2.462   3.217  16.772  0.00  0.00    +0.000 Cl
ATOM     20  C   UNL     1       1.536   2.449  19.153  0.00  0.00    +0.000 A 
ATOM     21  C   UNL     1       1.133   2.597  20.481  0.00  0.00    +0.000 A 
ATOM     22  C   UNL     1       1.219   3.856  21.053  0.00  0.00    +0.000 A 
ATOM     23  C   UNL     1       1.627   4.977  20.292  0.00  0.00    +0.000 A 
ATOM     24 CL   UNL     1       1.717   6.453  21.202  0.00  0.00    +0.000 Cl
ENDBRANCH  16  17
BRANCH  16  25
ATOM     25  O   UNL     1       1.503   7.187  18.373  0.00  0.00    +0.000 OA
ATOM     26  H   UNL     1       2.062   7.978  18.354  0.00  0.00    +0.000 HD
ENDBRANCH  16  25
ENDBRANCH  15  16
ENDBRANCH   1  15
TORSDOF 5
ENDMDL
MODEL 2
REMARK VINA RESULT:      -7.1      3.393      5.489
REMARK  Name = 
REMARK  5 active torsions:
REMARK  status: ('A' for Active; 'I' for Inactive)
REMARK    1  A    between atoms: O_1  and  C_2
REMARK    2  A    between atoms: C_2  and  C_3
REMARK    3  A    between atoms: C_2  and  C_18
REMARK    4  A    between atoms: C_3  and  N_4
REMARK    5  A    between atoms: C_10  and  C_11
REMARK                            x       y       z     vdW  Elec       q    Type
REMARK                         _______ _______ _______ _____ _____    ______ ____
ROOT
ATOM      1  N   UNL     1       1.250   5.583  19.950  0.00  0.00    +0.000 NA
ATOM      2  C   UNL     1       2.631   5.838  19.481  0.00  0.00    +0.000 C 
ATOM      3  C   UNL     1       3.422   4.934  20.497  0.00  0.00    +0.000 C 
ATOM      4  C   UNL     1       2.628   3.680  20.742  0.00  0.00    +0.000 C 
ATOM      5  C   UNL     1       1.421   4.054  19.921  0.00  0.00    +0.000 C 
ATOM      6  C   UNL     1       1.948   3.460  18.385  0.00  0.00    +0.000 C 
ATOM      7  C   UNL     1       2.672   4.505  17.429  0.00  0.00    +0.000 C 
ATOM      8  C   UNL     1       2.138   5.751  18.021  0.00  0.00    +0.000 C 
ENDROOT
BRANCH   7   9
ATOM      9  C   UNL     1       4.159   4.836  17.229  0.00  0.00    +0.000 A 
ATOM     10  C   UNL     1       5.209   3.974  17.457  0.00  0.00    +0.000 A 
ATOM     11  C   UNL     1       6.537   4.441  17.299  0.00  0.00    +0.000 A 
ATOM     12  C   UNL     1       6.825   5.784  16.987  0.00  0.00    +0.000 A 
ATOM     13  C   UNL     1       5.791   6.653  16.751  0.00  0.00    +0.000 A 
ATOM     14  C   UNL     1       4.489   6.167  16.819  0.00  0.00    +0.000 A 
ENDBRANCH   7   9
BRANCH   1  15
ATOM     15  C   UNL     1       1.116   6.817  20.791  0.00  0.00    +0.000 C 
BRANCH  15  16
ATOM     16  C   UNL     1       1.708   8.276  20.965  0.00  0.00    +0.000 C 
BRANCH  16  17
ATOM     17  C   UNL     1       0.717   9.382  20.422  0.00  0.00    +0.000 A 
ATOM     18  C   UNL     1       0.769   9.821  19.078  0.00  0.00    +0.000 A 
ATOM     19 CL   UNL     1       1.826   9.073  17.921  0.00  0.00    +0.000 Cl
ATOM     20  C   UNL     1      -0.064  10.839  18.574  0.00  0.00    +0.000 A 
ATOM     21  C   UNL     1      -0.986  11.484  19.399  0.00  0.00    +0.000 A 
ATOM     22  C   UNL     1      -1.123  11.035  20.703  0.00  0.00    +0.000 A 
ATOM     23  C   UNL     1      -0.295  10.005  21.210  0.00  0.00    +0.000 A 
ATOM     24 CL   UNL     1      -0.656   9.553  22.847  0.00  0.00    +0.000 Cl
ENDBRANCH  16  17
BRANCH  16  25
ATOM     25  O   UNL     1       2.021   8.628  22.308  0.00  0.00    +0.000 OA
ATOM     26  H   UNL     1       1.770   9.559  22.394  0.00  0.00    +0.000 HD
ENDBRANCH  16  25
ENDBRANCH  15  16
ENDBRANCH   1  15
TORSDOF 5
ENDMDL
MODEL 3
REMARK VINA RESULT:      -7.0      3.408      5.577
REMARK  Name = 
REMARK  5 active torsions:
REMARK  status: ('A' for Active; 'I' for Inactive)
REMARK    1  A    between atoms: O_1  and  C_2
REMARK    2  A    between atoms: C_2  and  C_3
REMARK    3  A    between atoms: C_2  and  C_18
REMARK    4  A    between atoms: C_3  and  N_4
REMARK    5  A    between atoms: C_10  and  C_11
REMARK                            x       y       z     vdW  Elec       q    Type
REMARK                         _______ _______ _______ _____ _____    ______ ____
ROOT
ATOM      1  N   UNL     1       1.126   5.624  20.205  0.00  0.00    +0.000 NA
ATOM      2  C   UNL     1       2.456   5.807  19.583  0.00  0.00    +0.000 C 
ATOM      3  C   UNL     1       3.310   4.867  20.511  0.00  0.00    +0.000 C 
ATOM      4  C   UNL     1       2.486   3.656  20.855  0.00  0.00    +0.000 C 
ATOM      5  C   UNL     1       1.214   4.089  20.171  0.00  0.00    +0.000 C 
ATOM      6  C   UNL     1       1.535   3.464  18.591  0.00  0.00    +0.000 C 
ATOM      7  C   UNL     1       2.199   4.468  17.551  0.00  0.00    +0.000 C 
ATOM      8  C   UNL     1       1.799   5.741  18.188  0.00  0.00    +0.000 C 
ENDROOT
BRANCH   7   9
ATOM      9  C   UNL     1       3.670   4.721  17.182  0.00  0.00    +0.000 A 
ATOM     10  C   UNL     1       4.260   5.958  17.048  0.00  0.00    +0.000 A 
ATOM     11  C   UNL     1       5.611   6.040  16.631  0.00  0.00    +0.000 A 
ATOM     12  C   UNL     1       6.355   4.897  16.275  0.00  0.00    +0.000 A 
ATOM     13  C   UNL     1       5.783   3.659  16.408  0.00  0.00    +0.000 A 
ATOM     14  C   UNL     1       4.486   3.578  16.905  0.00  0.00    +0.000 A 
ENDBRANCH   7   9
BRANCH   1  15
ATOM     15  C   UNL     1       1.150   6.866  21.045  0.00  0.00    +0.000 C 
BRANCH  15  16
ATOM     16  C   UNL     1       1.756   8.329  21.088  0.00  0.00    +0.000 C 
BRANCH  16  17
ATOM     17  C   UNL     1       0.754   9.399  20.497  0.00  0.00    +0.000 A 
ATOM     18  C   UNL     1       0.832   9.814  19.146  0.00  0.00    +0.000 A 
ATOM     19 CL   UNL     1       1.937   9.070  18.033  0.00  0.00    +0.000 Cl
ATOM     20  C   UNL     1      -0.012  10.801  18.600  0.00  0.00    +0.000 A 
ATOM     21  C   UNL     1      -0.971  11.439  19.387  0.00  0.00    +0.000 A 
ATOM     22  C   UNL     1      -1.132  11.012  20.695  0.00  0.00    +0.000 A 
ATOM     23  C   UNL     1      -0.294  10.012  21.245  0.00  0.00    +0.000 A 
ATOM     24 CL   UNL     1      -0.688   9.583  22.880  0.00  0.00    +0.000 Cl
ENDBRANCH  16  17
BRANCH  16  25
ATOM     25  O   UNL     1       2.118   8.778  22.389  0.00  0.00    +0.000 OA
ATOM     26  H   UNL     1       2.180   9.742  22.319  0.00  0.00    +0.000 HD
ENDBRANCH  16  25
ENDBRANCH  15  16
ENDBRANCH   1  15
TORSDOF 5
ENDMDL
MODEL 4
REMARK VINA RESULT:      -7.0      0.153      1.840
REMARK  Name = 
REMARK  5 active torsions:
REMARK  status: ('A' for Active; 'I' for Inactive)
REMARK    1  A    between atoms: O_1  and  C_2
REMARK    2  A    between atoms: C_2  and  C_3
REMARK    3  A    between atoms: C_2  and  C_18
REMARK    4  A    between atoms: C_3  and  N_4
REMARK    5  A    between atoms: C_10  and  C_11
REMARK                            x       y       z     vdW  Elec       q    Type
REMARK                         _______ _______ _______ _____ _____    ______ ____
ROOT
ATOM      1  N   UNL     1       5.354   5.791  18.099  0.00  0.00    +0.000 NA
ATOM      2  C   UNL     1       5.380   5.777  16.619  0.00  0.00    +0.000 C 
ATOM      3  C   UNL     1       6.276   7.044  16.362  0.00  0.00    +0.000 C 
ATOM      4  C   UNL     1       7.350   7.094  17.415  0.00  0.00    +0.000 C 
ATOM      5  C   UNL     1       6.883   5.908  18.220  0.00  0.00    +0.000 C 
ATOM      6  C   UNL     1       7.728   4.660  17.371  0.00  0.00    +0.000 C 
ATOM      7  C   UNL     1       6.930   3.929  16.206  0.00  0.00    +0.000 C 
ATOM      8  C   UNL     1       5.555   4.244  16.649  0.00  0.00    +0.000 C 
ENDROOT
BRANCH   7   9
ATOM      9  C   UNL     1       6.869   4.198  14.694  0.00  0.00    +0.000 A 
ATOM     10  C   UNL     1       6.005   3.594  13.807  0.00  0.00    +0.000 A 
ATOM     11  C   UNL     1       6.112   3.887  12.426  0.00  0.00    +0.000 A 
ATOM     12  C   UNL     1       7.124   4.723  11.915  0.00  0.00    +0.000 A 
ATOM     13  C   UNL     1       7.988   5.336  12.785  0.00  0.00    +0.000 A 
ATOM     14  C   UNL     1       7.822   5.116  14.149  0.00  0.00    +0.000 A 
ENDBRANCH   7   9
BRANCH   1  15
ATOM     15  C   UNL     1       4.026   6.471  18.248  0.00  0.00    +0.000 C 
BRANCH  15  16
ATOM     16  C   UNL     1       2.469   6.196  18.150  0.00  0.00    +0.000 C 
BRANCH  16  17
ATOM     17  C   UNL     1       2.042   4.926  18.989  0.00  0.00    +0.000 A 
ATOM     18  C   UNL     1       1.636   5.037  20.340  0.00  0.00    +0.000 A 
ATOM     19 CL   UNL     1       1.452   6.584  21.105  0.00  0.00    +0.000 Cl
ATOM     20  C   UNL     1       1.298   3.921  21.130  0.00  0.00    +0.000 A 
ATOM     21  C   UNL     1       1.364   2.628  20.610  0.00  0.00    +0.000 A 
ATOM     22  C   UNL     1       1.684   2.478  19.270  0.00  0.00    +0.000 A 
ATOM     23  C   UNL     1       2.014   3.597  18.469  0.00  0.00    +0.000 A 
ATOM     24 CL   UNL     1       2.336   3.206  16.809  0.00  0.00    +0.000 Cl
ENDBRANCH  16  17
BRANCH  16  25
ATOM     25  O   UNL     1       1.652   7.275  18.591  0.00  0.00    +0.000 OA
ATOM     26  H   UNL     1       1.306   6.998  19.452  0.00  0.00    +0.000 HD
ENDBRANCH  16  25
ENDBRANCH  15  16
ENDBRANCH   1  15
TORSDOF 5
ENDMDL
MODEL 5
REMARK VINA RESULT:      -6.9      3.341      5.696
REMARK  Name = 
REMARK  5 active torsions:
REMARK  status: ('A' for Active; 'I' for Inactive)
REMARK    1  A    between atoms: O_1  and  C_2
REMARK    2  A    between atoms: C_2  and  C_3
REMARK    3  A    between atoms: C_2  and  C_18
REMARK    4  A    between atoms: C_3  and  N_4
REMARK    5  A    between atoms: C_10  and  C_11
REMARK                            x       y       z     vdW  Elec       q    Type
REMARK                         _______ _______ _______ _____ _____    ______ ____
ROOT
ATOM      1  N   UNL     1       1.265   5.532  19.969  0.00  0.00    +0.000 NA
ATOM      2  C   UNL     1       2.647   5.777  19.502  0.00  0.00    +0.000 C 
ATOM      3  C   UNL     1       3.428   4.839  20.495  0.00  0.00    +0.000 C 
ATOM      4  C   UNL     1       2.616   3.592  20.715  0.00  0.00    +0.000 C 
ATOM      5  C   UNL     1       1.411   4.002  19.906  0.00  0.00    +0.000 C 
ATOM      6  C   UNL     1       1.925   3.434  18.356  0.00  0.00    +0.000 C 
ATOM      7  C   UNL     1       2.662   4.489  17.421  0.00  0.00    +0.000 C 
ATOM      8  C   UNL     1       2.149   5.729  18.042  0.00  0.00    +0.000 C 
ENDROOT
BRANCH   7   9
ATOM      9  C   UNL     1       4.154   4.801  17.223  0.00  0.00    +0.000 A 
ATOM     10  C   UNL     1       5.194   3.935  17.480  0.00  0.00    +0.000 A 
ATOM     11  C   UNL     1       6.527   4.386  17.320  0.00  0.00    +0.000 A 
ATOM     12  C   UNL     1       6.830   5.718  16.976  0.00  0.00    +0.000 A 
ATOM     13  C   UNL     1       5.806   6.590  16.713  0.00  0.00    +0.000 A 
ATOM     14  C   UNL     1       4.499   6.118  16.783  0.00  0.00    +0.000 A 
ENDBRANCH   7   9
BRANCH   1  15
ATOM     15  C   UNL     1       1.152   6.749  20.838  0.00  0.00    +0.000 C 
BRANCH  15  16
ATOM     16  C   UNL     1       1.732   8.213  21.012  0.00  0.00    +0.000 C 
BRANCH  16  17
ATOM     17  C   UNL     1       0.777   9.304  20.381  0.00  0.00    +0.000 A 
ATOM     18  C   UNL     1      -0.246   9.916  21.143  0.00  0.00    +0.000 A 
ATOM     19 CL   UNL     1      -0.419   9.606  22.842  0.00  0.00    +0.000 Cl
ATOM     20  C   UNL     1      -1.147  10.853  20.599  0.00  0.00    +0.000 A 
ATOM     21  C   UNL     1      -1.077  11.217  19.254  0.00  0.00    +0.000 A 
ATOM     22  C   UNL     1      -0.044  10.698  18.490  0.00  0.00    +0.000 A 
ATOM     23  C   UNL     1       0.869   9.764  19.034  0.00  0.00    +0.000 A 
ATOM     24 CL   UNL     1       2.117   9.273  17.932  0.00  0.00    +0.000 Cl
ENDBRANCH  16  17
BRANCH  16  25
ATOM     25  O   UNL     1       1.963   8.598  22.362  0.00  0.00    +0.000 OA
ATOM     26  H   UNL     1       2.228   9.528  22.321  0.00  0.00    +0.000 HD
ENDBRANCH  16  25
ENDBRANCH  15  16
ENDBRANCH   1  15
TORSDOF 5
ENDMDL
MODEL 6
REMARK VINA RESULT:      -6.9      3.282      5.674
REMARK  Name = 
REMARK  5 active torsions:
REMARK  status: ('A' for Active; 'I' for Inactive)
REMARK    1  A    between atoms: O_1  and  C_2
REMARK    2  A    between atoms: C_2  and  C_3
REMARK    3  A    between atoms: C_2  and  C_18
REMARK    4  A    between atoms: C_3  and  N_4
REMARK    5  A    between atoms: C_10  and  C_11
REMARK                            x       y       z     vdW  Elec       q    Type
REMARK                         _______ _______ _______ _____ _____    ______ ____
ROOT
ATOM      1  N   UNL     1       1.216   5.488  20.143  0.00  0.00    +0.000 NA
ATOM      2  C   UNL     1       2.534   5.720  19.511  0.00  0.00    +0.000 C 
ATOM      3  C   UNL     1       3.426   4.800  20.423  0.00  0.00    +0.000 C 
ATOM      4  C   UNL     1       2.646   3.560  20.762  0.00  0.00    +0.000 C 
ATOM      5  C   UNL     1       1.354   3.957  20.093  0.00  0.00    +0.000 C 
ATOM      6  C   UNL     1       1.681   3.357  18.504  0.00  0.00    +0.000 C 
ATOM      7  C   UNL     1       2.303   4.392  17.468  0.00  0.00    +0.000 C 
ATOM      8  C   UNL     1       1.867   5.646  18.121  0.00  0.00    +0.000 C 
ENDROOT
BRANCH   7   9
ATOM      9  C   UNL     1       3.761   4.696  17.090  0.00  0.00    +0.000 A 
ATOM     10  C   UNL     1       4.317   5.953  16.988  0.00  0.00    +0.000 A 
ATOM     11  C   UNL     1       5.659   6.085  16.556  0.00  0.00    +0.000 A 
ATOM     12  C   UNL     1       6.429   4.975  16.155  0.00  0.00    +0.000 A 
ATOM     13  C   UNL     1       5.891   3.717  16.256  0.00  0.00    +0.000 A 
ATOM     14  C   UNL     1       4.604   3.586  16.766  0.00  0.00    +0.000 A 
ENDBRANCH   7   9
BRANCH   1  15
ATOM     15  C   UNL     1       1.206   6.723  20.994  0.00  0.00    +0.000 C 
BRANCH  15  16
ATOM     16  C   UNL     1       1.774   8.201  21.051  0.00  0.00    +0.000 C 
BRANCH  16  17
ATOM     17  C   UNL     1       0.814   9.228  20.329  0.00  0.00    +0.000 A 
ATOM     18  C   UNL     1      -0.253   9.850  21.018  0.00  0.00    +0.000 A 
ATOM     19 CL   UNL     1      -0.481   9.627  22.725  0.00  0.00    +0.000 Cl
ATOM     20  C   UNL     1      -1.158  10.731  20.392  0.00  0.00    +0.000 A 
ATOM     21  C   UNL     1      -1.048  11.023  19.033  0.00  0.00    +0.000 A 
ATOM     22  C   UNL     1       0.026  10.494  18.335  0.00  0.00    +0.000 A 
ATOM     23  C   UNL     1       0.944   9.618  18.962  0.00  0.00    +0.000 A 
ATOM     24 CL   UNL     1       2.244   9.105  17.934  0.00  0.00    +0.000 Cl
ENDBRANCH  16  17
BRANCH  16  25
ATOM     25  O   UNL     1       1.993   8.696  22.367  0.00  0.00    +0.000 OA
ATOM     26  H   UNL     1       2.645   8.099  22.760  0.00  0.00    +0.000 HD
ENDBRANCH  16  25
ENDBRANCH  15  16
ENDBRANCH   1  15
TORSDOF 5
ENDMDL
MODEL 7
REMARK VINA RESULT:      -6.8      2.028      3.099
REMARK  Name = 
REMARK  5 active torsions:
REMARK  status: ('A' for Active; 'I' for Inactive)
REMARK    1  A    between atoms: O_1  and  C_2
REMARK    2  A    between atoms: C_2  and  C_3
REMARK    3  A    between atoms: C_2  and  C_18
REMARK    4  A    between atoms: C_3  and  N_4
REMARK    5  A    between atoms: C_10  and  C_11
REMARK                            x       y       z     vdW  Elec       q    Type
REMARK                         _______ _______ _______ _____ _____    ______ ____
ROOT
ATOM      1  N   UNL     1       5.805   4.937  18.555  0.00  0.00    +0.000 NA
ATOM      2  C   UNL     1       5.664   4.281  17.236  0.00  0.00    +0.000 C 
ATOM      3  C   UNL     1       4.166   4.646  16.922  0.00  0.00    +0.000 C 
ATOM      4  C   UNL     1       3.899   6.041  17.417  0.00  0.00    +0.000 C 
ATOM      5  C   UNL     1       5.245   6.279  18.054  0.00  0.00    +0.000 C 
ATOM      6  C   UNL     1       6.088   6.894  16.675  0.00  0.00    +0.000 C 
ATOM      7  C   UNL     1       6.907   5.837  15.814  0.00  0.00    +0.000 C 
ATOM      8  C   UNL     1       7.068   4.790  16.846  0.00  0.00    +0.000 C 
ENDROOT
BRANCH   7   9
ATOM      9  C   UNL     1       6.519   5.027  14.566  0.00  0.00    +0.000 A 
ATOM     10  C   UNL     1       5.345   4.327  14.399  0.00  0.00    +0.000 A 
ATOM     11  C   UNL     1       5.155   3.563  13.221  0.00  0.00    +0.000 A 
ATOM     12  C   UNL     1       6.161   3.434  12.243  0.00  0.00    +0.000 A 
ATOM     13  C   UNL     1       7.333   4.129  12.393  0.00  0.00    +0.000 A 
ATOM     14  C   UNL     1       7.479   4.950  13.507  0.00  0.00    +0.000 A 
ENDBRANCH   7   9
BRANCH   1  15
ATOM     15  C   UNL     1       5.577   3.712  19.389  0.00  0.00    +0.000 C 
BRANCH  15  16
ATOM     16  C   UNL     1       4.575   3.099  20.452  0.00  0.00    +0.000 C 
BRANCH  16  17
ATOM     17  C   UNL     1       3.118   2.938  19.862  0.00  0.00    +0.000 A 
ATOM     18  C   UNL     1       2.059   3.783  20.271  0.00  0.00    +0.000 A 
ATOM     19 CL   UNL     1       2.335   5.127  21.335  0.00  0.00    +0.000 Cl
ATOM     20  C   UNL     1       0.739   3.636  19.804  0.00  0.00    +0.000 A 
ATOM     21  C   UNL     1       0.405   2.619  18.910  0.00  0.00    +0.000 A 
ATOM     22  C   UNL     1       1.423   1.814  18.425  0.00  0.00    +0.000 A 
ATOM     23  C   UNL     1       2.754   1.966  18.883  0.00  0.00    +0.000 A 
ATOM     24 CL   UNL     1       3.889   0.898  18.120  0.00  0.00    +0.000 Cl
ENDBRANCH  16  17
BRANCH  16  25
ATOM     25  O   UNL     1       4.959   1.824  20.955  0.00  0.00    +0.000 OA
ATOM     26  H   UNL     1       4.467   1.717  21.782  0.00  0.00    +0.000 HD
ENDBRANCH  16  25
ENDBRANCH  15  16
ENDBRANCH   1  15
TORSDOF 5
ENDMDL
MODEL 8
REMARK VINA RESULT:      -6.7      3.623      5.576
REMARK  Name = 
REMARK  5 active torsions:
REMARK  status: ('A' for Active; 'I' for Inactive)
REMARK    1  A    between atoms: O_1  and  C_2
REMARK    2  A    between atoms: C_2  and  C_3
REMARK    3  A    between atoms: C_2  and  C_18
REMARK    4  A    between atoms: C_3  and  N_4
REMARK    5  A    between atoms: C_10  and  C_11
REMARK                            x       y       z     vdW  Elec       q    Type
REMARK                         _______ _______ _______ _____ _____    ______ ____
ROOT
ATOM      1  N   UNL     1       2.114   6.650  17.849  0.00  0.00    +0.000 NA
ATOM      2  C   UNL     1       3.484   6.942  18.328  0.00  0.00    +0.000 C 
ATOM      3  C   UNL     1       3.492   6.073  19.640  0.00  0.00    +0.000 C 
ATOM      4  C   UNL     1       2.738   4.799  19.375  0.00  0.00    +0.000 C 
ATOM      5  C   UNL     1       2.292   5.127  17.973  0.00  0.00    +0.000 C 
ATOM      6  C   UNL     1       3.668   4.533  17.109  0.00  0.00    +0.000 C 
ATOM      7  C   UNL     1       4.810   5.589  16.779  0.00  0.00    +0.000 C 
ATOM      8  C   UNL     1       4.003   6.825  16.879  0.00  0.00    +0.000 C 
ENDROOT
BRANCH   7   9
ATOM      9  C   UNL     1       6.096   5.963  17.533  0.00  0.00    +0.000 A 
ATOM     10  C   UNL     1       6.649   5.250  18.574  0.00  0.00    +0.000 A 
ATOM     11  C   UNL     1       7.802   5.756  19.225  0.00  0.00    +0.000 A 
ATOM     12  C   UNL     1       8.362   7.004  18.891  0.00  0.00    +0.000 A 
ATOM     13  C   UNL     1       7.826   7.722  17.853  0.00  0.00    +0.000 A 
ATOM     14  C   UNL     1       6.750   7.179  17.158  0.00  0.00    +0.000 A 
ENDBRANCH   7   9
BRANCH   1  15
ATOM     15  C   UNL     1       1.466   7.888  18.393  0.00  0.00    +0.000 C 
BRANCH  15  16
ATOM     16  C   UNL     1       0.983   9.333  17.959  0.00  0.00    +0.000 C 
BRANCH  16  17
ATOM     17  C   UNL     1       0.205  10.068  19.123  0.00  0.00    +0.000 A 
ATOM     18  C   UNL     1      -0.899  10.911  18.855  0.00  0.00    +0.000 A 
ATOM     19 CL   UNL     1      -1.544  11.074  17.252  0.00  0.00    +0.000 Cl
ATOM     20  C   UNL     1      -1.582  11.620  19.863  0.00  0.00    +0.000 A 
ATOM     21  C   UNL     1      -1.182  11.531  21.197  0.00  0.00    +0.000 A 
ATOM     22  C   UNL     1      -0.153  10.660  21.514  0.00  0.00    +0.000 A 
ATOM     23  C   UNL     1       0.529   9.938  20.507  0.00  0.00    +0.000 A 
ATOM     24 CL   UNL     1       1.751   8.864  21.113  0.00  0.00    +0.000 Cl
ENDBRANCH  16  17
BRANCH  16  25
ATOM     25  O   UNL     1       2.030  10.205  17.548  0.00  0.00    +0.000 OA
ATOM     26  H   UNL     1       1.663  10.715  16.811  0.00  0.00    +0.000 HD
ENDBRANCH  16  25
ENDBRANCH  15  16
ENDBRANCH   1  15
TORSDOF 5
ENDMDL
MODEL 9
REMARK VINA RESULT:      -6.6      3.441      5.459
REMARK  Name = 
REMARK  5 active torsions:
REMARK  status: ('A' for Active; 'I' for Inactive)
REMARK    1  A    between atoms: O_1  and  C_2
REMARK    2  A    between atoms: C_2  and  C_3
REMARK    3  A    between atoms: C_2  and  C_18
REMARK    4  A    between atoms: C_3  and  N_4
REMARK    5  A    between atoms: C_10  and  C_11
REMARK                            x       y       z     vdW  Elec       q    Type
REMARK                         _______ _______ _______ _____ _____    ______ ____
ROOT
ATOM      1  N   UNL     1       2.054   6.148  18.468  0.00  0.00    +0.000 NA
ATOM      2  C   UNL     1       3.459   6.465  18.807  0.00  0.00    +0.000 C 
ATOM      3  C   UNL     1       3.721   5.356  19.892  0.00  0.00    +0.000 C 
ATOM      4  C   UNL     1       3.019   4.096  19.469  0.00  0.00    +0.000 C 
ATOM      5  C   UNL     1       2.345   4.654  18.242  0.00  0.00    +0.000 C 
ATOM      6  C   UNL     1       3.608   4.376  17.094  0.00  0.00    +0.000 C 
ATOM      7  C   UNL     1       4.617   5.579  16.842  0.00  0.00    +0.000 C 
ATOM      8  C   UNL     1       3.758   6.688  17.310  0.00  0.00    +0.000 C 
ENDROOT
BRANCH   7   9
ATOM      9  C   UNL     1       5.977   5.912  17.476  0.00  0.00    +0.000 A 
ATOM     10  C   UNL     1       6.670   5.107  18.353  0.00  0.00    +0.000 A 
ATOM     11  C   UNL     1       7.882   5.578  18.917  0.00  0.00    +0.000 A 
ATOM     12  C   UNL     1       8.367   6.877  18.668  0.00  0.00    +0.000 A 
ATOM     13  C   UNL     1       7.690   7.688  17.794  0.00  0.00    +0.000 A 
ATOM     14  C   UNL     1       6.550   7.187  17.173  0.00  0.00    +0.000 A 
ENDBRANCH   7   9
BRANCH   1  15
ATOM     15  C   UNL     1       1.419   7.187  19.343  0.00  0.00    +0.000 C 
BRANCH  15  16
ATOM     16  C   UNL     1       1.779   8.341  20.368  0.00  0.00    +0.000 C 
BRANCH  16  17
ATOM     17  C   UNL     1       0.831   9.594  20.199  0.00  0.00    +0.000 A 
ATOM     18  C   UNL     1       0.941  10.458  19.084  0.00  0.00    +0.000 A 
ATOM     19 CL   UNL     1       2.027  10.111  17.775  0.00  0.00    +0.000 Cl
ATOM     20  C   UNL     1       0.147  11.611  18.929  0.00  0.00    +0.000 A 
ATOM     21  C   UNL     1      -0.794  11.968  19.895  0.00  0.00    +0.000 A 
ATOM     22  C   UNL     1      -0.988  11.111  20.966  0.00  0.00    +0.000 A 
ATOM     23  C   UNL     1      -0.200   9.946  21.121  0.00  0.00    +0.000 A 
ATOM     24 CL   UNL     1      -0.630   8.981  22.498  0.00  0.00    +0.000 Cl
ENDBRANCH  16  17
BRANCH  16  25
ATOM     25  O   UNL     1       1.714   7.954  21.735  0.00  0.00    +0.000 OA
ATOM     26  H   UNL     1       2.560   8.227  22.119  0.00  0.00    +0.000 HD
ENDBRANCH  16  25
ENDBRANCH  15  16
ENDBRANCH   1  15
TORSDOF 5
ENDMDL
