MODEL 1
REMARK VINA RESULT:      -7.1      0.000      0.000
REMARK  Name = 
REMARK  3 active torsions:
REMARK  status: ('A' for Active; 'I' for Inactive)
REMARK    1  A    between atoms: S_2  and  C_4
REMARK    2  A    between atoms: S_2  and  C_11
REMARK    3  A    between atoms: C_4  and  C_5
REMARK                            x       y       z     vdW  Elec       q    Type
REMARK                         _______ _______ _______ _____ _____    ______ ____
ROOT
ATOM      1  O   UNL     1       6.732   5.465  19.740  0.00  0.00    +0.000 OA
ATOM      2  S   UNL     1       5.680   4.791  19.002  0.00  0.00    +0.000 S 
ATOM      3  O   UNL     1       5.369   3.389  19.207  0.00  0.00    +0.000 OA
ENDROOT
BRANCH   2   4
ATOM      4  C   UNL     1       6.268   4.833  17.379  0.00  0.00    +0.000 A 
ATOM      5  C   UNL     1       5.764   4.137  16.301  0.00  0.00    +0.000 A 
ATOM      6  N   UNL     1       6.591   4.480  15.276  0.00  0.00    +0.000 N 
ATOM      7  N   UNL     1       7.544   5.337  15.684  0.00  0.00    +0.000 NA
ATOM      8  N   UNL     1       7.357   5.562  16.981  0.00  0.00    +0.000 NA
ATOM      9  H   UNL     1       6.580   4.180  14.308  0.00  0.00    +0.000 HD
ENDBRANCH   2   4
BRANCH   2  10
ATOM     10  C   UNL     1       4.180   5.764  18.998  0.00  0.00    +0.000 C 
BRANCH  10  11
ATOM     11  C   UNL     1       2.998   4.855  19.255  0.00  0.00    +0.000 A 
ATOM     12  C   UNL     1       2.371   4.197  18.185  0.00  0.00    +0.000 A 
ATOM     13  C   UNL     1       1.269   3.366  18.403  0.00  0.00    +0.000 A 
ATOM     14  C   UNL     1       0.777   3.182  19.692  0.00  0.00    +0.000 A 
ATOM     15  C   UNL     1       1.388   3.827  20.764  0.00  0.00    +0.000 A 
ATOM     16  C   UNL     1       2.491   4.661  20.549  0.00  0.00    +0.000 A 
ENDBRANCH  10  11
ENDBRANCH   2  10
TORSDOF 3
ENDMDL
MODEL 2
REMARK VINA RESULT:      -6.9      2.265      2.839
REMARK  Name = 
REMARK  3 active torsions:
REMARK  status: ('A' for Active; 'I' for Inactive)
REMARK    1  A    between atoms: S_2  and  C_4
REMARK    2  A    between atoms: S_2  and  C_11
REMARK    3  A    between atoms: C_4  and  C_5
REMARK                            x       y       z     vdW  Elec       q    Type
REMARK                         _______ _______ _______ _____ _____    ______ ____
ROOT
ATOM      1  O   UNL     1       4.946   4.634  15.980  0.00  0.00    +0.000 OA
ATOM      2  S   UNL     1       4.517   4.537  17.362  0.00  0.00    +0.000 S 
ATOM      3  O   UNL     1       3.597   5.489  17.954  0.00  0.00    +0.000 OA
ENDROOT
BRANCH   2   4
ATOM      4  C   UNL     1       5.983   4.808  18.234  0.00  0.00    +0.000 A 
ATOM      5  C   UNL     1       7.267   4.655  17.755  0.00  0.00    +0.000 A 
ATOM      6  N   UNL     1       8.052   4.948  18.828  0.00  0.00    +0.000 N 
ATOM      7  N   UNL     1       7.309   5.269  19.902  0.00  0.00    +0.000 NA
ATOM      8  N   UNL     1       6.029   5.184  19.550  0.00  0.00    +0.000 NA
ATOM      9  H   UNL     1       9.062   4.946  18.910  0.00  0.00    +0.000 HD
ENDBRANCH   2   4
BRANCH   2  10
ATOM     10  C   UNL     1       4.020   2.866  17.759  0.00  0.00    +0.000 C 
BRANCH  10  11
ATOM     11  C   UNL     1       3.036   2.901  18.908  0.00  0.00    +0.000 A 
ATOM     12  C   UNL     1       3.495   2.799  20.231  0.00  0.00    +0.000 A 
ATOM     13  C   UNL     1       2.599   2.814  21.303  0.00  0.00    +0.000 A 
ATOM     14  C   UNL     1       1.232   2.929  21.069  0.00  0.00    +0.000 A 
ATOM     15  C   UNL     1       0.760   3.031  19.763  0.00  0.00    +0.000 A 
ATOM     16  C   UNL     1       1.655   3.016  18.687  0.00  0.00    +0.000 A 
ENDBRANCH  10  11
ENDBRANCH   2  10
TORSDOF 3
ENDMDL
MODEL 3
REMARK VINA RESULT:      -6.9      0.640      1.588
REMARK  Name = 
REMARK  3 active torsions:
REMARK  status: ('A' for Active; 'I' for Inactive)
REMARK    1  A    between atoms: S_2  and  C_4
REMARK    2  A    between atoms: S_2  and  C_11
REMARK    3  A    between atoms: C_4  and  C_5
REMARK                            x       y       z     vdW  Elec       q    Type
REMARK                         _______ _______ _______ _____ _____    ______ ____
ROOT
ATOM      1  O   UNL     1       6.432   5.574  19.805  0.00  0.00    +0.000 OA
ATOM      2  S   UNL     1       5.479   4.745  19.090  0.00  0.00    +0.000 S 
ATOM      3  O   UNL     1       5.193   3.379  19.486  0.00  0.00    +0.000 OA
ENDROOT
BRANCH   2   4
ATOM      4  C   UNL     1       6.222   4.562  17.542  0.00  0.00    +0.000 A 
ATOM      5  C   UNL     1       7.563   4.698  17.250  0.00  0.00    +0.000 A 
ATOM      6  N   UNL     1       7.625   4.498  15.905  0.00  0.00    +0.000 N 
ATOM      7  N   UNL     1       6.408   4.246  15.393  0.00  0.00    +0.000 NA
ATOM      8  N   UNL     1       5.532   4.285  16.393  0.00  0.00    +0.000 NA
ATOM      9  H   UNL     1       8.426   4.520  15.285  0.00  0.00    +0.000 HD
ENDBRANCH   2   4
BRANCH   2  10
ATOM     10  C   UNL     1       3.957   5.636  18.794  0.00  0.00    +0.000 C 
BRANCH  10  11
ATOM     11  C   UNL     1       2.784   4.724  19.084  0.00  0.00    +0.000 A 
ATOM     12  C   UNL     1       2.243   4.664  20.377  0.00  0.00    +0.000 A 
ATOM     13  C   UNL     1       1.171   3.817  20.666  0.00  0.00    +0.000 A 
ATOM     14  C   UNL     1       0.624   3.017  19.666  0.00  0.00    +0.000 A 
ATOM     15  C   UNL     1       1.149   3.065  18.378  0.00  0.00    +0.000 A 
ATOM     16  C   UNL     1       2.224   3.912  18.086  0.00  0.00    +0.000 A 
ENDBRANCH  10  11
ENDBRANCH   2  10
TORSDOF 3
ENDMDL
MODEL 4
REMARK VINA RESULT:      -6.9      0.638      1.392
REMARK  Name = 
REMARK  3 active torsions:
REMARK  status: ('A' for Active; 'I' for Inactive)
REMARK    1  A    between atoms: S_2  and  C_4
REMARK    2  A    between atoms: S_2  and  C_11
REMARK    3  A    between atoms: C_4  and  C_5
REMARK                            x       y       z     vdW  Elec       q    Type
REMARK                         _______ _______ _______ _____ _____    ______ ____
ROOT
ATOM      1  O   UNL     1       6.853   5.917  18.996  0.00  0.00    +0.000 OA
ATOM      2  S   UNL     1       5.799   5.123  18.393  0.00  0.00    +0.000 S 
ATOM      3  O   UNL     1       5.525   3.760  18.808  0.00  0.00    +0.000 OA
ENDROOT
BRANCH   2   4
ATOM      4  C   UNL     1       6.347   4.939  16.765  0.00  0.00    +0.000 A 
ATOM      5  C   UNL     1       5.966   3.960  15.873  0.00  0.00    +0.000 A 
ATOM      6  N   UNL     1       6.702   4.230  14.760  0.00  0.00    +0.000 N 
ATOM      7  N   UNL     1       7.483   5.309  14.942  0.00  0.00    +0.000 NA
ATOM      8  N   UNL     1       7.275   5.756  16.177  0.00  0.00    +0.000 NA
ATOM      9  H   UNL     1       6.733   3.743  13.872  0.00  0.00    +0.000 HD
ENDBRANCH   2   4
BRANCH   2  10
ATOM     10  C   UNL     1       4.278   6.057  18.288  0.00  0.00    +0.000 C 
BRANCH  10  11
ATOM     11  C   UNL     1       3.130   5.190  18.759  0.00  0.00    +0.000 A 
ATOM     12  C   UNL     1       2.768   5.177  20.115  0.00  0.00    +0.000 A 
ATOM     13  C   UNL     1       1.721   4.371  20.569  0.00  0.00    +0.000 A 
ATOM     14  C   UNL     1       1.022   3.566  19.675  0.00  0.00    +0.000 A 
ATOM     15  C   UNL     1       1.368   3.567  18.327  0.00  0.00    +0.000 A 
ATOM     16  C   UNL     1       2.417   4.373  17.869  0.00  0.00    +0.000 A 
ENDBRANCH  10  11
ENDBRANCH   2  10
TORSDOF 3
ENDMDL
MODEL 5
REMARK VINA RESULT:      -6.9      1.560      2.037
REMARK  Name = 
REMARK  3 active torsions:
REMARK  status: ('A' for Active; 'I' for Inactive)
REMARK    1  A    between atoms: S_2  and  C_4
REMARK    2  A    between atoms: S_2  and  C_11
REMARK    3  A    between atoms: C_4  and  C_5
REMARK                            x       y       z     vdW  Elec       q    Type
REMARK                         _______ _______ _______ _____ _____    ______ ____
ROOT
ATOM      1  O   UNL     1       5.531   4.128  19.162  0.00  0.00    +0.000 OA
ATOM      2  S   UNL     1       5.281   4.761  17.881  0.00  0.00    +0.000 S 
ATOM      3  O   UNL     1       5.497   4.073  16.622  0.00  0.00    +0.000 OA
ENDROOT
BRANCH   2   4
ATOM      4  C   UNL     1       6.456   6.026  17.848  0.00  0.00    +0.000 A 
ATOM      5  C   UNL     1       7.544   6.162  18.684  0.00  0.00    +0.000 A 
ATOM      6  N   UNL     1       8.123   7.326  18.279  0.00  0.00    +0.000 N 
ATOM      7  N   UNL     1       7.447   7.875  17.254  0.00  0.00    +0.000 NA
ATOM      8  N   UNL     1       6.414   7.084  16.980  0.00  0.00    +0.000 NA
ATOM      9  H   UNL     1       8.944   7.798  18.638  0.00  0.00    +0.000 HD
ENDBRANCH   2   4
BRANCH   2  10
ATOM     10  C   UNL     1       3.691   5.579  17.874  0.00  0.00    +0.000 C 
BRANCH  10  11
ATOM     11  C   UNL     1       2.683   4.710  18.596  0.00  0.00    +0.000 A 
ATOM     12  C   UNL     1       2.164   3.566  17.970  0.00  0.00    +0.000 A 
ATOM     13  C   UNL     1       1.222   2.761  18.616  0.00  0.00    +0.000 A 
ATOM     14  C   UNL     1       0.785   3.088  19.896  0.00  0.00    +0.000 A 
ATOM     15  C   UNL     1       1.291   4.220  20.532  0.00  0.00    +0.000 A 
ATOM     16  C   UNL     1       2.234   5.028  19.887  0.00  0.00    +0.000 A 
ENDBRANCH  10  11
ENDBRANCH   2  10
TORSDOF 3
ENDMDL
MODEL 6
REMARK VINA RESULT:      -6.8      2.148      2.529
REMARK  Name = 
REMARK  3 active torsions:
REMARK  status: ('A' for Active; 'I' for Inactive)
REMARK    1  A    between atoms: S_2  and  C_4
REMARK    2  A    between atoms: S_2  and  C_11
REMARK    3  A    between atoms: C_4  and  C_5
REMARK                            x       y       z     vdW  Elec       q    Type
REMARK                         _______ _______ _______ _____ _____    ______ ____
ROOT
ATOM      1  O   UNL     1       4.711   3.899  17.386  0.00  0.00    +0.000 OA
ATOM      2  S   UNL     1       4.884   5.338  17.302  0.00  0.00    +0.000 S 
ATOM      3  O   UNL     1       5.266   5.999  16.069  0.00  0.00    +0.000 OA
ENDROOT
BRANCH   2   4
ATOM      4  C   UNL     1       6.238   5.617  18.338  0.00  0.00    +0.000 A 
ATOM      5  C   UNL     1       7.333   6.409  18.067  0.00  0.00    +0.000 A 
ATOM      6  N   UNL     1       8.120   6.265  19.168  0.00  0.00    +0.000 N 
ATOM      7  N   UNL     1       7.551   5.445  20.069  0.00  0.00    +0.000 NA
ATOM      8  N   UNL     1       6.389   5.036  19.568  0.00  0.00    +0.000 NA
ATOM      9  H   UNL     1       9.026   6.671  19.373  0.00  0.00    +0.000 HD
ENDBRANCH   2   4
BRANCH   2  10
ATOM     10  C   UNL     1       3.509   6.190  18.063  0.00  0.00    +0.000 C 
BRANCH  10  11
ATOM     11  C   UNL     1       2.623   5.179  18.758  0.00  0.00    +0.000 A 
ATOM     12  C   UNL     1       1.783   4.344  18.004  0.00  0.00    +0.000 A 
ATOM     13  C   UNL     1       0.947   3.416  18.630  0.00  0.00    +0.000 A 
ATOM     14  C   UNL     1       0.937   3.310  20.018  0.00  0.00    +0.000 A 
ATOM     15  C   UNL     1       1.764   4.131  20.781  0.00  0.00    +0.000 A 
ATOM     16  C   UNL     1       2.602   5.063  20.156  0.00  0.00    +0.000 A 
ENDBRANCH  10  11
ENDBRANCH   2  10
TORSDOF 3
ENDMDL
MODEL 7
REMARK VINA RESULT:      -6.8      2.227      2.914
REMARK  Name = 
REMARK  3 active torsions:
REMARK  status: ('A' for Active; 'I' for Inactive)
REMARK    1  A    between atoms: S_2  and  C_4
REMARK    2  A    between atoms: S_2  and  C_11
REMARK    3  A    between atoms: C_4  and  C_5
REMARK                            x       y       z     vdW  Elec       q    Type
REMARK                         _______ _______ _______ _____ _____    ______ ____
ROOT
ATOM      1  O   UNL     1       4.970   4.140  17.099  0.00  0.00    +0.000 OA
ATOM      2  S   UNL     1       5.205   5.572  17.080  0.00  0.00    +0.000 S 
ATOM      3  O   UNL     1       5.744   6.252  15.917  0.00  0.00    +0.000 OA
ENDROOT
BRANCH   2   4
ATOM      4  C   UNL     1       6.447   5.767  18.264  0.00  0.00    +0.000 A 
ATOM      5  C   UNL     1       7.565   6.568  18.161  0.00  0.00    +0.000 A 
ATOM      6  N   UNL     1       8.236   6.341  19.323  0.00  0.00    +0.000 N 
ATOM      7  N   UNL     1       7.578   5.464  20.103  0.00  0.00    +0.000 NA
ATOM      8  N   UNL     1       6.473   5.100  19.459  0.00  0.00    +0.000 NA
ATOM      9  H   UNL     1       9.117   6.724  19.647  0.00  0.00    +0.000 HD
ENDBRANCH   2   4
BRANCH   2  10
ATOM     10  C   UNL     1       3.788   6.458  17.715  0.00  0.00    +0.000 C 
BRANCH  10  11
ATOM     11  C   UNL     1       2.910   5.499  18.490  0.00  0.00    +0.000 A 
ATOM     12  C   UNL     1       3.011   5.426  19.888  0.00  0.00    +0.000 A 
ATOM     13  C   UNL     1       2.220   4.535  20.618  0.00  0.00    +0.000 A 
ATOM     14  C   UNL     1       1.317   3.704  19.961  0.00  0.00    +0.000 A 
ATOM     15  C   UNL     1       1.205   3.764  18.574  0.00  0.00    +0.000 A 
ATOM     16  C   UNL     1       1.997   4.655  17.841  0.00  0.00    +0.000 A 
ENDBRANCH  10  11
ENDBRANCH   2  10
TORSDOF 3
ENDMDL
MODEL 8
REMARK VINA RESULT:      -6.8      2.262      2.695
REMARK  Name = 
REMARK  3 active torsions:
REMARK  status: ('A' for Active; 'I' for Inactive)
REMARK    1  A    between atoms: S_2  and  C_4
REMARK    2  A    between atoms: S_2  and  C_11
REMARK    3  A    between atoms: C_4  and  C_5
REMARK                            x       y       z     vdW  Elec       q    Type
REMARK                         _______ _______ _______ _____ _____    ______ ____
ROOT
ATOM      1  O   UNL     1       4.743   4.204  15.887  0.00  0.00    +0.000 OA
ATOM      2  S   UNL     1       4.331   4.223  17.278  0.00  0.00    +0.000 S 
ATOM      3  O   UNL     1       3.393   5.202  17.794  0.00  0.00    +0.000 OA
ENDROOT
BRANCH   2   4
ATOM      4  C   UNL     1       5.799   4.608  18.102  0.00  0.00    +0.000 A 
ATOM      5  C   UNL     1       7.068   4.620  17.563  0.00  0.00    +0.000 A 
ATOM      6  N   UNL     1       7.867   4.942  18.617  0.00  0.00    +0.000 N 
ATOM      7  N   UNL     1       7.145   5.126  19.737  0.00  0.00    +0.000 NA
ATOM      8  N   UNL     1       5.867   4.921  19.434  0.00  0.00    +0.000 NA
ATOM      9  H   UNL     1       8.874   5.047  18.657  0.00  0.00    +0.000 HD
ENDBRANCH   2   4
BRANCH   2  10
ATOM     10  C   UNL     1       3.882   2.583  17.831  0.00  0.00    +0.000 C 
BRANCH  10  11
ATOM     11  C   UNL     1       2.932   2.698  19.004  0.00  0.00    +0.000 A 
ATOM     12  C   UNL     1       1.555   2.857  18.782  0.00  0.00    +0.000 A 
ATOM     13  C   UNL     1       0.667   2.981  19.852  0.00  0.00    +0.000 A 
ATOM     14  C   UNL     1       1.141   2.948  21.161  0.00  0.00    +0.000 A 
ATOM     15  C   UNL     1       2.503   2.790  21.399  0.00  0.00    +0.000 A 
ATOM     16  C   UNL     1       3.397   2.667  20.328  0.00  0.00    +0.000 A 
ENDBRANCH  10  11
ENDBRANCH   2  10
TORSDOF 3
ENDMDL
MODEL 9
REMARK VINA RESULT:      -6.7      1.209      1.381
REMARK  Name = 
REMARK  3 active torsions:
REMARK  status: ('A' for Active; 'I' for Inactive)
REMARK    1  A    between atoms: S_2  and  C_4
REMARK    2  A    between atoms: S_2  and  C_11
REMARK    3  A    between atoms: C_4  and  C_5
REMARK                            x       y       z     vdW  Elec       q    Type
REMARK                         _______ _______ _______ _____ _____    ______ ____
ROOT
ATOM      1  O   UNL     1       4.267   5.652  18.700  0.00  0.00    +0.000 OA
ATOM      2  S   UNL     1       5.408   4.802  18.987  0.00  0.00    +0.000 S 
ATOM      3  O   UNL     1       6.507   5.242  19.825  0.00  0.00    +0.000 OA
ENDROOT
BRANCH   2   4
ATOM      4  C   UNL     1       6.142   4.616  17.435  0.00  0.00    +0.000 A 
ATOM      5  C   UNL     1       5.526   4.189  16.278  0.00  0.00    +0.000 A 
ATOM      6  N   UNL     1       6.530   4.177  15.359  0.00  0.00    +0.000 N 
ATOM      7  N   UNL     1       7.693   4.577  15.904  0.00  0.00    +0.000 NA
ATOM      8  N   UNL     1       7.468   4.849  17.186  0.00  0.00    +0.000 NA
ATOM      9  H   UNL     1       6.509   3.915  14.381  0.00  0.00    +0.000 HD
ENDBRANCH   2   4
BRANCH   2  10
ATOM     10  C   UNL     1       4.876   3.165  19.470  0.00  0.00    +0.000 C 
BRANCH  10  11
ATOM     11  C   UNL     1       3.366   3.141  19.564  0.00  0.00    +0.000 A 
ATOM     12  C   UNL     1       2.597   2.764  18.451  0.00  0.00    +0.000 A 
ATOM     13  C   UNL     1       1.202   2.751  18.516  0.00  0.00    +0.000 A 
ATOM     14  C   UNL     1       0.554   3.117  19.692  0.00  0.00    +0.000 A 
ATOM     15  C   UNL     1       1.301   3.493  20.805  0.00  0.00    +0.000 A 
ATOM     16  C   UNL     1       2.700   3.508  20.743  0.00  0.00    +0.000 A 
ENDBRANCH  10  11
ENDBRANCH   2  10
TORSDOF 3
ENDMDL
