MODEL 1
REMARK VINA RESULT:      -6.8      0.000      0.000
REMARK  Name = 
REMARK  4 active torsions:
REMARK  status: ('A' for Active; 'I' for Inactive)
REMARK    1  A    between atoms: C_1  and  C_2
REMARK    2  A    between atoms: N_7  and  C_8
REMARK    3  A    between atoms: C_15  and  C_16
REMARK    4  A    between atoms: C_15  and  C_17
REMARK                            x       y       z     vdW  Elec       q    Type
REMARK                         _______ _______ _______ _____ _____    ______ ____
ROOT
ATOM      1  C   UNL     1       7.838   6.737  18.511  0.00  0.00    +0.000 C 
ATOM      2  C   UNL     1       6.569   5.953  18.509  0.00  0.00    +0.000 C 
ATOM      3  N   UNL     1       6.388   4.994  19.346  0.00  0.00    +0.000 NA
ATOM      4  O   UNL     1       5.120   4.450  19.082  0.00  0.00    +0.000 OA
ATOM      5  C   UNL     1       4.436   5.213  18.046  0.00  0.00    +0.000 C 
ATOM      6  C   UNL     1       5.470   6.213  17.540  0.00  0.00    +0.000 C 
ATOM      7  N   UNL     1       3.923   4.267  17.019  0.00  0.00    +0.000 N 
ATOM      8  C   UNL     1       4.819   3.401  16.280  0.00  0.00    +0.000 C 
ATOM      9  C   UNL     1       2.866   3.658  17.756  0.00  0.00    +0.000 A 
ATOM     10  C   UNL     1       2.406   2.355  17.694  0.00  0.00    +0.000 A 
ATOM     11  C   UNL     1       1.414   1.948  18.595  0.00  0.00    +0.000 A 
ATOM     12  C   UNL     1       0.857   2.852  19.513  0.00  0.00    +0.000 A 
ATOM     13  C   UNL     1       1.305   4.170  19.571  0.00  0.00    +0.000 A 
ATOM     14  C   UNL     1       2.323   4.547  18.709  0.00  0.00    +0.000 A 
ATOM     15  C   UNL     1       3.116   5.837  18.656  0.00  0.00    +0.000 C 
ATOM     16  C   UNL     1       2.374   6.803  17.705  0.00  0.00    +0.000 C 
ATOM     17  C   UNL     1       3.329   6.511  20.012  0.00  0.00    +0.000 C 
ENDROOT
TORSDOF 0
ENDMDL
MODEL 2
REMARK VINA RESULT:      -6.5      1.721      2.161
REMARK  Name = 
REMARK  4 active torsions:
REMARK  status: ('A' for Active; 'I' for Inactive)
REMARK    1  A    between atoms: C_1  and  C_2
REMARK    2  A    between atoms: N_7  and  C_8
REMARK    3  A    between atoms: C_15  and  C_16
REMARK    4  A    between atoms: C_15  and  C_17
REMARK                            x       y       z     vdW  Elec       q    Type
REMARK                         _______ _______ _______ _____ _____    ______ ____
ROOT
ATOM      1  C   UNL     1       7.011   4.724  15.762  0.00  0.00    +0.000 C 
ATOM      2  C   UNL     1       6.011   4.392  16.817  0.00  0.00    +0.000 C 
ATOM      3  N   UNL     1       6.360   4.320  18.053  0.00  0.00    +0.000 NA
ATOM      4  O   UNL     1       5.212   3.977  18.786  0.00  0.00    +0.000 OA
ATOM      5  C   UNL     1       4.042   3.926  17.920  0.00  0.00    +0.000 C 
ATOM      6  C   UNL     1       4.585   4.104  16.506  0.00  0.00    +0.000 C 
ATOM      7  N   UNL     1       3.326   2.645  18.160  0.00  0.00    +0.000 N 
ATOM      8  C   UNL     1       3.977   1.368  17.943  0.00  0.00    +0.000 C 
ATOM      9  C   UNL     1       2.789   2.905  19.454  0.00  0.00    +0.000 A 
ATOM     10  C   UNL     1       2.579   2.023  20.498  0.00  0.00    +0.000 A 
ATOM     11  C   UNL     1       2.132   2.527  21.726  0.00  0.00    +0.000 A 
ATOM     12  C   UNL     1       1.850   3.893  21.886  0.00  0.00    +0.000 A 
ATOM     13  C   UNL     1       2.045   4.785  20.834  0.00  0.00    +0.000 A 
ATOM     14  C   UNL     1       2.537   4.282  19.640  0.00  0.00    +0.000 A 
ATOM     15  C   UNL     1       3.001   5.017  18.399  0.00  0.00    +0.000 C 
ATOM     16  C   UNL     1       1.778   5.179  17.469  0.00  0.00    +0.000 C 
ATOM     17  C   UNL     1       3.629   6.385  18.666  0.00  0.00    +0.000 C 
ENDROOT
TORSDOF 0
ENDMDL
MODEL 3
REMARK VINA RESULT:      -6.5      1.920      4.446
REMARK  Name = 
REMARK  4 active torsions:
REMARK  status: ('A' for Active; 'I' for Inactive)
REMARK    1  A    between atoms: C_1  and  C_2
REMARK    2  A    between atoms: N_7  and  C_8
REMARK    3  A    between atoms: C_15  and  C_16
REMARK    4  A    between atoms: C_15  and  C_17
REMARK                            x       y       z     vdW  Elec       q    Type
REMARK                         _______ _______ _______ _____ _____    ______ ____
ROOT
ATOM      1  C   UNL     1       2.612   2.650  21.685  0.00  0.00    +0.000 C 
ATOM      2  C   UNL     1       3.370   3.112  20.486  0.00  0.00    +0.000 C 
ATOM      3  N   UNL     1       3.977   2.269  19.728  0.00  0.00    +0.000 NA
ATOM      4  O   UNL     1       4.603   3.008  18.710  0.00  0.00    +0.000 OA
ATOM      5  C   UNL     1       4.265   4.421  18.814  0.00  0.00    +0.000 C 
ATOM      6  C   UNL     1       3.487   4.550  20.119  0.00  0.00    +0.000 C 
ATOM      7  N   UNL     1       5.520   5.217  18.751  0.00  0.00    +0.000 N 
ATOM      8  C   UNL     1       6.574   5.038  19.729  0.00  0.00    +0.000 C 
ATOM      9  C   UNL     1       5.851   5.040  17.377  0.00  0.00    +0.000 A 
ATOM     10  C   UNL     1       7.101   4.947  16.792  0.00  0.00    +0.000 A 
ATOM     11  C   UNL     1       7.185   4.668  15.422  0.00  0.00    +0.000 A 
ATOM     12  C   UNL     1       6.026   4.534  14.641  0.00  0.00    +0.000 A 
ATOM     13  C   UNL     1       4.764   4.642  15.220  0.00  0.00    +0.000 A 
ATOM     14  C   UNL     1       4.694   4.866  16.586  0.00  0.00    +0.000 A 
ATOM     15  C   UNL     1       3.491   4.862  17.506  0.00  0.00    +0.000 C 
ATOM     16  C   UNL     1       2.934   6.302  17.554  0.00  0.00    +0.000 C 
ATOM     17  C   UNL     1       2.380   3.893  17.099  0.00  0.00    +0.000 C 
ENDROOT
TORSDOF 0
ENDMDL
MODEL 4
REMARK VINA RESULT:      -6.2      1.710      4.735
REMARK  Name = 
REMARK  4 active torsions:
REMARK  status: ('A' for Active; 'I' for Inactive)
REMARK    1  A    between atoms: C_1  and  C_2
REMARK    2  A    between atoms: N_7  and  C_8
REMARK    3  A    between atoms: C_15  and  C_16
REMARK    4  A    between atoms: C_15  and  C_17
REMARK                            x       y       z     vdW  Elec       q    Type
REMARK                         _______ _______ _______ _____ _____    ______ ____
ROOT
ATOM      1  C   UNL     1       1.316   2.527  22.016  0.00  0.00    +0.000 C 
ATOM      2  C   UNL     1       2.097   3.206  20.943  0.00  0.00    +0.000 C 
ATOM      3  N   UNL     1       3.369   3.360  21.054  0.00  0.00    +0.000 NA
ATOM      4  O   UNL     1       3.804   4.039  19.903  0.00  0.00    +0.000 OA
ATOM      5  C   UNL     1       2.702   4.232  18.970  0.00  0.00    +0.000 C 
ATOM      6  C   UNL     1       1.460   3.757  19.716  0.00  0.00    +0.000 C 
ATOM      7  N   UNL     1       2.675   5.660  18.553  0.00  0.00    +0.000 N 
ATOM      8  C   UNL     1       2.501   6.723  19.523  0.00  0.00    +0.000 C 
ATOM      9  C   UNL     1       3.837   5.695  17.730  0.00  0.00    +0.000 A 
ATOM     10  C   UNL     1       4.735   6.730  17.543  0.00  0.00    +0.000 A 
ATOM     11  C   UNL     1       5.872   6.501  16.758  0.00  0.00    +0.000 A 
ATOM     12  C   UNL     1       6.078   5.263  16.129  0.00  0.00    +0.000 A 
ATOM     13  C   UNL     1       5.170   4.221  16.301  0.00  0.00    +0.000 A 
ATOM     14  C   UNL     1       4.075   4.443  17.121  0.00  0.00    +0.000 A 
ATOM     15  C   UNL     1       3.030   3.469  17.623  0.00  0.00    +0.000 C 
ATOM     16  C   UNL     1       1.871   3.459  16.601  0.00  0.00    +0.000 C 
ATOM     17  C   UNL     1       3.538   2.043  17.838  0.00  0.00    +0.000 C 
ENDROOT
TORSDOF 0
ENDMDL
MODEL 5
REMARK VINA RESULT:      -6.1      1.761      4.546
REMARK  Name = 
REMARK  4 active torsions:
REMARK  status: ('A' for Active; 'I' for Inactive)
REMARK    1  A    between atoms: C_1  and  C_2
REMARK    2  A    between atoms: N_7  and  C_8
REMARK    3  A    between atoms: C_15  and  C_16
REMARK    4  A    between atoms: C_15  and  C_17
REMARK                            x       y       z     vdW  Elec       q    Type
REMARK                         _______ _______ _______ _____ _____    ______ ____
ROOT
ATOM      1  C   UNL     1       0.299   3.294  20.182  0.00  0.00    +0.000 C 
ATOM      2  C   UNL     1       1.397   3.567  19.210  0.00  0.00    +0.000 C 
ATOM      3  N   UNL     1       1.140   3.738  17.961  0.00  0.00    +0.000 NA
ATOM      4  O   UNL     1       2.368   3.956  17.314  0.00  0.00    +0.000 OA
ATOM      5  C   UNL     1       3.458   4.011  18.279  0.00  0.00    +0.000 C 
ATOM      6  C   UNL     1       2.827   3.630  19.614  0.00  0.00    +0.000 C 
ATOM      7  N   UNL     1       4.547   3.107  17.820  0.00  0.00    +0.000 N 
ATOM      8  C   UNL     1       4.318   1.688  17.632  0.00  0.00    +0.000 C 
ATOM      9  C   UNL     1       5.030   3.855  16.708  0.00  0.00    +0.000 A 
ATOM     10  C   UNL     1       5.548   3.392  15.512  0.00  0.00    +0.000 A 
ATOM     11  C   UNL     1       5.868   4.320  14.512  0.00  0.00    +0.000 A 
ATOM     12  C   UNL     1       5.716   5.698  14.732  0.00  0.00    +0.000 A 
ATOM     13  C   UNL     1       5.209   6.172  15.940  0.00  0.00    +0.000 A 
ATOM     14  C   UNL     1       4.848   5.242  16.901  0.00  0.00    +0.000 A 
ATOM     15  C   UNL     1       4.127   5.443  18.218  0.00  0.00    +0.000 C 
ATOM     16  C   UNL     1       5.198   5.690  19.304  0.00  0.00    +0.000 C 
ATOM     17  C   UNL     1       3.115   6.590  18.223  0.00  0.00    +0.000 C 
ENDROOT
TORSDOF 0
ENDMDL
MODEL 6
REMARK VINA RESULT:      -6.1      6.845      8.814
REMARK  Name = 
REMARK  4 active torsions:
REMARK  status: ('A' for Active; 'I' for Inactive)
REMARK    1  A    between atoms: C_1  and  C_2
REMARK    2  A    between atoms: N_7  and  C_8
REMARK    3  A    between atoms: C_15  and  C_16
REMARK    4  A    between atoms: C_15  and  C_17
REMARK                            x       y       z     vdW  Elec       q    Type
REMARK                         _______ _______ _______ _____ _____    ______ ____
ROOT
ATOM      1  C   UNL     1      -2.942  11.025  15.613  0.00  0.00    +0.000 C 
ATOM      2  C   UNL     1      -2.354  10.875  16.976  0.00  0.00    +0.000 C 
ATOM      3  N   UNL     1      -2.633   9.851  17.702  0.00  0.00    +0.000 NA
ATOM      4  O   UNL     1      -1.947  10.009  18.918  0.00  0.00    +0.000 OA
ATOM      5  C   UNL     1      -1.104  11.197  18.885  0.00  0.00    +0.000 C 
ATOM      6  C   UNL     1      -1.449  11.894  17.574  0.00  0.00    +0.000 C 
ATOM      7  N   UNL     1      -1.364  12.000  20.109  0.00  0.00    +0.000 N 
ATOM      8  C   UNL     1      -2.686  12.519  20.402  0.00  0.00    +0.000 C 
ATOM      9  C   UNL     1      -0.747  11.164  21.085  0.00  0.00    +0.000 A 
ATOM     10  C   UNL     1      -1.119  10.947  22.399  0.00  0.00    +0.000 A 
ATOM     11  C   UNL     1      -0.417   9.994  23.148  0.00  0.00    +0.000 A 
ATOM     12  C   UNL     1       0.675   9.305  22.598  0.00  0.00    +0.000 A 
ATOM     13  C   UNL     1       1.064   9.530  21.279  0.00  0.00    +0.000 A 
ATOM     14  C   UNL     1       0.330  10.437  20.533  0.00  0.00    +0.000 A 
ATOM     15  C   UNL     1       0.407  10.759  19.054  0.00  0.00    +0.000 C 
ATOM     16  C   UNL     1       1.424  11.909  18.879  0.00  0.00    +0.000 C 
ATOM     17  C   UNL     1       0.804   9.580  18.165  0.00  0.00    +0.000 C 
ENDROOT
TORSDOF 0
ENDMDL
MODEL 7
REMARK VINA RESULT:      -6.0      1.885      4.583
REMARK  Name = 
REMARK  4 active torsions:
REMARK  status: ('A' for Active; 'I' for Inactive)
REMARK    1  A    between atoms: C_1  and  C_2
REMARK    2  A    between atoms: N_7  and  C_8
REMARK    3  A    between atoms: C_15  and  C_16
REMARK    4  A    between atoms: C_15  and  C_17
REMARK                            x       y       z     vdW  Elec       q    Type
REMARK                         _______ _______ _______ _____ _____    ______ ____
ROOT
ATOM      1  C   UNL     1       2.213   7.043  20.204  0.00  0.00    +0.000 C 
ATOM      2  C   UNL     1       3.073   6.455  19.137  0.00  0.00    +0.000 C 
ATOM      3  N   UNL     1       2.844   6.705  17.896  0.00  0.00    +0.000 NA
ATOM      4  O   UNL     1       3.804   6.001  17.150  0.00  0.00    +0.000 OA
ATOM      5  C   UNL     1       4.757   5.336  18.029  0.00  0.00    +0.000 C 
ATOM      6  C   UNL     1       4.209   5.542  19.437  0.00  0.00    +0.000 C 
ATOM      7  N   UNL     1       4.884   3.916  17.607  0.00  0.00    +0.000 N 
ATOM      8  C   UNL     1       3.738   3.028  17.600  0.00  0.00    +0.000 C 
ATOM      9  C   UNL     1       5.600   4.088  16.387  0.00  0.00    +0.000 A 
ATOM     10  C   UNL     1       5.515   3.348  15.222  0.00  0.00    +0.000 A 
ATOM     11  C   UNL     1       6.246   3.768  14.103  0.00  0.00    +0.000 A 
ATOM     12  C   UNL     1       7.091   4.887  14.171  0.00  0.00    +0.000 A 
ATOM     13  C   UNL     1       7.193   5.628  15.347  0.00  0.00    +0.000 A 
ATOM     14  C   UNL     1       6.425   5.233  16.431  0.00  0.00    +0.000 A 
ATOM     15  C   UNL     1       6.201   5.924  17.760  0.00  0.00    +0.000 C 
ATOM     16  C   UNL     1       7.285   5.418  18.738  0.00  0.00    +0.000 C 
ATOM     17  C   UNL     1       6.236   7.452  17.698  0.00  0.00    +0.000 C 
ENDROOT
TORSDOF 0
ENDMDL
MODEL 8
REMARK VINA RESULT:      -5.9      1.650      4.971
REMARK  Name = 
REMARK  4 active torsions:
REMARK  status: ('A' for Active; 'I' for Inactive)
REMARK    1  A    between atoms: C_1  and  C_2
REMARK    2  A    between atoms: N_7  and  C_8
REMARK    3  A    between atoms: C_15  and  C_16
REMARK    4  A    between atoms: C_15  and  C_17
REMARK                            x       y       z     vdW  Elec       q    Type
REMARK                         _______ _______ _______ _____ _____    ______ ____
ROOT
ATOM      1  C   UNL     1       0.548   4.068  20.343  0.00  0.00    +0.000 C 
ATOM      2  C   UNL     1       1.846   4.556  19.794  0.00  0.00    +0.000 C 
ATOM      3  N   UNL     1       2.753   5.030  20.574  0.00  0.00    +0.000 NA
ATOM      4  O   UNL     1       3.834   5.413  19.763  0.00  0.00    +0.000 OA
ATOM      5  C   UNL     1       3.591   5.053  18.373  0.00  0.00    +0.000 C 
ATOM      6  C   UNL     1       2.153   4.546  18.338  0.00  0.00    +0.000 C 
ATOM      7  N   UNL     1       3.858   6.241  17.519  0.00  0.00    +0.000 N 
ATOM      8  C   UNL     1       3.118   7.475  17.693  0.00  0.00    +0.000 C 
ATOM      9  C   UNL     1       5.279   6.298  17.619  0.00  0.00    +0.000 A 
ATOM     10  C   UNL     1       6.102   7.409  17.629  0.00  0.00    +0.000 A 
ATOM     11  C   UNL     1       7.474   7.229  17.843  0.00  0.00    +0.000 A 
ATOM     12  C   UNL     1       8.018   5.943  17.994  0.00  0.00    +0.000 A 
ATOM     13  C   UNL     1       7.196   4.818  17.970  0.00  0.00    +0.000 A 
ATOM     14  C   UNL     1       5.834   5.014  17.810  0.00  0.00    +0.000 A 
ATOM     15  C   UNL     1       4.696   4.019  17.910  0.00  0.00    +0.000 C 
ATOM     16  C   UNL     1       4.464   3.431  16.500  0.00  0.00    +0.000 C 
ATOM     17  C   UNL     1       4.927   2.885  18.909  0.00  0.00    +0.000 C 
ENDROOT
TORSDOF 0
ENDMDL
MODEL 9
REMARK VINA RESULT:      -5.7      1.850      3.388
REMARK  Name = 
REMARK  4 active torsions:
REMARK  status: ('A' for Active; 'I' for Inactive)
REMARK    1  A    between atoms: C_1  and  C_2
REMARK    2  A    between atoms: N_7  and  C_8
REMARK    3  A    between atoms: C_15  and  C_16
REMARK    4  A    between atoms: C_15  and  C_17
REMARK                            x       y       z     vdW  Elec       q    Type
REMARK                         _______ _______ _______ _____ _____    ______ ____
ROOT
ATOM      1  C   UNL     1       6.707   4.126  15.273  0.00  0.00    +0.000 C 
ATOM      2  C   UNL     1       5.641   4.123  16.316  0.00  0.00    +0.000 C 
ATOM      3  N   UNL     1       4.407   4.287  15.994  0.00  0.00    +0.000 NA
ATOM      4  O   UNL     1       3.663   4.251  17.185  0.00  0.00    +0.000 OA
ATOM      5  C   UNL     1       4.521   3.947  18.323  0.00  0.00    +0.000 C 
ATOM      6  C   UNL     1       5.940   3.960  17.765  0.00  0.00    +0.000 C 
ATOM      7  N   UNL     1       4.261   4.943  19.396  0.00  0.00    +0.000 N 
ATOM      8  C   UNL     1       4.466   6.361  19.173  0.00  0.00    +0.000 C 
ATOM      9  C   UNL     1       2.967   4.517  19.815  0.00  0.00    +0.000 A 
ATOM     10  C   UNL     1       1.911   5.281  20.276  0.00  0.00    +0.000 A 
ATOM     11  C   UNL     1       0.687   4.651  20.535  0.00  0.00    +0.000 A 
ATOM     12  C   UNL     1       0.542   3.264  20.379  0.00  0.00    +0.000 A 
ATOM     13  C   UNL     1       1.607   2.486  19.929  0.00  0.00    +0.000 A 
ATOM     14  C   UNL     1       2.797   3.128  19.627  0.00  0.00    +0.000 A 
ATOM     15  C   UNL     1       4.050   2.584  18.972  0.00  0.00    +0.000 C 
ATOM     16  C   UNL     1       4.975   2.062  20.094  0.00  0.00    +0.000 C 
ATOM     17  C   UNL     1       3.803   1.474  17.949  0.00  0.00    +0.000 C 
ENDROOT
TORSDOF 0
ENDMDL
