MODEL 1
REMARK VINA RESULT:      -8.2      0.000      0.000
REMARK  Name = 
REMARK  7 active torsions:
REMARK  status: ('A' for Active; 'I' for Inactive)
REMARK    1  A    between atoms: C_1  and  O_2
REMARK    2  A    between atoms: O_2  and  C_3
REMARK    3  A    between atoms: C_6  and  N_7
REMARK    4  A    between atoms: C_8  and  C_10
REMARK    5  A    between atoms: C_10  and  N_11
REMARK    6  A    between atoms: C_19  and  S_20
REMARK    7  A    between atoms: S_20  and  N_23
REMARK                            x       y       z     vdW  Elec       q    Type
REMARK                         _______ _______ _______ _____ _____    ______ ____
ROOT
ATOM      1  N   UNL     1       0.758   9.901  19.923  0.00  0.00    +0.000 N 
ATOM      2  C   UNL     1       0.751  11.183  19.369  0.00  0.00    +0.000 C 
ATOM      3  O   UNL     1      -0.081  12.042  19.649  0.00  0.00    +0.000 OA
ATOM      4  C   UNL     1       1.911  11.442  18.421  0.00  0.00    +0.000 C 
ATOM      5  O   UNL     1       2.213  10.367  17.540  0.00  0.00    +0.000 OA
ATOM      6  C   UNL     1       2.286   9.162  18.188  0.00  0.00    +0.000 A 
ATOM      7  C   UNL     1       2.960   8.143  17.512  0.00  0.00    +0.000 A 
ATOM      8  C   UNL     1       3.040   6.867  18.068  0.00  0.00    +0.000 A 
ATOM      9  C   UNL     1       2.468   6.632  19.317  0.00  0.00    +0.000 A 
ATOM     10  C   UNL     1       1.796   7.655  20.005  0.00  0.00    +0.000 A 
ATOM     11  C   UNL     1       1.644   8.912  19.409  0.00  0.00    +0.000 A 
ENDROOT
BRANCH   9  12
ATOM     12  S   UNL     1       2.598   5.012  20.047  0.00  0.00    +0.000 S 
ATOM     13  O   UNL     1       3.894   4.481  19.689  0.00  0.00    +0.000 OA
ATOM     14  O   UNL     1       2.219   5.144  21.437  0.00  0.00    +0.000 OA
BRANCH  12  15
ATOM     15  N   UNL     1       1.412   4.097  19.230  0.00  0.00    +0.000 NA
ATOM     16  C   UNL     1       1.246   2.659  19.606  0.00  0.00    +0.000 C 
ATOM     17  C   UNL     1       2.407   1.812  19.085  0.00  0.00    +0.000 C 
ATOM     18  O   UNL     1       2.523   1.919  17.658  0.00  0.00    +0.000 OA
ATOM     19  C   UNL     1       2.657   3.279  17.211  0.00  0.00    +0.000 C 
ATOM     20  C   UNL     1       1.517   4.170  17.730  0.00  0.00    +0.000 C 
ENDBRANCH  12  15
ENDBRANCH   9  12
BRANCH   1  21
ATOM     21  C   UNL     1      -0.314   9.549  20.849  0.00  0.00    +0.000 C 
BRANCH  21  23
ATOM     22  N   UNL     1      -1.646  11.387  21.880  0.00  0.00    +0.000 N 
ATOM     23  C   UNL     1      -0.553  10.538  22.006  0.00  0.00    +0.000 C 
ATOM     24  O   UNL     1       0.212  10.509  22.969  0.00  0.00    +0.000 OA
ATOM     25  H   UNL     1      -2.203  11.289  21.037  0.00  0.00    +0.000 HD
BRANCH  22  29
ATOM     26  C   UNL     1      -2.783  14.417  24.635  0.00  0.00    +0.000 A 
ATOM     27  C   UNL     1      -3.596  13.302  24.444  0.00  0.00    +0.000 A 
ATOM     28  C   UNL     1      -3.234  12.301  23.537  0.00  0.00    +0.000 A 
ATOM     29  C   UNL     1      -2.058  12.386  22.794  0.00  0.00    +0.000 A 
ATOM     30  C   UNL     1      -1.245  13.514  22.967  0.00  0.00    +0.000 A 
ATOM     31  C   UNL     1      -1.614  14.526  23.871  0.00  0.00    +0.000 A 
ATOM     32 CL   UNL     1      -0.574  15.902  24.021  0.00  0.00    +0.000 Cl
BRANCH  26  34
ATOM     33  C   UNL     1      -3.981  16.427  24.988  0.00  0.00    +0.000 C 
ATOM     34  O   UNL     1      -3.096  15.432  25.502  0.00  0.00    +0.000 OA
ENDBRANCH  26  34
ENDBRANCH  22  29
ENDBRANCH  21  23
ENDBRANCH   1  21
TORSDOF 6
ENDMDL
MODEL 2
REMARK VINA RESULT:      -7.9      3.155      6.319
REMARK  Name = 
REMARK  7 active torsions:
REMARK  status: ('A' for Active; 'I' for Inactive)
REMARK    1  A    between atoms: C_1  and  O_2
REMARK    2  A    between atoms: O_2  and  C_3
REMARK    3  A    between atoms: C_6  and  N_7
REMARK    4  A    between atoms: C_8  and  C_10
REMARK    5  A    between atoms: C_10  and  N_11
REMARK    6  A    between atoms: C_19  and  S_20
REMARK    7  A    between atoms: S_20  and  N_23
REMARK                            x       y       z     vdW  Elec       q    Type
REMARK                         _______ _______ _______ _____ _____    ______ ____
ROOT
ATOM      1  N   UNL     1       2.378   3.922  19.888  0.00  0.00    +0.000 N 
ATOM      2  C   UNL     1       1.704   2.765  20.285  0.00  0.00    +0.000 C 
ATOM      3  O   UNL     1       1.186   2.622  21.389  0.00  0.00    +0.000 OA
ATOM      4  C   UNL     1       1.619   1.707  19.196  0.00  0.00    +0.000 C 
ATOM      5  O   UNL     1       2.812   1.526  18.444  0.00  0.00    +0.000 OA
ATOM      6  C   UNL     1       3.353   2.711  18.023  0.00  0.00    +0.000 A 
ATOM      7  C   UNL     1       4.263   2.629  16.968  0.00  0.00    +0.000 A 
ATOM      8  C   UNL     1       4.906   3.776  16.505  0.00  0.00    +0.000 A 
ATOM      9  C   UNL     1       4.605   5.006  17.088  0.00  0.00    +0.000 A 
ATOM     10  C   UNL     1       3.685   5.097  18.144  0.00  0.00    +0.000 A 
ATOM     11  C   UNL     1       3.103   3.935  18.662  0.00  0.00    +0.000 A 
ENDROOT
BRANCH   9  12
ATOM     12  S   UNL     1       5.398   6.480  16.477  0.00  0.00    +0.000 S 
ATOM     13  O   UNL     1       5.045   6.611  15.081  0.00  0.00    +0.000 OA
ATOM     14  O   UNL     1       5.095   7.541  17.411  0.00  0.00    +0.000 OA
BRANCH  12  15
ATOM     15  N   UNL     1       7.063   6.117  16.566  0.00  0.00    +0.000 NA
ATOM     16  C   UNL     1       7.519   5.143  17.605  0.00  0.00    +0.000 C 
ATOM     17  C   UNL     1       7.473   5.761  19.003  0.00  0.00    +0.000 C 
ATOM     18  O   UNL     1       8.286   6.942  19.071  0.00  0.00    +0.000 OA
ATOM     19  C   UNL     1       7.929   7.920  18.080  0.00  0.00    +0.000 C 
ATOM     20  C   UNL     1       7.945   7.333  16.659  0.00  0.00    +0.000 C 
ENDBRANCH  12  15
ENDBRANCH   9  12
BRANCH   1  21
ATOM     21  C   UNL     1       2.517   5.001  20.860  0.00  0.00    +0.000 C 
BRANCH  21  23
ATOM     22  N   UNL     1       1.968   7.431  20.765  0.00  0.00    +0.000 N 
ATOM     23  C   UNL     1       1.475   6.131  20.762  0.00  0.00    +0.000 C 
ATOM     24  O   UNL     1       0.287   5.827  20.669  0.00  0.00    +0.000 OA
ATOM     25  H   UNL     1       2.975   7.535  20.829  0.00  0.00    +0.000 HD
BRANCH  22  29
ATOM     26  C   UNL     1      -0.354  10.989  20.656  0.00  0.00    +0.000 A 
ATOM     27  C   UNL     1       0.370  10.590  19.535  0.00  0.00    +0.000 A 
ATOM     28  C   UNL     1       1.141   9.423  19.561  0.00  0.00    +0.000 A 
ATOM     29  C   UNL     1       1.215   8.627  20.703  0.00  0.00    +0.000 A 
ATOM     30  C   UNL     1       0.505   9.034  21.840  0.00  0.00    +0.000 A 
ATOM     31  C   UNL     1      -0.262  10.212  21.819  0.00  0.00    +0.000 A 
ATOM     32 CL   UNL     1      -1.098  10.666  23.264  0.00  0.00    +0.000 Cl
BRANCH  26  34
ATOM     33  C   UNL     1      -0.406  13.333  20.980  0.00  0.00    +0.000 C 
ATOM     34  O   UNL     1      -1.115  12.129  20.688  0.00  0.00    +0.000 OA
ENDBRANCH  26  34
ENDBRANCH  22  29
ENDBRANCH  21  23
ENDBRANCH   1  21
TORSDOF 6
ENDMDL
MODEL 3
REMARK VINA RESULT:      -7.8      3.229      6.150
REMARK  Name = 
REMARK  7 active torsions:
REMARK  status: ('A' for Active; 'I' for Inactive)
REMARK    1  A    between atoms: C_1  and  O_2
REMARK    2  A    between atoms: O_2  and  C_3
REMARK    3  A    between atoms: C_6  and  N_7
REMARK    4  A    between atoms: C_8  and  C_10
REMARK    5  A    between atoms: C_10  and  N_11
REMARK    6  A    between atoms: C_19  and  S_20
REMARK    7  A    between atoms: S_20  and  N_23
REMARK                            x       y       z     vdW  Elec       q    Type
REMARK                         _______ _______ _______ _____ _____    ______ ____
ROOT
ATOM      1  N   UNL     1       2.262   4.078  19.915  0.00  0.00    +0.000 N 
ATOM      2  C   UNL     1       1.549   2.938  20.293  0.00  0.00    +0.000 C 
ATOM      3  O   UNL     1       1.036   2.790  21.399  0.00  0.00    +0.000 OA
ATOM      4  C   UNL     1       1.416   1.908  19.183  0.00  0.00    +0.000 C 
ATOM      5  O   UNL     1       2.595   1.699  18.417  0.00  0.00    +0.000 OA
ATOM      6  C   UNL     1       3.176   2.873  18.016  0.00  0.00    +0.000 A 
ATOM      7  C   UNL     1       4.073   2.780  16.950  0.00  0.00    +0.000 A 
ATOM      8  C   UNL     1       4.753   3.913  16.507  0.00  0.00    +0.000 A 
ATOM      9  C   UNL     1       4.503   5.140  17.118  0.00  0.00    +0.000 A 
ATOM     10  C   UNL     1       3.596   5.242  18.184  0.00  0.00    +0.000 A 
ATOM     11  C   UNL     1       2.976   4.090  18.683  0.00  0.00    +0.000 A 
ENDROOT
BRANCH   9  12
ATOM     12  S   UNL     1       5.344   6.597  16.531  0.00  0.00    +0.000 S 
ATOM     13  O   UNL     1       4.978   6.775  15.144  0.00  0.00    +0.000 OA
ATOM     14  O   UNL     1       5.094   7.646  17.495  0.00  0.00    +0.000 OA
BRANCH  12  15
ATOM     15  N   UNL     1       6.995   6.168  16.588  0.00  0.00    +0.000 NA
ATOM     16  C   UNL     1       7.430   5.166  17.610  0.00  0.00    +0.000 C 
ATOM     17  C   UNL     1       7.431   5.772  19.014  0.00  0.00    +0.000 C 
ATOM     18  O   UNL     1       8.291   6.919  19.079  0.00  0.00    +0.000 OA
ATOM     19  C   UNL     1       7.956   7.921  18.104  0.00  0.00    +0.000 C 
ATOM     20  C   UNL     1       7.925   7.348  16.678  0.00  0.00    +0.000 C 
ENDBRANCH  12  15
ENDBRANCH   9  12
BRANCH   1  21
ATOM     21  C   UNL     1       2.448   5.130  20.909  0.00  0.00    +0.000 C 
BRANCH  21  23
ATOM     22  N   UNL     1       1.847   7.531  21.210  0.00  0.00    +0.000 N 
ATOM     23  C   UNL     1       1.394   6.253  20.903  0.00  0.00    +0.000 C 
ATOM     24  O   UNL     1       0.233   5.965  20.616  0.00  0.00    +0.000 OA
ATOM     25  H   UNL     1       2.837   7.625  21.411  0.00  0.00    +0.000 HD
BRANCH  22  29
ATOM     26  C   UNL     1      -0.435  11.113  21.351  0.00  0.00    +0.000 A 
ATOM     27  C   UNL     1      -0.163  10.408  22.522  0.00  0.00    +0.000 A 
ATOM     28  C   UNL     1       0.584   9.227  22.486  0.00  0.00    +0.000 A 
ATOM     29  C   UNL     1       1.073   8.713  21.287  0.00  0.00    +0.000 A 
ATOM     30  C   UNL     1       0.786   9.406  20.104  0.00  0.00    +0.000 A 
ATOM     31  C   UNL     1       0.026  10.589  20.137  0.00  0.00    +0.000 A 
ATOM     32 CL   UNL     1      -0.309  11.383  18.636  0.00  0.00    +0.000 Cl
BRANCH  26  34
ATOM     33  C   UNL     1      -2.398  12.231  22.059  0.00  0.00    +0.000 C 
ATOM     34  O   UNL     1      -1.172  12.269  21.329  0.00  0.00    +0.000 OA
ENDBRANCH  26  34
ENDBRANCH  22  29
ENDBRANCH  21  23
ENDBRANCH   1  21
TORSDOF 6
ENDMDL
MODEL 4
REMARK VINA RESULT:      -7.8      1.055      1.358
REMARK  Name = 
REMARK  7 active torsions:
REMARK  status: ('A' for Active; 'I' for Inactive)
REMARK    1  A    between atoms: C_1  and  O_2
REMARK    2  A    between atoms: O_2  and  C_3
REMARK    3  A    between atoms: C_6  and  N_7
REMARK    4  A    between atoms: C_8  and  C_10
REMARK    5  A    between atoms: C_10  and  N_11
REMARK    6  A    between atoms: C_19  and  S_20
REMARK    7  A    between atoms: S_20  and  N_23
REMARK                            x       y       z     vdW  Elec       q    Type
REMARK                         _______ _______ _______ _____ _____    ______ ____
ROOT
ATOM      1  N   UNL     1       0.822  10.011  19.695  0.00  0.00    +0.000 N 
ATOM      2  C   UNL     1       0.832  11.302  19.164  0.00  0.00    +0.000 C 
ATOM      3  O   UNL     1      -0.015  12.153  19.424  0.00  0.00    +0.000 OA
ATOM      4  C   UNL     1       2.030  11.583  18.270  0.00  0.00    +0.000 C 
ATOM      5  O   UNL     1       2.375  10.525  17.384  0.00  0.00    +0.000 OA
ATOM      6  C   UNL     1       2.426   9.310  18.013  0.00  0.00    +0.000 A 
ATOM      7  C   UNL     1       3.133   8.305  17.349  0.00  0.00    +0.000 A 
ATOM      8  C   UNL     1       3.195   7.020  17.885  0.00  0.00    +0.000 A 
ATOM      9  C   UNL     1       2.572   6.760  19.104  0.00  0.00    +0.000 A 
ATOM     10  C   UNL     1       1.867   7.768  19.781  0.00  0.00    +0.000 A 
ATOM     11  C   UNL     1       1.734   9.034  19.202  0.00  0.00    +0.000 A 
ENDROOT
BRANCH   9  12
ATOM     12  S   UNL     1       2.679   5.128  19.811  0.00  0.00    +0.000 S 
ATOM     13  O   UNL     1       4.066   4.725  19.754  0.00  0.00    +0.000 OA
ATOM     14  O   UNL     1       1.979   5.169  21.075  0.00  0.00    +0.000 OA
BRANCH  12  15
ATOM     15  N   UNL     1       1.803   4.151  18.720  0.00  0.00    +0.000 NA
ATOM     16  C   UNL     1       1.041   2.987  19.269  0.00  0.00    +0.000 C 
ATOM     17  C   UNL     1       1.982   1.857  19.689  0.00  0.00    +0.000 C 
ATOM     18  O   UNL     1       2.786   1.418  18.584  0.00  0.00    +0.000 OA
ATOM     19  C   UNL     1       3.530   2.489  17.978  0.00  0.00    +0.000 C 
ATOM     20  C   UNL     1       2.622   3.655  17.558  0.00  0.00    +0.000 C 
ENDBRANCH  12  15
ENDBRANCH   9  12
BRANCH   1  21
ATOM     21  C   UNL     1      -0.286   9.638  20.568  0.00  0.00    +0.000 C 
BRANCH  21  23
ATOM     22  N   UNL     1      -1.533  11.492  21.675  0.00  0.00    +0.000 N 
ATOM     23  C   UNL     1      -0.516  10.551  21.787  0.00  0.00    +0.000 C 
ATOM     24  O   UNL     1       0.188  10.388  22.783  0.00  0.00    +0.000 OA
ATOM     25  H   UNL     1      -2.046  11.504  20.800  0.00  0.00    +0.000 HD
BRANCH  22  29
ATOM     26  C   UNL     1      -2.793  14.327  24.580  0.00  0.00    +0.000 A 
ATOM     27  C   UNL     1      -1.630  14.546  23.845  0.00  0.00    +0.000 A 
ATOM     28  C   UNL     1      -1.204  13.618  22.889  0.00  0.00    +0.000 A 
ATOM     29  C   UNL     1      -1.920  12.447  22.644  0.00  0.00    +0.000 A 
ATOM     30  C   UNL     1      -3.080  12.212  23.394  0.00  0.00    +0.000 A 
ATOM     31  C   UNL     1      -3.503  13.139  24.363  0.00  0.00    +0.000 A 
ATOM     32 CL   UNL     1      -4.933  12.776  25.267  0.00  0.00    +0.000 Cl
BRANCH  26  34
ATOM     33  C   UNL     1      -3.632  16.488  25.059  0.00  0.00    +0.000 C 
ATOM     34  O   UNL     1      -3.248  15.198  25.536  0.00  0.00    +0.000 OA
ENDBRANCH  26  34
ENDBRANCH  22  29
ENDBRANCH  21  23
ENDBRANCH   1  21
TORSDOF 6
ENDMDL
MODEL 5
REMARK VINA RESULT:      -7.7      1.377      1.818
REMARK  Name = 
REMARK  7 active torsions:
REMARK  status: ('A' for Active; 'I' for Inactive)
REMARK    1  A    between atoms: C_1  and  O_2
REMARK    2  A    between atoms: O_2  and  C_3
REMARK    3  A    between atoms: C_6  and  N_7
REMARK    4  A    between atoms: C_8  and  C_10
REMARK    5  A    between atoms: C_10  and  N_11
REMARK    6  A    between atoms: C_19  and  S_20
REMARK    7  A    between atoms: S_20  and  N_23
REMARK                            x       y       z     vdW  Elec       q    Type
REMARK                         _______ _______ _______ _____ _____    ______ ____
ROOT
ATOM      1  N   UNL     1       0.887   9.881  19.857  0.00  0.00    +0.000 N 
ATOM      2  C   UNL     1       0.937  11.203  19.408  0.00  0.00    +0.000 C 
ATOM      3  O   UNL     1       0.154  12.076  19.770  0.00  0.00    +0.000 OA
ATOM      4  C   UNL     1       2.096  11.480  18.464  0.00  0.00    +0.000 C 
ATOM      5  O   UNL     1       2.334  10.467  17.495  0.00  0.00    +0.000 OA
ATOM      6  C   UNL     1       2.354   9.211  18.043  0.00  0.00    +0.000 A 
ATOM      7  C   UNL     1       2.967   8.218  17.276  0.00  0.00    +0.000 A 
ATOM      8  C   UNL     1       2.990   6.899  17.726  0.00  0.00    +0.000 A 
ATOM      9  C   UNL     1       2.422   6.592  18.962  0.00  0.00    +0.000 A 
ATOM     10  C   UNL     1       1.811   7.587  19.741  0.00  0.00    +0.000 A 
ATOM     11  C   UNL     1       1.715   8.894  19.251  0.00  0.00    +0.000 A 
ENDROOT
BRANCH   9  12
ATOM     12  S   UNL     1       2.480   4.914  19.557  0.00  0.00    +0.000 S 
ATOM     13  O   UNL     1       2.923   4.960  20.932  0.00  0.00    +0.000 OA
ATOM     14  O   UNL     1       1.215   4.301  19.216  0.00  0.00    +0.000 OA
BRANCH  12  15
ATOM     15  N   UNL     1       3.718   4.193  18.630  0.00  0.00    +0.000 NA
ATOM     16  C   UNL     1       3.324   3.363  17.450  0.00  0.00    +0.000 C 
ATOM     17  C   UNL     1       2.729   2.024  17.888  0.00  0.00    +0.000 C 
ATOM     18  O   UNL     1       3.658   1.287  18.697  0.00  0.00    +0.000 OA
ATOM     19  C   UNL     1       4.110   2.031  19.841  0.00  0.00    +0.000 C 
ATOM     20  C   UNL     1       4.699   3.394  19.445  0.00  0.00    +0.000 C 
ENDBRANCH  12  15
ENDBRANCH   9  12
BRANCH   1  21
ATOM     21  C   UNL     1      -0.190   9.509  20.769  0.00  0.00    +0.000 C 
BRANCH  21  23
ATOM     22  N   UNL     1      -1.544  11.331  21.802  0.00  0.00    +0.000 N 
ATOM     23  C   UNL     1      -0.450  10.483  21.934  0.00  0.00    +0.000 C 
ATOM     24  O   UNL     1       0.301  10.445  22.908  0.00  0.00    +0.000 OA
ATOM     25  H   UNL     1      -2.087  11.241  20.950  0.00  0.00    +0.000 HD
BRANCH  22  29
ATOM     26  C   UNL     1      -2.929  14.270  24.540  0.00  0.00    +0.000 A 
ATOM     27  C   UNL     1      -1.649  14.366  23.998  0.00  0.00    +0.000 A 
ATOM     28  C   UNL     1      -1.182  13.401  23.098  0.00  0.00    +0.000 A 
ATOM     29  C   UNL     1      -1.972  12.317  22.721  0.00  0.00    +0.000 A 
ATOM     30  C   UNL     1      -3.252  12.205  23.279  0.00  0.00    +0.000 A 
ATOM     31  C   UNL     1      -3.719  13.167  24.191  0.00  0.00    +0.000 A 
ATOM     32 CL   UNL     1      -5.302  12.957  24.858  0.00  0.00    +0.000 Cl
BRANCH  26  34
ATOM     33  C   UNL     1      -3.975  16.369  24.861  0.00  0.00    +0.000 C 
ATOM     34  O   UNL     1      -3.431  15.180  25.434  0.00  0.00    +0.000 OA
ENDBRANCH  26  34
ENDBRANCH  22  29
ENDBRANCH  21  23
ENDBRANCH   1  21
TORSDOF 6
ENDMDL
MODEL 6
REMARK VINA RESULT:      -7.7      4.299      9.862
REMARK  Name = 
REMARK  7 active torsions:
REMARK  status: ('A' for Active; 'I' for Inactive)
REMARK    1  A    between atoms: C_1  and  O_2
REMARK    2  A    between atoms: O_2  and  C_3
REMARK    3  A    between atoms: C_6  and  N_7
REMARK    4  A    between atoms: C_8  and  C_10
REMARK    5  A    between atoms: C_10  and  N_11
REMARK    6  A    between atoms: C_19  and  S_20
REMARK    7  A    between atoms: S_20  and  N_23
REMARK                            x       y       z     vdW  Elec       q    Type
REMARK                         _______ _______ _______ _____ _____    ______ ____
ROOT
ATOM      1  N   UNL     1       0.288  10.973  22.090  0.00  0.00    +0.000 N 
ATOM      2  C   UNL     1      -0.815  10.560  22.841  0.00  0.00    +0.000 C 
ATOM      3  O   UNL     1      -0.893   9.467  23.394  0.00  0.00    +0.000 OA
ATOM      4  C   UNL     1      -1.898  11.620  22.962  0.00  0.00    +0.000 C 
ATOM      5  O   UNL     1      -2.173  12.334  21.764  0.00  0.00    +0.000 OA
ATOM      6  C   UNL     1      -1.034  12.775  21.143  0.00  0.00    +0.000 A 
ATOM      7  C   UNL     1      -1.202  13.803  20.213  0.00  0.00    +0.000 A 
ATOM      8  C   UNL     1      -0.110  14.281  19.492  0.00  0.00    +0.000 A 
ATOM      9  C   UNL     1       1.153  13.743  19.733  0.00  0.00    +0.000 A 
ATOM     10  C   UNL     1       1.330  12.715  20.673  0.00  0.00    +0.000 A 
ATOM     11  C   UNL     1       0.220  12.179  21.335  0.00  0.00    +0.000 A 
ENDROOT
BRANCH   9  12
ATOM     12  S   UNL     1       2.558  14.376  18.840  0.00  0.00    +0.000 S 
ATOM     13  O   UNL     1       3.185  13.257  18.174  0.00  0.00    +0.000 OA
ATOM     14  O   UNL     1       2.096  15.516  18.079  0.00  0.00    +0.000 OA
BRANCH  12  15
ATOM     15  N   UNL     1       3.615  14.915  20.067  0.00  0.00    +0.000 NA
ATOM     16  C   UNL     1       3.154  16.025  20.958  0.00  0.00    +0.000 C 
ATOM     17  C   UNL     1       3.158  17.365  20.222  0.00  0.00    +0.000 C 
ATOM     18  O   UNL     1       4.466  17.673  19.718  0.00  0.00    +0.000 OA
ATOM     19  C   UNL     1       4.995  16.637  18.873  0.00  0.00    +0.000 C 
ATOM     20  C   UNL     1       4.992  15.268  19.570  0.00  0.00    +0.000 C 
ENDBRANCH  12  15
ENDBRANCH   9  12
BRANCH   1  21
ATOM     21  C   UNL     1       1.386  10.029  21.912  0.00  0.00    +0.000 C 
BRANCH  21  23
ATOM     22  N   UNL     1       1.977   7.815  20.927  0.00  0.00    +0.000 N 
ATOM     23  C   UNL     1       1.174   8.947  20.836  0.00  0.00    +0.000 C 
ATOM     24  O   UNL     1       0.310   9.133  19.980  0.00  0.00    +0.000 OA
ATOM     25  H   UNL     1       2.637   7.788  21.696  0.00  0.00    +0.000 HD
BRANCH  22  29
ATOM     26  C   UNL     1       1.994   4.411  18.384  0.00  0.00    +0.000 A 
ATOM     27  C   UNL     1       2.445   5.641  17.911  0.00  0.00    +0.000 A 
ATOM     28  C   UNL     1       2.440   6.769  18.738  0.00  0.00    +0.000 A 
ATOM     29  C   UNL     1       1.982   6.703  20.053  0.00  0.00    +0.000 A 
ATOM     30  C   UNL     1       1.508   5.473  20.528  0.00  0.00    +0.000 A 
ATOM     31  C   UNL     1       1.502   4.341  19.694  0.00  0.00    +0.000 A 
ATOM     32 CL   UNL     1       0.885   2.858  20.338  0.00  0.00    +0.000 Cl
BRANCH  26  34
ATOM     33  C   UNL     1       3.119   2.442  17.706  0.00  0.00    +0.000 C 
ATOM     34  O   UNL     1       1.966   3.278  17.612  0.00  0.00    +0.000 OA
ENDBRANCH  26  34
ENDBRANCH  22  29
ENDBRANCH  21  23
ENDBRANCH   1  21
TORSDOF 6
ENDMDL
MODEL 7
REMARK VINA RESULT:      -7.6      0.810      1.289
REMARK  Name = 
REMARK  7 active torsions:
REMARK  status: ('A' for Active; 'I' for Inactive)
REMARK    1  A    between atoms: C_1  and  O_2
REMARK    2  A    between atoms: O_2  and  C_3
REMARK    3  A    between atoms: C_6  and  N_7
REMARK    4  A    between atoms: C_8  and  C_10
REMARK    5  A    between atoms: C_10  and  N_11
REMARK    6  A    between atoms: C_19  and  S_20
REMARK    7  A    between atoms: S_20  and  N_23
REMARK                            x       y       z     vdW  Elec       q    Type
REMARK                         _______ _______ _______ _____ _____    ______ ____
ROOT
ATOM      1  N   UNL     1       0.762   9.894  19.967  0.00  0.00    +0.000 N 
ATOM      2  C   UNL     1       0.826  11.196  19.467  0.00  0.00    +0.000 C 
ATOM      3  O   UNL     1       0.041  12.086  19.778  0.00  0.00    +0.000 OA
ATOM      4  C   UNL     1       2.004  11.430  18.534  0.00  0.00    +0.000 C 
ATOM      5  O   UNL     1       2.254  10.377  17.611  0.00  0.00    +0.000 OA
ATOM      6  C   UNL     1       2.258   9.145  18.209  0.00  0.00    +0.000 A 
ATOM      7  C   UNL     1       2.881   8.119  17.495  0.00  0.00    +0.000 A 
ATOM      8  C   UNL     1       2.889   6.819  17.999  0.00  0.00    +0.000 A 
ATOM      9  C   UNL     1       2.297   6.565  19.235  0.00  0.00    +0.000 A 
ATOM     10  C   UNL     1       1.678   7.593  19.962  0.00  0.00    +0.000 A 
ATOM     11  C   UNL     1       1.597   8.880  19.417  0.00  0.00    +0.000 A 
ENDROOT
BRANCH   9  12
ATOM     12  S   UNL     1       2.337   4.912  19.899  0.00  0.00    +0.000 S 
ATOM     13  O   UNL     1       2.529   5.026  21.327  0.00  0.00    +0.000 OA
ATOM     14  O   UNL     1       1.185   4.217  19.368  0.00  0.00    +0.000 OA
BRANCH  12  15
ATOM     15  N   UNL     1       3.754   4.236  19.230  0.00  0.00    +0.000 NA
ATOM     16  C   UNL     1       3.809   4.034  17.749  0.00  0.00    +0.000 C 
ATOM     17  C   UNL     1       2.922   2.867  17.315  0.00  0.00    +0.000 C 
ATOM     18  O   UNL     1       3.310   1.652  17.973  0.00  0.00    +0.000 OA
ATOM     19  C   UNL     1       3.311   1.772  19.406  0.00  0.00    +0.000 C 
ATOM     20  C   UNL     1       4.178   2.948  19.884  0.00  0.00    +0.000 C 
ENDBRANCH  12  15
ENDBRANCH   9  12
BRANCH   1  21
ATOM     21  C   UNL     1      -0.333   9.563  20.874  0.00  0.00    +0.000 C 
BRANCH  21  23
ATOM     22  N   UNL     1      -1.656  11.412  21.898  0.00  0.00    +0.000 N 
ATOM     23  C   UNL     1      -0.570  10.553  22.030  0.00  0.00    +0.000 C 
ATOM     24  O   UNL     1       0.190  10.519  22.996  0.00  0.00    +0.000 OA
ATOM     25  H   UNL     1      -2.209  11.318  21.053  0.00  0.00    +0.000 HD
BRANCH  22  29
ATOM     26  C   UNL     1      -2.782  14.449  24.650  0.00  0.00    +0.000 A 
ATOM     27  C   UNL     1      -3.614  13.351  24.438  0.00  0.00    +0.000 A 
ATOM     28  C   UNL     1      -3.254  12.348  23.532  0.00  0.00    +0.000 A 
ATOM     29  C   UNL     1      -2.064  12.413  22.810  0.00  0.00    +0.000 A 
ATOM     30  C   UNL     1      -1.233  13.525  23.004  0.00  0.00    +0.000 A 
ATOM     31  C   UNL     1      -1.598  14.539  23.906  0.00  0.00    +0.000 A 
ATOM     32 CL   UNL     1      -0.535  15.893  24.082  0.00  0.00    +0.000 Cl
BRANCH  26  34
ATOM     33  C   UNL     1      -3.966  16.468  25.000  0.00  0.00    +0.000 C 
ATOM     34  O   UNL     1      -3.091  15.465  25.516  0.00  0.00    +0.000 OA
ENDBRANCH  26  34
ENDBRANCH  22  29
ENDBRANCH  21  23
ENDBRANCH   1  21
TORSDOF 6
ENDMDL
MODEL 8
REMARK VINA RESULT:      -7.6      4.231     10.170
REMARK  Name = 
REMARK  7 active torsions:
REMARK  status: ('A' for Active; 'I' for Inactive)
REMARK    1  A    between atoms: C_1  and  O_2
REMARK    2  A    between atoms: O_2  and  C_3
REMARK    3  A    between atoms: C_6  and  N_7
REMARK    4  A    between atoms: C_8  and  C_10
REMARK    5  A    between atoms: C_10  and  N_11
REMARK    6  A    between atoms: C_19  and  S_20
REMARK    7  A    between atoms: S_20  and  N_23
REMARK                            x       y       z     vdW  Elec       q    Type
REMARK                         _______ _______ _______ _____ _____    ______ ____
ROOT
ATOM      1  N   UNL     1      -0.010  10.303  20.763  0.00  0.00    +0.000 N 
ATOM      2  C   UNL     1      -0.353   9.286  21.657  0.00  0.00    +0.000 C 
ATOM      3  O   UNL     1      -0.575   8.127  21.319  0.00  0.00    +0.000 OA
ATOM      4  C   UNL     1      -0.370   9.735  23.110  0.00  0.00    +0.000 C 
ATOM      5  O   UNL     1      -0.959  11.009  23.335  0.00  0.00    +0.000 OA
ATOM      6  C   UNL     1      -0.497  11.962  22.466  0.00  0.00    +0.000 A 
ATOM      7  C   UNL     1      -0.694  13.290  22.852  0.00  0.00    +0.000 A 
ATOM      8  C   UNL     1      -0.305  14.329  22.009  0.00  0.00    +0.000 A 
ATOM      9  C   UNL     1       0.309  14.027  20.795  0.00  0.00    +0.000 A 
ATOM     10  C   UNL     1       0.518  12.695  20.406  0.00  0.00    +0.000 A 
ATOM     11  C   UNL     1       0.052  11.652  21.214  0.00  0.00    +0.000 A 
ENDROOT
BRANCH   9  12
ATOM     12  S   UNL     1       0.841  15.353  19.731  0.00  0.00    +0.000 S 
ATOM     13  O   UNL     1       0.082  15.252  18.504  0.00  0.00    +0.000 OA
ATOM     14  O   UNL     1       0.803  16.567  20.517  0.00  0.00    +0.000 OA
BRANCH  12  15
ATOM     15  N   UNL     1       2.465  14.969  19.376  0.00  0.00    +0.000 NA
ATOM     16  C   UNL     1       3.537  15.592  20.213  0.00  0.00    +0.000 C 
ATOM     17  C   UNL     1       3.707  17.075  19.881  0.00  0.00    +0.000 C 
ATOM     18  O   UNL     1       4.021  17.260  18.493  0.00  0.00    +0.000 OA
ATOM     19  C   UNL     1       3.050  16.661  17.618  0.00  0.00    +0.000 C 
ATOM     20  C   UNL     1       2.835  15.171  17.931  0.00  0.00    +0.000 C 
ENDBRANCH  12  15
ENDBRANCH   9  12
BRANCH   1  21
ATOM     21  C   UNL     1       0.035   9.977  19.341  0.00  0.00    +0.000 C 
BRANCH  21  23
ATOM     22  N   UNL     1       1.502   7.997  18.957  0.00  0.00    +0.000 N 
ATOM     23  C   UNL     1       1.359   9.375  18.832  0.00  0.00    +0.000 C 
ATOM     24  O   UNL     1       2.194  10.130  18.336  0.00  0.00    +0.000 OA
ATOM     25  H   UNL     1       0.724   7.496  19.371  0.00  0.00    +0.000 HD
BRANCH  22  29
ATOM     26  C   UNL     1       4.873   5.623  17.927  0.00  0.00    +0.000 A 
ATOM     27  C   UNL     1       4.625   6.817  17.254  0.00  0.00    +0.000 A 
ATOM     28  C   UNL     1       3.516   7.604  17.583  0.00  0.00    +0.000 A 
ATOM     29  C   UNL     1       2.625   7.221  18.583  0.00  0.00    +0.000 A 
ATOM     30  C   UNL     1       2.858   6.012  19.249  0.00  0.00    +0.000 A 
ATOM     31  C   UNL     1       3.965   5.214  18.913  0.00  0.00    +0.000 A 
ATOM     32 CL   UNL     1       4.182   3.722  19.762  0.00  0.00    +0.000 Cl
BRANCH  26  34
ATOM     33  C   UNL     1       6.192   4.602  16.247  0.00  0.00    +0.000 C 
ATOM     34  O   UNL     1       5.937   4.808  17.637  0.00  0.00    +0.000 OA
ENDBRANCH  26  34
ENDBRANCH  22  29
ENDBRANCH  21  23
ENDBRANCH   1  21
TORSDOF 6
ENDMDL
MODEL 9
REMARK VINA RESULT:      -7.5      4.444     10.342
REMARK  Name = 
REMARK  7 active torsions:
REMARK  status: ('A' for Active; 'I' for Inactive)
REMARK    1  A    between atoms: C_1  and  O_2
REMARK    2  A    between atoms: O_2  and  C_3
REMARK    3  A    between atoms: C_6  and  N_7
REMARK    4  A    between atoms: C_8  and  C_10
REMARK    5  A    between atoms: C_10  and  N_11
REMARK    6  A    between atoms: C_19  and  S_20
REMARK    7  A    between atoms: S_20  and  N_23
REMARK                            x       y       z     vdW  Elec       q    Type
REMARK                         _______ _______ _______ _____ _____    ______ ____
ROOT
ATOM      1  N   UNL     1       0.197  10.026  20.923  0.00  0.00    +0.000 N 
ATOM      2  C   UNL     1      -0.441   9.244  21.888  0.00  0.00    +0.000 C 
ATOM      3  O   UNL     1      -0.791   8.081  21.702  0.00  0.00    +0.000 OA
ATOM      4  C   UNL     1      -0.616   9.949  23.224  0.00  0.00    +0.000 C 
ATOM      5  O   UNL     1      -1.021  11.309  23.133  0.00  0.00    +0.000 OA
ATOM      6  C   UNL     1      -0.281  12.018  22.225  0.00  0.00    +0.000 A 
ATOM      7  C   UNL     1      -0.321  13.408  22.353  0.00  0.00    +0.000 A 
ATOM      8  C   UNL     1       0.358  14.216  21.443  0.00  0.00    +0.000 A 
ATOM      9  C   UNL     1       1.101  13.619  20.425  0.00  0.00    +0.000 A 
ATOM     10  C   UNL     1       1.152  12.222  20.296  0.00  0.00    +0.000 A 
ATOM     11  C   UNL     1       0.403  11.415  21.159  0.00  0.00    +0.000 A 
ENDROOT
BRANCH   9  12
ATOM     12  S   UNL     1       1.999  14.646  19.281  0.00  0.00    +0.000 S 
ATOM     13  O   UNL     1       2.278  13.846  18.110  0.00  0.00    +0.000 OA
ATOM     14  O   UNL     1       1.267  15.887  19.163  0.00  0.00    +0.000 OA
BRANCH  12  15
ATOM     15  N   UNL     1       3.480  14.946  20.075  0.00  0.00    +0.000 NA
ATOM     16  C   UNL     1       3.546  16.089  21.038  0.00  0.00    +0.000 C 
ATOM     17  C   UNL     1       3.547  17.431  20.307  0.00  0.00    +0.000 C 
ATOM     18  O   UNL     1       4.649  17.519  19.391  0.00  0.00    +0.000 OA
ATOM     19  C   UNL     1       4.675  16.435  18.447  0.00  0.00    +0.000 C 
ATOM     20  C   UNL     1       4.656  15.064  19.143  0.00  0.00    +0.000 C 
ENDBRANCH  12  15
ENDBRANCH   9  12
BRANCH   1  21
ATOM     21  C   UNL     1       0.414   9.442  19.603  0.00  0.00    +0.000 C 
BRANCH  21  23
ATOM     22  N   UNL     1       1.880   7.968  18.226  0.00  0.00    +0.000 N 
ATOM     23  C   UNL     1       1.559   8.416  19.503  0.00  0.00    +0.000 C 
ATOM     24  O   UNL     1       2.127   8.069  20.537  0.00  0.00    +0.000 OA
ATOM     25  H   UNL     1       1.338   8.353  17.461  0.00  0.00    +0.000 HD
BRANCH  22  29
ATOM     26  C   UNL     1       4.814   5.052  17.251  0.00  0.00    +0.000 A 
ATOM     27  C   UNL     1       5.115   6.409  17.155  0.00  0.00    +0.000 A 
ATOM     28  C   UNL     1       4.156   7.377  17.470  0.00  0.00    +0.000 A 
ATOM     29  C   UNL     1       2.873   7.021  17.882  0.00  0.00    +0.000 A 
ATOM     30  C   UNL     1       2.558   5.658  17.961  0.00  0.00    +0.000 A 
ATOM     31  C   UNL     1       3.517   4.684  17.635  0.00  0.00    +0.000 A 
ATOM     32 CL   UNL     1       3.055   3.019  17.735  0.00  0.00    +0.000 Cl
BRANCH  26  34
ATOM     33  C   UNL     1       5.944   3.855  15.550  0.00  0.00    +0.000 C 
ATOM     34  O   UNL     1       5.712   4.063  16.944  0.00  0.00    +0.000 OA
ENDBRANCH  26  34
ENDBRANCH  22  29
ENDBRANCH  21  23
ENDBRANCH   1  21
TORSDOF 6
ENDMDL
