MODEL 1
REMARK VINA RESULT:      -7.7      0.000      0.000
REMARK  Name = 
REMARK  12 active torsions:
REMARK  status: ('A' for Active; 'I' for Inactive)
REMARK    1  A    between atoms: C_1  and  O_2
REMARK    2  A    between atoms: O_2  and  C_3
REMARK    3  A    between atoms: C_6  and  C_7
REMARK    4  A    between atoms: C_7  and  C_8
REMARK    5  A    between atoms: C_8  and  N_9
REMARK    6  A    between atoms: N_9  and  C_10
REMARK    7  A    between atoms: N_9  and  C_11
REMARK    8  A    between atoms: C_11  and  C_12
REMARK    9  A    between atoms: C_12  and  C_13
REMARK   10  A    between atoms: C_13  and  N_14
REMARK   11  A    between atoms: C_29  and  O_30
REMARK   12  A    between atoms: O_30  and  C_31
REMARK                            x       y       z     vdW  Elec       q    Type
REMARK                         _______ _______ _______ _____ _____    ______ ____
ROOT
ATOM      1  C   UNL     1       2.922   7.803  18.116  0.00  0.00    +0.000 C 
ENDROOT
BRANCH   1   2
ATOM      2  C   UNL     1       1.644   8.565  18.493  0.00  0.00    +0.000 C 
BRANCH   2   3
ATOM      3  N   UNL     1       1.678   9.214  19.820  0.00  0.00    +0.000 NA
ATOM      4  C   UNL     1       1.285   8.240  20.844  0.00  0.00    +0.000 C 
BRANCH   3   5
ATOM      5  C   UNL     1       0.828  10.421  19.852  0.00  0.00    +0.000 C 
BRANCH   5   6
ATOM      6  C   UNL     1       0.389  10.932  18.467  0.00  0.00    +0.000 C 
BRANCH   6  10
ATOM      7  C   UNL     1      -3.911  11.250  18.070  0.00  0.00    +0.000 A 
ATOM      8  C   UNL     1      -3.251  11.794  19.182  0.00  0.00    +0.000 A 
ATOM      9  C   UNL     1      -1.867  11.684  19.327  0.00  0.00    +0.000 A 
ATOM     10  C   UNL     1      -1.117  10.995  18.373  0.00  0.00    +0.000 A 
ATOM     11  C   UNL     1      -1.783  10.402  17.291  0.00  0.00    +0.000 A 
ATOM     12  C   UNL     1      -3.171  10.495  17.142  0.00  0.00    +0.000 A 
BRANCH   7  14
ATOM     13  C   UNL     1      -5.659  12.450  17.006  0.00  0.00    +0.000 C 
ATOM     14  O   UNL     1      -5.258  11.404  17.888  0.00  0.00    +0.000 OA
ENDBRANCH   7  14
BRANCH  12  15
ATOM     15  O   UNL     1      -3.607   9.851  16.011  0.00  0.00    +0.000 OA
ATOM     16  C   UNL     1      -2.991  10.139  14.768  0.00  0.00    +0.000 C 
ENDBRANCH  12  15
ENDBRANCH   6  10
ENDBRANCH   5   6
ENDBRANCH   3   5
ENDBRANCH   2   3
ENDBRANCH   1   2
BRANCH   1  17
ATOM     17  C   UNL     1       2.650   6.302  18.067  0.00  0.00    +0.000 C 
BRANCH  17  18
ATOM     18  N   UNL     1       3.699   5.532  18.826  0.00  0.00    +0.000 N 
ATOM     19  C   UNL     1       3.005   4.479  19.509  0.00  0.00    +0.000 A 
ATOM     20  C   UNL     1       2.327   4.793  20.704  0.00  0.00    +0.000 A 
ATOM     21  C   UNL     1       1.588   3.827  21.385  0.00  0.00    +0.000 A 
ATOM     22  C   UNL     1       1.545   2.524  20.899  0.00  0.00    +0.000 A 
ATOM     23  C   UNL     1       2.211   2.197  19.715  0.00  0.00    +0.000 A 
ATOM     24  C   UNL     1       2.925   3.170  18.999  0.00  0.00    +0.000 A 
ATOM     25  S   UNL     1       3.574   2.724  17.393  0.00  0.00    +0.000 S 
ATOM     26  C   UNL     1       4.558   4.145  16.966  0.00  0.00    +0.000 A 
ATOM     27  C   UNL     1       5.146   4.221  15.699  0.00  0.00    +0.000 A 
ATOM     28  C   UNL     1       5.965   5.302  15.359  0.00  0.00    +0.000 A 
ATOM     29  C   UNL     1       6.278   6.272  16.310  0.00  0.00    +0.000 A 
ATOM     30  C   UNL     1       5.654   6.238  17.550  0.00  0.00    +0.000 A 
ATOM     31  C   UNL     1       4.703   5.242  17.831  0.00  0.00    +0.000 A 
ENDBRANCH  17  18
ENDBRANCH   1  17
TORSDOF 9
ENDMDL
MODEL 2
REMARK VINA RESULT:      -7.7      1.115      3.607
REMARK  Name = 
REMARK  12 active torsions:
REMARK  status: ('A' for Active; 'I' for Inactive)
REMARK    1  A    between atoms: C_1  and  O_2
REMARK    2  A    between atoms: O_2  and  C_3
REMARK    3  A    between atoms: C_6  and  C_7
REMARK    4  A    between atoms: C_7  and  C_8
REMARK    5  A    between atoms: C_8  and  N_9
REMARK    6  A    between atoms: N_9  and  C_10
REMARK    7  A    between atoms: N_9  and  C_11
REMARK    8  A    between atoms: C_11  and  C_12
REMARK    9  A    between atoms: C_12  and  C_13
REMARK   10  A    between atoms: C_13  and  N_14
REMARK   11  A    between atoms: C_29  and  O_30
REMARK   12  A    between atoms: O_30  and  C_31
REMARK                            x       y       z     vdW  Elec       q    Type
REMARK                         _______ _______ _______ _____ _____    ______ ____
ROOT
ATOM      1  C   UNL     1       1.475   7.088  20.560  0.00  0.00    +0.000 C 
ENDROOT
BRANCH   1   2
ATOM      2  C   UNL     1       1.437   8.543  20.071  0.00  0.00    +0.000 C 
BRANCH   2   3
ATOM      3  N   UNL     1       0.867   9.505  21.035  0.00  0.00    +0.000 NA
ATOM      4  C   UNL     1      -0.249   8.874  21.747  0.00  0.00    +0.000 C 
BRANCH   3   5
ATOM      5  C   UNL     1       0.457  10.758  20.369  0.00  0.00    +0.000 C 
BRANCH   5   6
ATOM      6  C   UNL     1       0.331  10.656  18.836  0.00  0.00    +0.000 C 
BRANCH   6  10
ATOM      7  C   UNL     1      -3.757  11.106  17.479  0.00  0.00    +0.000 A 
ATOM      8  C   UNL     1      -3.315  11.742  18.649  0.00  0.00    +0.000 A 
ATOM      9  C   UNL     1      -2.003  11.591  19.104  0.00  0.00    +0.000 A 
ATOM     10  C   UNL     1      -1.114  10.771  18.409  0.00  0.00    +0.000 A 
ATOM     11  C   UNL     1      -1.571  10.089  17.274  0.00  0.00    +0.000 A 
ATOM     12  C   UNL     1      -2.886  10.222  16.816  0.00  0.00    +0.000 A 
BRANCH   7  14
ATOM     13  C   UNL     1      -5.835  12.227  17.702  0.00  0.00    +0.000 C 
ATOM     14  O   UNL     1      -5.021  11.294  16.994  0.00  0.00    +0.000 OA
ENDBRANCH   7  14
BRANCH  12  15
ATOM     15  O   UNL     1      -3.112   9.475  15.687  0.00  0.00    +0.000 OA
ATOM     16  C   UNL     1      -3.063  10.104  14.418  0.00  0.00    +0.000 C 
ENDBRANCH  12  15
ENDBRANCH   6  10
ENDBRANCH   5   6
ENDBRANCH   3   5
ENDBRANCH   2   3
ENDBRANCH   1   2
BRANCH   1  17
ATOM     17  C   UNL     1       2.767   6.411  20.112  0.00  0.00    +0.000 C 
BRANCH  17  18
ATOM     18  N   UNL     1       2.527   5.502  18.934  0.00  0.00    +0.000 N 
ATOM     19  C   UNL     1       3.627   5.712  18.038  0.00  0.00    +0.000 A 
ATOM     20  C   UNL     1       3.601   6.849  17.206  0.00  0.00    +0.000 A 
ATOM     21  C   UNL     1       4.665   7.139  16.354  0.00  0.00    +0.000 A 
ATOM     22  C   UNL     1       5.757   6.276  16.296  0.00  0.00    +0.000 A 
ATOM     23  C   UNL     1       5.798   5.145  17.116  0.00  0.00    +0.000 A 
ATOM     24  C   UNL     1       4.750   4.865  18.007  0.00  0.00    +0.000 A 
ATOM     25  S   UNL     1       4.971   3.520  19.166  0.00  0.00    +0.000 S 
ATOM     26  C   UNL     1       3.362   3.392  19.920  0.00  0.00    +0.000 A 
ATOM     27  C   UNL     1       3.169   2.506  20.984  0.00  0.00    +0.000 A 
ATOM     28  C   UNL     1       1.903   2.350  21.559  0.00  0.00    +0.000 A 
ATOM     29  C   UNL     1       0.801   3.009  21.017  0.00  0.00    +0.000 A 
ATOM     30  C   UNL     1       0.992   3.935  19.999  0.00  0.00    +0.000 A 
ATOM     31  C   UNL     1       2.289   4.212  19.535  0.00  0.00    +0.000 A 
ENDBRANCH  17  18
ENDBRANCH   1  17
TORSDOF 9
ENDMDL
MODEL 3
REMARK VINA RESULT:      -7.6      1.343      3.996
REMARK  Name = 
REMARK  12 active torsions:
REMARK  status: ('A' for Active; 'I' for Inactive)
REMARK    1  A    between atoms: C_1  and  O_2
REMARK    2  A    between atoms: O_2  and  C_3
REMARK    3  A    between atoms: C_6  and  C_7
REMARK    4  A    between atoms: C_7  and  C_8
REMARK    5  A    between atoms: C_8  and  N_9
REMARK    6  A    between atoms: N_9  and  C_10
REMARK    7  A    between atoms: N_9  and  C_11
REMARK    8  A    between atoms: C_11  and  C_12
REMARK    9  A    between atoms: C_12  and  C_13
REMARK   10  A    between atoms: C_13  and  N_14
REMARK   11  A    between atoms: C_29  and  O_30
REMARK   12  A    between atoms: O_30  and  C_31
REMARK                            x       y       z     vdW  Elec       q    Type
REMARK                         _______ _______ _______ _____ _____    ______ ____
ROOT
ATOM      1  C   UNL     1       2.161   7.586  19.231  0.00  0.00    +0.000 C 
ENDROOT
BRANCH   1   2
ATOM      2  C   UNL     1       1.198   7.786  20.411  0.00  0.00    +0.000 C 
BRANCH   2   3
ATOM      3  N   UNL     1       1.145   9.164  20.939  0.00  0.00    +0.000 NA
ATOM      4  C   UNL     1       1.271   9.127  22.400  0.00  0.00    +0.000 C 
BRANCH   3   5
ATOM      5  C   UNL     1      -0.086   9.859  20.509  0.00  0.00    +0.000 C 
BRANCH   5   6
ATOM      6  C   UNL     1      -0.092  10.296  19.032  0.00  0.00    +0.000 C 
BRANCH   6  10
ATOM      7  C   UNL     1      -4.179  11.124  17.866  0.00  0.00    +0.000 A 
ATOM      8  C   UNL     1      -3.412  10.178  17.169  0.00  0.00    +0.000 A 
ATOM      9  C   UNL     1      -2.089   9.915  17.528  0.00  0.00    +0.000 A 
ATOM     10  C   UNL     1      -1.495  10.620  18.575  0.00  0.00    +0.000 A 
ATOM     11  C   UNL     1      -2.242  11.605  19.234  0.00  0.00    +0.000 A 
ATOM     12  C   UNL     1      -3.565  11.887  18.876  0.00  0.00    +0.000 A 
BRANCH   7  14
ATOM     13  C   UNL     1      -6.452  10.736  18.424  0.00  0.00    +0.000 C 
ATOM     14  O   UNL     1      -5.494  11.347  17.561  0.00  0.00    +0.000 OA
ENDBRANCH   7  14
BRANCH  12  15
ATOM     15  O   UNL     1      -4.106  12.878  19.656  0.00  0.00    +0.000 OA
ATOM     16  C   UNL     1      -4.183  12.691  21.059  0.00  0.00    +0.000 C 
ENDBRANCH  12  15
ENDBRANCH   6  10
ENDBRANCH   5   6
ENDBRANCH   3   5
ENDBRANCH   2   3
ENDBRANCH   1   2
BRANCH   1  17
ATOM     17  C   UNL     1       3.088   6.402  19.498  0.00  0.00    +0.000 C 
BRANCH  17  18
ATOM     18  N   UNL     1       2.935   5.341  18.440  0.00  0.00    +0.000 N 
ATOM     19  C   UNL     1       4.163   5.335  17.699  0.00  0.00    +0.000 A 
ATOM     20  C   UNL     1       4.354   6.328  16.718  0.00  0.00    +0.000 A 
ATOM     21  C   UNL     1       5.548   6.411  16.004  0.00  0.00    +0.000 A 
ATOM     22  C   UNL     1       6.556   5.480  16.236  0.00  0.00    +0.000 A 
ATOM     23  C   UNL     1       6.382   4.489  17.207  0.00  0.00    +0.000 A 
ATOM     24  C   UNL     1       5.200   4.421  17.960  0.00  0.00    +0.000 A 
ATOM     25  S   UNL     1       5.137   3.259  19.320  0.00  0.00    +0.000 S 
ATOM     26  C   UNL     1       3.434   3.357  19.832  0.00  0.00    +0.000 A 
ATOM     27  C   UNL     1       3.017   2.662  20.972  0.00  0.00    +0.000 A 
ATOM     28  C   UNL     1       1.675   2.681  21.365  0.00  0.00    +0.000 A 
ATOM     29  C   UNL     1       0.722   3.320  20.574  0.00  0.00    +0.000 A 
ATOM     30  C   UNL     1       1.133   4.063  19.474  0.00  0.00    +0.000 A 
ATOM     31  C   UNL     1       2.502   4.178  19.177  0.00  0.00    +0.000 A 
ENDBRANCH  17  18
ENDBRANCH   1  17
TORSDOF 9
ENDMDL
MODEL 4
REMARK VINA RESULT:      -7.6      2.477      3.333
REMARK  Name = 
REMARK  12 active torsions:
REMARK  status: ('A' for Active; 'I' for Inactive)
REMARK    1  A    between atoms: C_1  and  O_2
REMARK    2  A    between atoms: O_2  and  C_3
REMARK    3  A    between atoms: C_6  and  C_7
REMARK    4  A    between atoms: C_7  and  C_8
REMARK    5  A    between atoms: C_8  and  N_9
REMARK    6  A    between atoms: N_9  and  C_10
REMARK    7  A    between atoms: N_9  and  C_11
REMARK    8  A    between atoms: C_11  and  C_12
REMARK    9  A    between atoms: C_12  and  C_13
REMARK   10  A    between atoms: C_13  and  N_14
REMARK   11  A    between atoms: C_29  and  O_30
REMARK   12  A    between atoms: O_30  and  C_31
REMARK                            x       y       z     vdW  Elec       q    Type
REMARK                         _______ _______ _______ _____ _____    ______ ____
ROOT
ATOM      1  C   UNL     1       2.982   7.851  18.224  0.00  0.00    +0.000 C 
ENDROOT
BRANCH   1   2
ATOM      2  C   UNL     1       1.763   8.577  18.810  0.00  0.00    +0.000 C 
BRANCH   2   3
ATOM      3  N   UNL     1       1.220   9.659  17.964  0.00  0.00    +0.000 NA
ATOM      4  C   UNL     1       2.074  10.844  18.088  0.00  0.00    +0.000 C 
BRANCH   3   5
ATOM      5  C   UNL     1      -0.187   9.955  18.304  0.00  0.00    +0.000 C 
BRANCH   5   6
ATOM      6  C   UNL     1      -0.530  11.456  18.356  0.00  0.00    +0.000 C 
BRANCH   6  10
ATOM      7  C   UNL     1      -1.858  12.456  22.354  0.00  0.00    +0.000 A 
ATOM      8  C   UNL     1      -2.400  13.105  21.234  0.00  0.00    +0.000 A 
ATOM      9  C   UNL     1      -1.968  12.801  19.942  0.00  0.00    +0.000 A 
ATOM     10  C   UNL     1      -0.957  11.860  19.748  0.00  0.00    +0.000 A 
ATOM     11  C   UNL     1      -0.374  11.253  20.869  0.00  0.00    +0.000 A 
ATOM     12  C   UNL     1      -0.790  11.560  22.169  0.00  0.00    +0.000 A 
BRANCH   7  14
ATOM     13  C   UNL     1      -3.671  12.342  23.880  0.00  0.00    +0.000 C 
ATOM     14  O   UNL     1      -2.316  12.704  23.619  0.00  0.00    +0.000 OA
ENDBRANCH   7  14
BRANCH  12  15
ATOM     15  O   UNL     1      -0.093  10.844  23.110  0.00  0.00    +0.000 OA
ATOM     16  C   UNL     1      -0.387   9.471  23.295  0.00  0.00    +0.000 C 
ENDBRANCH  12  15
ENDBRANCH   6  10
ENDBRANCH   5   6
ENDBRANCH   3   5
ENDBRANCH   2   3
ENDBRANCH   1   2
BRANCH   1  17
ATOM     17  C   UNL     1       2.701   6.355  18.102  0.00  0.00    +0.000 C 
BRANCH  17  18
ATOM     18  N   UNL     1       3.728   5.545  18.849  0.00  0.00    +0.000 N 
ATOM     19  C   UNL     1       3.002   4.512  19.530  0.00  0.00    +0.000 A 
ATOM     20  C   UNL     1       2.343   4.842  20.732  0.00  0.00    +0.000 A 
ATOM     21  C   UNL     1       1.576   3.898  21.412  0.00  0.00    +0.000 A 
ATOM     22  C   UNL     1       1.483   2.600  20.918  0.00  0.00    +0.000 A 
ATOM     23  C   UNL     1       2.130   2.258  19.727  0.00  0.00    +0.000 A 
ATOM     24  C   UNL     1       2.872   3.210  19.013  0.00  0.00    +0.000 A 
ATOM     25  S   UNL     1       3.495   2.752  17.399  0.00  0.00    +0.000 S 
ATOM     26  C   UNL     1       4.525   4.141  16.974  0.00  0.00    +0.000 A 
ATOM     27  C   UNL     1       5.107   4.204  15.704  0.00  0.00    +0.000 A 
ATOM     28  C   UNL     1       5.961   5.258  15.365  0.00  0.00    +0.000 A 
ATOM     29  C   UNL     1       6.315   6.210  16.319  0.00  0.00    +0.000 A 
ATOM     30  C   UNL     1       5.697   6.190  17.564  0.00  0.00    +0.000 A 
ATOM     31  C   UNL     1       4.714   5.226  17.845  0.00  0.00    +0.000 A 
ENDBRANCH  17  18
ENDBRANCH   1  17
TORSDOF 9
ENDMDL
MODEL 5
REMARK VINA RESULT:      -7.5      1.163      2.068
REMARK  Name = 
REMARK  12 active torsions:
REMARK  status: ('A' for Active; 'I' for Inactive)
REMARK    1  A    between atoms: C_1  and  O_2
REMARK    2  A    between atoms: O_2  and  C_3
REMARK    3  A    between atoms: C_6  and  C_7
REMARK    4  A    between atoms: C_7  and  C_8
REMARK    5  A    between atoms: C_8  and  N_9
REMARK    6  A    between atoms: N_9  and  C_10
REMARK    7  A    between atoms: N_9  and  C_11
REMARK    8  A    between atoms: C_11  and  C_12
REMARK    9  A    between atoms: C_12  and  C_13
REMARK   10  A    between atoms: C_13  and  N_14
REMARK   11  A    between atoms: C_29  and  O_30
REMARK   12  A    between atoms: O_30  and  C_31
REMARK                            x       y       z     vdW  Elec       q    Type
REMARK                         _______ _______ _______ _____ _____    ______ ____
ROOT
ATOM      1  C   UNL     1       2.222   7.356  18.708  0.00  0.00    +0.000 C 
ENDROOT
BRANCH   1   2
ATOM      2  C   UNL     1       2.055   8.744  18.072  0.00  0.00    +0.000 C 
BRANCH   2   3
ATOM      3  N   UNL     1       1.283   9.708  18.882  0.00  0.00    +0.000 NA
ATOM      4  C   UNL     1       1.073   9.153  20.223  0.00  0.00    +0.000 C 
BRANCH   3   5
ATOM      5  C   UNL     1       0.007  10.063  18.226  0.00  0.00    +0.000 C 
BRANCH   5   6
ATOM      6  C   UNL     1      -0.553  11.443  18.622  0.00  0.00    +0.000 C 
BRANCH   6  10
ATOM      7  C   UNL     1      -4.869  11.413  18.281  0.00  0.00    +0.000 A 
ATOM      8  C   UNL     1      -4.069  10.784  17.315  0.00  0.00    +0.000 A 
ATOM      9  C   UNL     1      -2.676  10.801  17.408  0.00  0.00    +0.000 A 
ATOM     10  C   UNL     1      -2.054  11.479  18.457  0.00  0.00    +0.000 A 
ATOM     11  C   UNL     1      -2.851  12.156  19.389  0.00  0.00    +0.000 A 
ATOM     12  C   UNL     1      -4.247  12.157  19.299  0.00  0.00    +0.000 A 
BRANCH   7  14
ATOM     13  C   UNL     1      -6.884  12.390  17.498  0.00  0.00    +0.000 C 
ATOM     14  O   UNL     1      -6.235  11.353  18.231  0.00  0.00    +0.000 OA
ENDBRANCH   7  14
BRANCH  12  15
ATOM     15  O   UNL     1      -4.823  12.873  20.319  0.00  0.00    +0.000 OA
ATOM     16  C   UNL     1      -4.257  12.812  21.616  0.00  0.00    +0.000 C 
ENDBRANCH  12  15
ENDBRANCH   6  10
ENDBRANCH   5   6
ENDBRANCH   3   5
ENDBRANCH   2   3
ENDBRANCH   1   2
BRANCH   1  17
ATOM     17  C   UNL     1       3.259   6.541  17.940  0.00  0.00    +0.000 C 
BRANCH  17  18
ATOM     18  N   UNL     1       4.032   5.635  18.862  0.00  0.00    +0.000 N 
ATOM     19  C   UNL     1       3.094   4.664  19.346  0.00  0.00    +0.000 A 
ATOM     20  C   UNL     1       2.227   5.039  20.391  0.00  0.00    +0.000 A 
ATOM     21  C   UNL     1       1.255   4.160  20.868  0.00  0.00    +0.000 A 
ATOM     22  C   UNL     1       1.159   2.881  20.328  0.00  0.00    +0.000 A 
ATOM     23  C   UNL     1       2.011   2.494  19.290  0.00  0.00    +0.000 A 
ATOM     24  C   UNL     1       2.966   3.384  18.775  0.00  0.00    +0.000 A 
ATOM     25  S   UNL     1       3.874   2.889  17.315  0.00  0.00    +0.000 S 
ATOM     26  C   UNL     1       5.086   4.185  17.156  0.00  0.00    +0.000 A 
ATOM     27  C   UNL     1       5.926   4.209  16.038  0.00  0.00    +0.000 A 
ATOM     28  C   UNL     1       6.919   5.186  15.916  0.00  0.00    +0.000 A 
ATOM     29  C   UNL     1       7.142   6.093  16.951  0.00  0.00    +0.000 A 
ATOM     30  C   UNL     1       6.276   6.115  18.037  0.00  0.00    +0.000 A 
ATOM     31  C   UNL     1       5.178   5.240  18.078  0.00  0.00    +0.000 A 
ENDBRANCH  17  18
ENDBRANCH   1  17
TORSDOF 9
ENDMDL
MODEL 6
REMARK VINA RESULT:      -7.4      1.218      3.651
REMARK  Name = 
REMARK  12 active torsions:
REMARK  status: ('A' for Active; 'I' for Inactive)
REMARK    1  A    between atoms: C_1  and  O_2
REMARK    2  A    between atoms: O_2  and  C_3
REMARK    3  A    between atoms: C_6  and  C_7
REMARK    4  A    between atoms: C_7  and  C_8
REMARK    5  A    between atoms: C_8  and  N_9
REMARK    6  A    between atoms: N_9  and  C_10
REMARK    7  A    between atoms: N_9  and  C_11
REMARK    8  A    between atoms: C_11  and  C_12
REMARK    9  A    between atoms: C_12  and  C_13
REMARK   10  A    between atoms: C_13  and  N_14
REMARK   11  A    between atoms: C_29  and  O_30
REMARK   12  A    between atoms: O_30  and  C_31
REMARK                            x       y       z     vdW  Elec       q    Type
REMARK                         _______ _______ _______ _____ _____    ______ ____
ROOT
ATOM      1  C   UNL     1       1.941   7.434  19.373  0.00  0.00    +0.000 C 
ENDROOT
BRANCH   1   2
ATOM      2  C   UNL     1       2.058   8.384  18.172  0.00  0.00    +0.000 C 
BRANCH   2   3
ATOM      3  N   UNL     1       1.269   9.627  18.286  0.00  0.00    +0.000 NA
ATOM      4  C   UNL     1       2.153  10.780  18.082  0.00  0.00    +0.000 C 
BRANCH   3   5
ATOM      5  C   UNL     1       0.560   9.699  19.580  0.00  0.00    +0.000 C 
BRANCH   5   6
ATOM      6  C   UNL     1      -0.008  11.090  19.922  0.00  0.00    +0.000 C 
BRANCH   6  10
ATOM      7  C   UNL     1      -3.978  11.624  18.276  0.00  0.00    +0.000 A 
ATOM      8  C   UNL     1      -3.582  12.312  19.433  0.00  0.00    +0.000 A 
ATOM      9  C   UNL     1      -2.310  12.135  19.981  0.00  0.00    +0.000 A 
ATOM     10  C   UNL     1      -1.416  11.237  19.396  0.00  0.00    +0.000 A 
ATOM     11  C   UNL     1      -1.831  10.507  18.274  0.00  0.00    +0.000 A 
ATOM     12  C   UNL     1      -3.108  10.666  17.724  0.00  0.00    +0.000 A 
BRANCH   7  14
ATOM     13  C   UNL     1      -6.266  11.008  18.164  0.00  0.00    +0.000 C 
ATOM     14  O   UNL     1      -5.200  11.834  17.699  0.00  0.00    +0.000 OA
ENDBRANCH   7  14
BRANCH  12  15
ATOM     15  O   UNL     1      -3.296   9.861  16.629  0.00  0.00    +0.000 OA
ATOM     16  C   UNL     1      -2.889  10.322  15.352  0.00  0.00    +0.000 C 
ENDBRANCH  12  15
ENDBRANCH   6  10
ENDBRANCH   5   6
ENDBRANCH   3   5
ENDBRANCH   2   3
ENDBRANCH   1   2
BRANCH   1  17
ATOM     17  C   UNL     1       3.135   6.485  19.418  0.00  0.00    +0.000 C 
BRANCH  17  18
ATOM     18  N   UNL     1       3.016   5.409  18.372  0.00  0.00    +0.000 N 
ATOM     19  C   UNL     1       4.286   5.357  17.705  0.00  0.00    +0.000 A 
ATOM     20  C   UNL     1       4.561   6.327  16.721  0.00  0.00    +0.000 A 
ATOM     21  C   UNL     1       5.797   6.366  16.078  0.00  0.00    +0.000 A 
ATOM     22  C   UNL     1       6.764   5.413  16.385  0.00  0.00    +0.000 A 
ATOM     23  C   UNL     1       6.506   4.445  17.360  0.00  0.00    +0.000 A 
ATOM     24  C   UNL     1       5.280   4.422  18.043  0.00  0.00    +0.000 A 
ATOM     25  S   UNL     1       5.106   3.288  19.416  0.00  0.00    +0.000 S 
ATOM     26  C   UNL     1       3.379   3.439  19.825  0.00  0.00    +0.000 A 
ATOM     27  C   UNL     1       2.876   2.776  20.948  0.00  0.00    +0.000 A 
ATOM     28  C   UNL     1       1.514   2.838  21.260  0.00  0.00    +0.000 A 
ATOM     29  C   UNL     1       0.627   3.486  20.403  0.00  0.00    +0.000 A 
ATOM     30  C   UNL     1       1.123   4.197  19.318  0.00  0.00    +0.000 A 
ATOM     31  C   UNL     1       2.510   4.271  19.101  0.00  0.00    +0.000 A 
ENDBRANCH  17  18
ENDBRANCH   1  17
TORSDOF 9
ENDMDL
MODEL 7
REMARK VINA RESULT:      -7.4      1.411      3.555
REMARK  Name = 
REMARK  12 active torsions:
REMARK  status: ('A' for Active; 'I' for Inactive)
REMARK    1  A    between atoms: C_1  and  O_2
REMARK    2  A    between atoms: O_2  and  C_3
REMARK    3  A    between atoms: C_6  and  C_7
REMARK    4  A    between atoms: C_7  and  C_8
REMARK    5  A    between atoms: C_8  and  N_9
REMARK    6  A    between atoms: N_9  and  C_10
REMARK    7  A    between atoms: N_9  and  C_11
REMARK    8  A    between atoms: C_11  and  C_12
REMARK    9  A    between atoms: C_12  and  C_13
REMARK   10  A    between atoms: C_13  and  N_14
REMARK   11  A    between atoms: C_29  and  O_30
REMARK   12  A    between atoms: O_30  and  C_31
REMARK                            x       y       z     vdW  Elec       q    Type
REMARK                         _______ _______ _______ _____ _____    ______ ____
ROOT
ATOM      1  C   UNL     1       2.333   8.028  18.027  0.00  0.00    +0.000 C 
ENDROOT
BRANCH   1   2
ATOM      2  C   UNL     1       1.346   8.782  18.929  0.00  0.00    +0.000 C 
BRANCH   2   3
ATOM      3  N   UNL     1       1.021  10.152  18.484  0.00  0.00    +0.000 NA
ATOM      4  C   UNL     1       2.249  10.819  18.037  0.00  0.00    +0.000 C 
BRANCH   3   5
ATOM      5  C   UNL     1       0.334  10.916  19.545  0.00  0.00    +0.000 C 
BRANCH   5   6
ATOM      6  C   UNL     1      -0.432  12.157  19.047  0.00  0.00    +0.000 C 
BRANCH   6  10
ATOM      7  C   UNL     1      -4.528  11.278  17.955  0.00  0.00    +0.000 A 
ATOM      8  C   UNL     1      -4.238  12.032  19.102  0.00  0.00    +0.000 A 
ATOM      9  C   UNL     1      -2.920  12.308  19.471  0.00  0.00    +0.000 A 
ATOM     10  C   UNL     1      -1.862  11.805  18.713  0.00  0.00    +0.000 A 
ATOM     11  C   UNL     1      -2.151  11.004  17.600  0.00  0.00    +0.000 A 
ATOM     12  C   UNL     1      -3.467  10.710  17.228  0.00  0.00    +0.000 A 
BRANCH   7  14
ATOM     13  C   UNL     1      -6.836  11.693  18.317  0.00  0.00    +0.000 C 
ATOM     14  O   UNL     1      -5.816  11.052  17.552  0.00  0.00    +0.000 OA
ENDBRANCH   7  14
BRANCH  12  15
ATOM     15  O   UNL     1      -3.516   9.920  16.107  0.00  0.00    +0.000 OA
ATOM     16  C   UNL     1      -3.123  10.463  14.859  0.00  0.00    +0.000 C 
ENDBRANCH  12  15
ENDBRANCH   6  10
ENDBRANCH   5   6
ENDBRANCH   3   5
ENDBRANCH   2   3
ENDBRANCH   1   2
BRANCH   1  17
ATOM     17  C   UNL     1       2.886   6.803  18.751  0.00  0.00    +0.000 C 
BRANCH  17  18
ATOM     18  N   UNL     1       3.472   5.813  17.779  0.00  0.00    +0.000 N 
ATOM     19  C   UNL     1       4.895   5.984  17.845  0.00  0.00    +0.000 A 
ATOM     20  C   UNL     1       5.470   7.061  17.143  0.00  0.00    +0.000 A 
ATOM     21  C   UNL     1       6.839   7.314  17.212  0.00  0.00    +0.000 A 
ATOM     22  C   UNL     1       7.658   6.472  17.959  0.00  0.00    +0.000 A 
ATOM     23  C   UNL     1       7.102   5.400  18.662  0.00  0.00    +0.000 A 
ATOM     24  C   UNL     1       5.720   5.160  18.632  0.00  0.00    +0.000 A 
ATOM     25  S   UNL     1       5.062   3.900  19.719  0.00  0.00    +0.000 S 
ATOM     26  C   UNL     1       3.363   3.791  19.200  0.00  0.00    +0.000 A 
ATOM     27  C   UNL     1       2.476   2.975  19.911  0.00  0.00    +0.000 A 
ATOM     28  C   UNL     1       1.149   2.833  19.492  0.00  0.00    +0.000 A 
ATOM     29  C   UNL     1       0.719   3.432  18.310  0.00  0.00    +0.000 A 
ATOM     30  C   UNL     1       1.573   4.291  17.629  0.00  0.00    +0.000 A 
ATOM     31  C   UNL     1       2.853   4.562  18.143  0.00  0.00    +0.000 A 
ENDBRANCH  17  18
ENDBRANCH   1  17
TORSDOF 9
ENDMDL
MODEL 8
REMARK VINA RESULT:      -7.4      1.157      1.412
REMARK  Name = 
REMARK  12 active torsions:
REMARK  status: ('A' for Active; 'I' for Inactive)
REMARK    1  A    between atoms: C_1  and  O_2
REMARK    2  A    between atoms: O_2  and  C_3
REMARK    3  A    between atoms: C_6  and  C_7
REMARK    4  A    between atoms: C_7  and  C_8
REMARK    5  A    between atoms: C_8  and  N_9
REMARK    6  A    between atoms: N_9  and  C_10
REMARK    7  A    between atoms: N_9  and  C_11
REMARK    8  A    between atoms: C_11  and  C_12
REMARK    9  A    between atoms: C_12  and  C_13
REMARK   10  A    between atoms: C_13  and  N_14
REMARK   11  A    between atoms: C_29  and  O_30
REMARK   12  A    between atoms: O_30  and  C_31
REMARK                            x       y       z     vdW  Elec       q    Type
REMARK                         _______ _______ _______ _____ _____    ______ ____
ROOT
ATOM      1  C   UNL     1       2.356   7.540  18.458  0.00  0.00    +0.000 C 
ENDROOT
BRANCH   1   2
ATOM      2  C   UNL     1       2.640   8.867  17.739  0.00  0.00    +0.000 C 
BRANCH   2   3
ATOM      3  N   UNL     1       1.615   9.911  17.940  0.00  0.00    +0.000 NA
ATOM      4  C   UNL     1       2.266  11.226  17.977  0.00  0.00    +0.000 C 
BRANCH   3   5
ATOM      5  C   UNL     1       0.818   9.658  19.158  0.00  0.00    +0.000 C 
BRANCH   5   6
ATOM      6  C   UNL     1       0.462  10.921  19.964  0.00  0.00    +0.000 C 
BRANCH   6  10
ATOM      7  C   UNL     1      -3.645  12.113  19.286  0.00  0.00    +0.000 A 
ATOM      8  C   UNL     1      -2.985  12.459  20.475  0.00  0.00    +0.000 A 
ATOM      9  C   UNL     1      -1.666  12.067  20.710  0.00  0.00    +0.000 A 
ATOM     10  C   UNL     1      -0.990  11.289  19.768  0.00  0.00    +0.000 A 
ATOM     11  C   UNL     1      -1.668  10.895  18.607  0.00  0.00    +0.000 A 
ATOM     12  C   UNL     1      -2.994  11.271  18.367  0.00  0.00    +0.000 A 
BRANCH   7  14
ATOM     13  C   UNL     1      -5.967  11.857  19.701  0.00  0.00    +0.000 C 
ATOM     14  O   UNL     1      -4.917  12.542  19.021  0.00  0.00    +0.000 OA
ENDBRANCH   7  14
BRANCH  12  15
ATOM     15  O   UNL     1      -3.454  10.783  17.170  0.00  0.00    +0.000 OA
ATOM     16  C   UNL     1      -2.584  10.755  16.052  0.00  0.00    +0.000 C 
ENDBRANCH  12  15
ENDBRANCH   6  10
ENDBRANCH   5   6
ENDBRANCH   3   5
ENDBRANCH   2   3
ENDBRANCH   1   2
BRANCH   1  17
ATOM     17  C   UNL     1       3.114   6.399  17.785  0.00  0.00    +0.000 C 
BRANCH  17  18
ATOM     18  N   UNL     1       3.899   5.597  18.790  0.00  0.00    +0.000 N 
ATOM     19  C   UNL     1       2.999   4.605  19.301  0.00  0.00    +0.000 A 
ATOM     20  C   UNL     1       2.071   4.992  20.288  0.00  0.00    +0.000 A 
ATOM     21  C   UNL     1       1.132   4.089  20.785  0.00  0.00    +0.000 A 
ATOM     22  C   UNL     1       1.130   2.776  20.325  0.00  0.00    +0.000 A 
ATOM     23  C   UNL     1       2.042   2.376  19.345  0.00  0.00    +0.000 A 
ATOM     24  C   UNL     1       2.966   3.287  18.809  0.00  0.00    +0.000 A 
ATOM     25  S   UNL     1       3.957   2.757  17.417  0.00  0.00    +0.000 S 
ATOM     26  C   UNL     1       5.099   4.109  17.219  0.00  0.00    +0.000 A 
ATOM     27  C   UNL     1       5.981   4.114  16.133  0.00  0.00    +0.000 A 
ATOM     28  C   UNL     1       6.921   5.138  15.985  0.00  0.00    +0.000 A 
ATOM     29  C   UNL     1       7.052   6.118  16.967  0.00  0.00    +0.000 A 
ATOM     30  C   UNL     1       6.144   6.156  18.018  0.00  0.00    +0.000 A 
ATOM     31  C   UNL     1       5.095   5.222  18.075  0.00  0.00    +0.000 A 
ENDBRANCH  17  18
ENDBRANCH   1  17
TORSDOF 9
ENDMDL
MODEL 9
REMARK VINA RESULT:      -7.4      1.222      2.266
REMARK  Name = 
REMARK  12 active torsions:
REMARK  status: ('A' for Active; 'I' for Inactive)
REMARK    1  A    between atoms: C_1  and  O_2
REMARK    2  A    between atoms: O_2  and  C_3
REMARK    3  A    between atoms: C_6  and  C_7
REMARK    4  A    between atoms: C_7  and  C_8
REMARK    5  A    between atoms: C_8  and  N_9
REMARK    6  A    between atoms: N_9  and  C_10
REMARK    7  A    between atoms: N_9  and  C_11
REMARK    8  A    between atoms: C_11  and  C_12
REMARK    9  A    between atoms: C_12  and  C_13
REMARK   10  A    between atoms: C_13  and  N_14
REMARK   11  A    between atoms: C_29  and  O_30
REMARK   12  A    between atoms: O_30  and  C_31
REMARK                            x       y       z     vdW  Elec       q    Type
REMARK                         _______ _______ _______ _____ _____    ______ ____
ROOT
ATOM      1  C   UNL     1       2.877   7.762  18.149  0.00  0.00    +0.000 C 
ENDROOT
BRANCH   1   2
ATOM      2  C   UNL     1       1.874   8.265  19.197  0.00  0.00    +0.000 C 
BRANCH   2   3
ATOM      3  N   UNL     1       1.031   9.395  18.756  0.00  0.00    +0.000 NA
ATOM      4  C   UNL     1       1.869  10.383  18.067  0.00  0.00    +0.000 C 
BRANCH   3   5
ATOM      5  C   UNL     1       0.293   9.992  19.888  0.00  0.00    +0.000 C 
BRANCH   5   6
ATOM      6  C   UNL     1      -0.012  11.494  19.732  0.00  0.00    +0.000 C 
BRANCH   6  10
ATOM      7  C   UNL     1      -4.219  11.975  18.827  0.00  0.00    +0.000 A 
ATOM      8  C   UNL     1      -3.352  11.368  17.906  0.00  0.00    +0.000 A 
ATOM      9  C   UNL     1      -1.991  11.221  18.182  0.00  0.00    +0.000 A 
ATOM     10  C   UNL     1      -1.464  11.712  19.377  0.00  0.00    +0.000 A 
ATOM     11  C   UNL     1      -2.318  12.370  20.272  0.00  0.00    +0.000 A 
ATOM     12  C   UNL     1      -3.681  12.534  20.001  0.00  0.00    +0.000 A 
BRANCH   7  14
ATOM     13  C   UNL     1      -6.248  10.843  18.350  0.00  0.00    +0.000 C 
ATOM     14  O   UNL     1      -5.563  12.071  18.592  0.00  0.00    +0.000 OA
ENDBRANCH   7  14
BRANCH  12  15
ATOM     15  O   UNL     1      -4.327  13.197  21.014  0.00  0.00    +0.000 OA
ATOM     16  C   UNL     1      -3.617  13.513  22.199  0.00  0.00    +0.000 C 
ENDBRANCH  12  15
ENDBRANCH   6  10
ENDBRANCH   5   6
ENDBRANCH   3   5
ENDBRANCH   2   3
ENDBRANCH   1   2
BRANCH   1  17
ATOM     17  C   UNL     1       2.753   6.251  17.977  0.00  0.00    +0.000 C 
BRANCH  17  18
ATOM     18  N   UNL     1       3.767   5.521  18.818  0.00  0.00    +0.000 N 
ATOM     19  C   UNL     1       3.047   4.485  19.501  0.00  0.00    +0.000 A 
ATOM     20  C   UNL     1       2.304   4.834  20.646  0.00  0.00    +0.000 A 
ATOM     21  C   UNL     1       1.538   3.885  21.322  0.00  0.00    +0.000 A 
ATOM     22  C   UNL     1       1.533   2.565  20.882  0.00  0.00    +0.000 A 
ATOM     23  C   UNL     1       2.264   2.203  19.747  0.00  0.00    +0.000 A 
ATOM     24  C   UNL     1       3.006   3.158  19.036  0.00  0.00    +0.000 A 
ATOM     25  S   UNL     1       3.744   2.662  17.483  0.00  0.00    +0.000 S 
ATOM     26  C   UNL     1       4.737   4.078  17.057  0.00  0.00    +0.000 A 
ATOM     27  C   UNL     1       5.391   4.115  15.822  0.00  0.00    +0.000 A 
ATOM     28  C   UNL     1       6.217   5.192  15.486  0.00  0.00    +0.000 A 
ATOM     29  C   UNL     1       6.470   6.198  16.417  0.00  0.00    +0.000 A 
ATOM     30  C   UNL     1       5.780   6.202  17.623  0.00  0.00    +0.000 A 
ATOM     31  C   UNL     1       4.825   5.206  17.889  0.00  0.00    +0.000 A 
ENDBRANCH  17  18
ENDBRANCH   1  17
TORSDOF 9
ENDMDL
