MODEL 1
REMARK VINA RESULT:      -7.6      0.000      0.000
REMARK  Name = 
REMARK  6 active torsions:
REMARK  status: ('A' for Active; 'I' for Inactive)
REMARK    1  A    between atoms: N_1  and  C_2
REMARK    2  A    between atoms: N_5  and  C_6
REMARK    3  A    between atoms: N_15  and  C_16
REMARK    4  A    between atoms: C_16  and  C_17
REMARK    5  A    between atoms: C_17  and  O_18
REMARK    6  A    between atoms: C_19  and  N_20
REMARK                            x       y       z     vdW  Elec       q    Type
REMARK                         _______ _______ _______ _____ _____    ______ ____
ROOT
ATOM      1  C   UNL     1       5.582   6.374  17.534  0.00  0.00    +0.000 A 
ATOM      2  N   UNL     1       4.381   6.860  17.855  0.00  0.00    +0.000 NA
ATOM      3  C   UNL     1       3.561   6.101  18.598  0.00  0.00    +0.000 A 
ATOM      4  N   UNL     1       2.299   6.578  18.931  0.00  0.00    +0.000 N 
ATOM      5  N   UNL     1       3.890   4.876  19.036  0.00  0.00    +0.000 NA
ATOM      6  C   UNL     1       5.112   4.385  18.747  0.00  0.00    +0.000 A 
ATOM      7  N   UNL     1       5.418   3.127  19.255  0.00  0.00    +0.000 N 
ATOM      8  C   UNL     1       5.985   5.131  17.974  0.00  0.00    +0.000 A 
ATOM      9  H   UNL     1       1.719   5.876  19.372  0.00  0.00    +0.000 HD
ATOM     10  H   UNL     1       6.269   3.069  19.808  0.00  0.00    +0.000 HD
ENDROOT
BRANCH   4  11
ATOM     11  C   UNL     1       1.865   7.907  19.002  0.00  0.00    +0.000 A 
ATOM     12  C   UNL     1       1.914   8.713  17.857  0.00  0.00    +0.000 A 
ATOM     13  C   UNL     1       1.576  10.070  17.921  0.00  0.00    +0.000 A 
ATOM     14  C   UNL     1       1.171  10.633  19.129  0.00  0.00    +0.000 A 
ATOM     15  C   UNL     1       1.110   9.834  20.261  0.00  0.00    +0.000 A 
ATOM     16  F   UNL     1       0.717  10.367  21.426  0.00  0.00    +0.000 F 
ATOM     17  C   UNL     1       1.460   8.491  20.208  0.00  0.00    +0.000 A 
ENDBRANCH   4  11
BRANCH   1  18
ATOM     18  N   UNL     1       6.309   7.190  16.671  0.00  0.00    +0.000 N 
ATOM     19  H   UNL     1       7.301   7.014  16.820  0.00  0.00    +0.000 HD
ATOM     20  H   UNL     1       6.046   7.093  15.693  0.00  0.00    +0.000 HD
ENDBRANCH   1  18
BRANCH   8  21
ATOM     21  N   UNL     1       7.279   4.641  17.610  0.00  0.00    +0.000 N 
ATOM     22  O   UNL     1       8.083   4.448  18.536  0.00  0.00    +0.000 OA
ATOM     23  O   UNL     1       7.514   4.445  16.411  0.00  0.00    +0.000 OA
ENDBRANCH   8  21
BRANCH   7  24
ATOM     24  C   UNL     1       4.342   2.214  19.661  0.00  0.00    +0.000 C 
BRANCH  24  25
ATOM     25  C   UNL     1       3.669   1.464  18.501  0.00  0.00    +0.000 C 
BRANCH  25  26
ATOM     26  O   UNL     1       2.247   1.475  18.562  0.00  0.00    +0.000 OA
ATOM     27  H   UNL     1       1.934   1.017  17.756  0.00  0.00    +0.000 HD
ENDBRANCH  25  26
ENDBRANCH  24  25
ENDBRANCH   7  24
TORSDOF 6
ENDMDL
MODEL 2
REMARK VINA RESULT:      -7.5      1.602      3.421
REMARK  Name = 
REMARK  6 active torsions:
REMARK  status: ('A' for Active; 'I' for Inactive)
REMARK    1  A    between atoms: N_1  and  C_2
REMARK    2  A    between atoms: N_5  and  C_6
REMARK    3  A    between atoms: N_15  and  C_16
REMARK    4  A    between atoms: C_16  and  C_17
REMARK    5  A    between atoms: C_17  and  O_18
REMARK    6  A    between atoms: C_19  and  N_20
REMARK                            x       y       z     vdW  Elec       q    Type
REMARK                         _______ _______ _______ _____ _____    ______ ____
ROOT
ATOM      1  C   UNL     1       3.042   4.338  19.942  0.00  0.00    +0.000 A 
ATOM      2  N   UNL     1       2.772   5.623  19.701  0.00  0.00    +0.000 NA
ATOM      3  C   UNL     1       3.298   6.194  18.606  0.00  0.00    +0.000 A 
ATOM      4  N   UNL     1       3.045   7.534  18.342  0.00  0.00    +0.000 N 
ATOM      5  N   UNL     1       4.081   5.534  17.739  0.00  0.00    +0.000 NA
ATOM      6  C   UNL     1       4.336   4.227  17.952  0.00  0.00    +0.000 A 
ATOM      7  N   UNL     1       5.123   3.580  17.004  0.00  0.00    +0.000 N 
ATOM      8  C   UNL     1       3.823   3.602  19.075  0.00  0.00    +0.000 A 
ATOM      9  H   UNL     1       3.597   7.893  17.575  0.00  0.00    +0.000 HD
ATOM     10  H   UNL     1       4.722   2.740  16.596  0.00  0.00    +0.000 HD
ENDROOT
BRANCH   4  11
ATOM     11  C   UNL     1       1.972   8.317  18.783  0.00  0.00    +0.000 A 
ATOM     12  C   UNL     1       1.288   9.131  17.872  0.00  0.00    +0.000 A 
ATOM     13  C   UNL     1       0.273   9.995  18.302  0.00  0.00    +0.000 A 
ATOM     14  C   UNL     1      -0.079  10.041  19.649  0.00  0.00    +0.000 A 
ATOM     15  C   UNL     1       0.587   9.226  20.552  0.00  0.00    +0.000 A 
ATOM     16  F   UNL     1       0.251   9.261  21.848  0.00  0.00    +0.000 F 
ATOM     17  C   UNL     1       1.607   8.379  20.134  0.00  0.00    +0.000 A 
ENDBRANCH   4  11
BRANCH   1  18
ATOM     18  N   UNL     1       2.543   3.874  21.156  0.00  0.00    +0.000 N 
ATOM     19  H   UNL     1       1.526   3.883  21.111  0.00  0.00    +0.000 HD
ATOM     20  H   UNL     1       2.906   2.964  21.430  0.00  0.00    +0.000 HD
ENDBRANCH   1  18
BRANCH   8  21
ATOM     21  N   UNL     1       4.092   2.228  19.365  0.00  0.00    +0.000 N 
ATOM     22  O   UNL     1       3.560   1.387  18.624  0.00  0.00    +0.000 OA
ATOM     23  O   UNL     1       4.828   1.966  20.325  0.00  0.00    +0.000 OA
ENDBRANCH   8  21
BRANCH   7  24
ATOM     24  C   UNL     1       5.993   4.357  16.113  0.00  0.00    +0.000 C 
BRANCH  24  25
ATOM     25  C   UNL     1       7.323   4.800  16.744  0.00  0.00    +0.000 C 
BRANCH  25  26
ATOM     26  O   UNL     1       7.747   3.975  17.823  0.00  0.00    +0.000 OA
ATOM     27  H   UNL     1       7.022   3.989  18.480  0.00  0.00    +0.000 HD
ENDBRANCH  25  26
ENDBRANCH  24  25
ENDBRANCH   7  24
TORSDOF 6
ENDMDL
MODEL 3
REMARK VINA RESULT:      -7.4      1.876      3.449
REMARK  Name = 
REMARK  6 active torsions:
REMARK  status: ('A' for Active; 'I' for Inactive)
REMARK    1  A    between atoms: N_1  and  C_2
REMARK    2  A    between atoms: N_5  and  C_6
REMARK    3  A    between atoms: N_15  and  C_16
REMARK    4  A    between atoms: C_16  and  C_17
REMARK    5  A    between atoms: C_17  and  O_18
REMARK    6  A    between atoms: C_19  and  N_20
REMARK                            x       y       z     vdW  Elec       q    Type
REMARK                         _______ _______ _______ _____ _____    ______ ____
ROOT
ATOM      1  C   UNL     1       3.070   4.273  19.915  0.00  0.00    +0.000 A 
ATOM      2  N   UNL     1       2.811   5.564  19.687  0.00  0.00    +0.000 NA
ATOM      3  C   UNL     1       3.366   6.148  18.614  0.00  0.00    +0.000 A 
ATOM      4  N   UNL     1       3.124   7.494  18.365  0.00  0.00    +0.000 N 
ATOM      5  N   UNL     1       4.168   5.499  17.757  0.00  0.00    +0.000 NA
ATOM      6  C   UNL     1       4.413   4.188  17.956  0.00  0.00    +0.000 A 
ATOM      7  N   UNL     1       5.221   3.553  17.019  0.00  0.00    +0.000 N 
ATOM      8  C   UNL     1       3.870   3.548  19.056  0.00  0.00    +0.000 A 
ATOM      9  H   UNL     1       3.696   7.862  17.617  0.00  0.00    +0.000 HD
ATOM     10  H   UNL     1       4.828   2.721  16.589  0.00  0.00    +0.000 HD
ENDROOT
BRANCH   4  11
ATOM     11  C   UNL     1       2.043   8.274  18.791  0.00  0.00    +0.000 A 
ATOM     12  C   UNL     1       1.384   9.104  17.874  0.00  0.00    +0.000 A 
ATOM     13  C   UNL     1       0.362   9.964  18.292  0.00  0.00    +0.000 A 
ATOM     14  C   UNL     1      -0.024   9.992  19.631  0.00  0.00    +0.000 A 
ATOM     15  C   UNL     1       0.618   9.162  20.538  0.00  0.00    +0.000 A 
ATOM     16  F   UNL     1       0.250   9.179  21.826  0.00  0.00    +0.000 F 
ATOM     17  C   UNL     1       1.644   8.318  20.132  0.00  0.00    +0.000 A 
ENDBRANCH   4  11
BRANCH   1  18
ATOM     18  N   UNL     1       2.539   3.794  21.109  0.00  0.00    +0.000 N 
ATOM     19  H   UNL     1       3.113   4.135  21.878  0.00  0.00    +0.000 HD
ATOM     20  H   UNL     1       1.554   4.015  21.240  0.00  0.00    +0.000 HD
ENDBRANCH   1  18
BRANCH   8  21
ATOM     21  N   UNL     1       4.127   2.169  19.332  0.00  0.00    +0.000 N 
ATOM     22  O   UNL     1       3.603   1.341  18.571  0.00  0.00    +0.000 OA
ATOM     23  O   UNL     1       4.845   1.890  20.301  0.00  0.00    +0.000 OA
ENDBRANCH   8  21
BRANCH   7  24
ATOM     24  C   UNL     1       6.116   4.340  16.162  0.00  0.00    +0.000 C 
BRANCH  24  25
ATOM     25  C   UNL     1       5.715   4.375  14.679  0.00  0.00    +0.000 C 
BRANCH  25  26
ATOM     26  O   UNL     1       6.340   3.367  13.894  0.00  0.00    +0.000 OA
ATOM     27  H   UNL     1       7.110   3.792  13.465  0.00  0.00    +0.000 HD
ENDBRANCH  25  26
ENDBRANCH  24  25
ENDBRANCH   7  24
TORSDOF 6
ENDMDL
MODEL 4
REMARK VINA RESULT:      -7.3      0.992      1.279
REMARK  Name = 
REMARK  6 active torsions:
REMARK  status: ('A' for Active; 'I' for Inactive)
REMARK    1  A    between atoms: N_1  and  C_2
REMARK    2  A    between atoms: N_5  and  C_6
REMARK    3  A    between atoms: N_15  and  C_16
REMARK    4  A    between atoms: C_16  and  C_17
REMARK    5  A    between atoms: C_17  and  O_18
REMARK    6  A    between atoms: C_19  and  N_20
REMARK                            x       y       z     vdW  Elec       q    Type
REMARK                         _______ _______ _______ _____ _____    ______ ____
ROOT
ATOM      1  C   UNL     1       5.678   6.420  17.476  0.00  0.00    +0.000 A 
ATOM      2  N   UNL     1       4.469   6.901  17.779  0.00  0.00    +0.000 NA
ATOM      3  C   UNL     1       3.632   6.128  18.488  0.00  0.00    +0.000 A 
ATOM      4  N   UNL     1       2.363   6.600  18.802  0.00  0.00    +0.000 N 
ATOM      5  N   UNL     1       3.950   4.895  18.909  0.00  0.00    +0.000 NA
ATOM      6  C   UNL     1       5.178   4.408  18.638  0.00  0.00    +0.000 A 
ATOM      7  N   UNL     1       5.471   3.140  19.128  0.00  0.00    +0.000 N 
ATOM      8  C   UNL     1       6.069   5.168  17.901  0.00  0.00    +0.000 A 
ATOM      9  H   UNL     1       1.773   5.891  19.214  0.00  0.00    +0.000 HD
ATOM     10  H   UNL     1       6.309   3.070  19.698  0.00  0.00    +0.000 HD
ENDROOT
BRANCH   4  11
ATOM     11  C   UNL     1       1.929   7.928  18.889  0.00  0.00    +0.000 A 
ATOM     12  C   UNL     1       2.032   8.765  17.770  0.00  0.00    +0.000 A 
ATOM     13  C   UNL     1       1.694  10.121  17.856  0.00  0.00    +0.000 A 
ATOM     14  C   UNL     1       1.234  10.651  19.059  0.00  0.00    +0.000 A 
ATOM     15  C   UNL     1       1.118   9.821  20.165  0.00  0.00    +0.000 A 
ATOM     16  F   UNL     1       0.672  10.323  21.325  0.00  0.00    +0.000 F 
ATOM     17  C   UNL     1       1.468   8.479  20.091  0.00  0.00    +0.000 A 
ENDBRANCH   4  11
BRANCH   1  18
ATOM     18  N   UNL     1       6.425   7.253  16.647  0.00  0.00    +0.000 N 
ATOM     19  H   UNL     1       5.792   7.917  16.203  0.00  0.00    +0.000 HD
ATOM     20  H   UNL     1       7.198   7.718  17.118  0.00  0.00    +0.000 HD
ENDBRANCH   1  18
BRANCH   8  21
ATOM     21  N   UNL     1       7.370   4.685  17.557  0.00  0.00    +0.000 N 
ATOM     22  O   UNL     1       7.613   4.549  16.347  0.00  0.00    +0.000 OA
ATOM     23  O   UNL     1       8.163   4.433  18.473  0.00  0.00    +0.000 OA
ENDBRANCH   8  21
BRANCH   7  24
ATOM     24  C   UNL     1       4.386   2.220  19.489  0.00  0.00    +0.000 C 
BRANCH  24  25
ATOM     25  C   UNL     1       4.289   1.904  20.990  0.00  0.00    +0.000 C 
BRANCH  25  26
ATOM     26  O   UNL     1       5.470   1.323  21.530  0.00  0.00    +0.000 OA
ATOM     27  H   UNL     1       5.225   0.421  21.817  0.00  0.00    +0.000 HD
ENDBRANCH  25  26
ENDBRANCH  24  25
ENDBRANCH   7  24
TORSDOF 6
ENDMDL
MODEL 5
REMARK VINA RESULT:      -7.3      0.930      1.391
REMARK  Name = 
REMARK  6 active torsions:
REMARK  status: ('A' for Active; 'I' for Inactive)
REMARK    1  A    between atoms: N_1  and  C_2
REMARK    2  A    between atoms: N_5  and  C_6
REMARK    3  A    between atoms: N_15  and  C_16
REMARK    4  A    between atoms: C_16  and  C_17
REMARK    5  A    between atoms: C_17  and  O_18
REMARK    6  A    between atoms: C_19  and  N_20
REMARK                            x       y       z     vdW  Elec       q    Type
REMARK                         _______ _______ _______ _____ _____    ______ ____
ROOT
ATOM      1  C   UNL     1       5.367   6.299  17.669  0.00  0.00    +0.000 A 
ATOM      2  N   UNL     1       4.213   6.774  18.146  0.00  0.00    +0.000 NA
ATOM      3  C   UNL     1       3.475   5.983  18.940  0.00  0.00    +0.000 A 
ATOM      4  N   UNL     1       2.263   6.448  19.435  0.00  0.00    +0.000 N 
ATOM      5  N   UNL     1       3.841   4.738  19.281  0.00  0.00    +0.000 NA
ATOM      6  C   UNL     1       5.019   4.257  18.834  0.00  0.00    +0.000 A 
ATOM      7  N   UNL     1       5.369   2.976  19.246  0.00  0.00    +0.000 N 
ATOM      8  C   UNL     1       5.806   5.035  18.003  0.00  0.00    +0.000 A 
ATOM      9  H   UNL     1       1.730   5.729  19.905  0.00  0.00    +0.000 HD
ATOM     10  H   UNL     1       6.276   2.889  19.696  0.00  0.00    +0.000 HD
ENDROOT
BRANCH   4  11
ATOM     11  C   UNL     1       1.852   7.774  19.616  0.00  0.00    +0.000 A 
ATOM     12  C   UNL     1       1.383   8.189  20.869  0.00  0.00    +0.000 A 
ATOM     13  C   UNL     1       0.878   9.481  21.054  0.00  0.00    +0.000 A 
ATOM     14  C   UNL     1       0.850  10.379  19.989  0.00  0.00    +0.000 A 
ATOM     15  C   UNL     1       1.326   9.975  18.750  0.00  0.00    +0.000 A 
ATOM     16  F   UNL     1       1.307  10.834  17.722  0.00  0.00    +0.000 F 
ATOM     17  C   UNL     1       1.813   8.688  18.556  0.00  0.00    +0.000 A 
ENDBRANCH   4  11
BRANCH   1  18
ATOM     18  N   UNL     1       5.999   7.153  16.769  0.00  0.00    +0.000 N 
ATOM     19  H   UNL     1       5.391   7.952  16.601  0.00  0.00    +0.000 HD
ATOM     20  H   UNL     1       6.933   7.437  17.057  0.00  0.00    +0.000 HD
ENDBRANCH   1  18
BRANCH   8  21
ATOM     21  N   UNL     1       7.046   4.559  17.473  0.00  0.00    +0.000 N 
ATOM     22  O   UNL     1       7.970   4.387  18.284  0.00  0.00    +0.000 OA
ATOM     23  O   UNL     1       7.121   4.352  16.256  0.00  0.00    +0.000 OA
ENDBRANCH   8  21
BRANCH   7  24
ATOM     24  C   UNL     1       4.338   2.048  19.727  0.00  0.00    +0.000 C 
BRANCH  24  25
ATOM     25  C   UNL     1       3.532   1.355  18.616  0.00  0.00    +0.000 C 
BRANCH  25  26
ATOM     26  O   UNL     1       2.210   1.859  18.470  0.00  0.00    +0.000 OA
ATOM     27  H   UNL     1       2.231   2.466  17.704  0.00  0.00    +0.000 HD
ENDBRANCH  25  26
ENDBRANCH  24  25
ENDBRANCH   7  24
TORSDOF 6
ENDMDL
MODEL 6
REMARK VINA RESULT:      -7.3      1.831      3.864
REMARK  Name = 
REMARK  6 active torsions:
REMARK  status: ('A' for Active; 'I' for Inactive)
REMARK    1  A    between atoms: N_1  and  C_2
REMARK    2  A    between atoms: N_5  and  C_6
REMARK    3  A    between atoms: N_15  and  C_16
REMARK    4  A    between atoms: C_16  and  C_17
REMARK    5  A    between atoms: C_17  and  O_18
REMARK    6  A    between atoms: C_19  and  N_20
REMARK                            x       y       z     vdW  Elec       q    Type
REMARK                         _______ _______ _______ _____ _____    ______ ____
ROOT
ATOM      1  C   UNL     1       1.744   3.963  19.368  0.00  0.00    +0.000 A 
ATOM      2  N   UNL     1       1.707   5.235  19.772  0.00  0.00    +0.000 NA
ATOM      3  C   UNL     1       2.776   6.013  19.536  0.00  0.00    +0.000 A 
ATOM      4  N   UNL     1       2.768   7.336  19.961  0.00  0.00    +0.000 N 
ATOM      5  N   UNL     1       3.879   5.574  18.912  0.00  0.00    +0.000 NA
ATOM      6  C   UNL     1       3.918   4.300  18.471  0.00  0.00    +0.000 A 
ATOM      7  N   UNL     1       5.070   3.906  17.798  0.00  0.00    +0.000 N 
ATOM      8  C   UNL     1       2.842   3.462  18.702  0.00  0.00    +0.000 A 
ATOM      9  H   UNL     1       3.667   7.786  19.856  0.00  0.00    +0.000 HD
ATOM     10  H   UNL     1       4.927   3.509  16.874  0.00  0.00    +0.000 HD
ENDROOT
BRANCH   4  11
ATOM     11  C   UNL     1       1.664   8.157  20.219  0.00  0.00    +0.000 A 
ATOM     12  C   UNL     1       1.253   9.087  19.255  0.00  0.00    +0.000 A 
ATOM     13  C   UNL     1       0.214   9.985  19.523  0.00  0.00    +0.000 A 
ATOM     14  C   UNL     1      -0.438   9.952  20.754  0.00  0.00    +0.000 A 
ATOM     15  C   UNL     1      -0.042   9.024  21.705  0.00  0.00    +0.000 A 
ATOM     16  F   UNL     1      -0.666   8.983  22.890  0.00  0.00    +0.000 F 
ATOM     17  C   UNL     1       1.001   8.141  21.452  0.00  0.00    +0.000 A 
ENDBRANCH   4  11
BRANCH   1  18
ATOM     18  N   UNL     1       0.636   3.215  19.759  0.00  0.00    +0.000 N 
ATOM     19  H   UNL     1       0.493   3.349  20.758  0.00  0.00    +0.000 HD
ATOM     20  H   UNL     1      -0.206   3.415  19.222  0.00  0.00    +0.000 HD
ENDBRANCH   1  18
BRANCH   8  21
ATOM     21  N   UNL     1       2.847   2.094  18.285  0.00  0.00    +0.000 N 
ATOM     22  O   UNL     1       3.695   1.354  18.809  0.00  0.00    +0.000 OA
ATOM     23  O   UNL     1       2.018   1.737  17.439  0.00  0.00    +0.000 OA
ENDBRANCH   8  21
BRANCH   7  24
ATOM     24  C   UNL     1       6.320   4.655  17.974  0.00  0.00    +0.000 C 
BRANCH  24  25
ATOM     25  C   UNL     1       7.225   4.688  16.732  0.00  0.00    +0.000 C 
BRANCH  25  26
ATOM     26  O   UNL     1       7.455   5.999  16.227  0.00  0.00    +0.000 OA
ATOM     27  H   UNL     1       6.930   6.604  16.788  0.00  0.00    +0.000 HD
ENDBRANCH  25  26
ENDBRANCH  24  25
ENDBRANCH   7  24
TORSDOF 6
ENDMDL
MODEL 7
REMARK VINA RESULT:      -7.2      1.953      4.060
REMARK  Name = 
REMARK  6 active torsions:
REMARK  status: ('A' for Active; 'I' for Inactive)
REMARK    1  A    between atoms: N_1  and  C_2
REMARK    2  A    between atoms: N_5  and  C_6
REMARK    3  A    between atoms: N_15  and  C_16
REMARK    4  A    between atoms: C_16  and  C_17
REMARK    5  A    between atoms: C_17  and  O_18
REMARK    6  A    between atoms: C_19  and  N_20
REMARK                            x       y       z     vdW  Elec       q    Type
REMARK                         _______ _______ _______ _____ _____    ______ ____
ROOT
ATOM      1  C   UNL     1       1.559   4.364  19.791  0.00  0.00    +0.000 A 
ATOM      2  N   UNL     1       1.542   5.635  20.199  0.00  0.00    +0.000 NA
ATOM      3  C   UNL     1       2.447   6.484  19.687  0.00  0.00    +0.000 A 
ATOM      4  N   UNL     1       2.461   7.808  20.108  0.00  0.00    +0.000 N 
ATOM      5  N   UNL     1       3.368   6.117  18.782  0.00  0.00    +0.000 NA
ATOM      6  C   UNL     1       3.376   4.844  18.337  0.00  0.00    +0.000 A 
ATOM      7  N   UNL     1       4.326   4.525  17.373  0.00  0.00    +0.000 N 
ATOM      8  C   UNL     1       2.467   3.934  18.846  0.00  0.00    +0.000 A 
ATOM      9  H   UNL     1       3.262   8.320  19.764  0.00  0.00    +0.000 HD
ATOM     10  H   UNL     1       3.966   4.107  16.519  0.00  0.00    +0.000 HD
ENDROOT
BRANCH   4  11
ATOM     11  C   UNL     1       1.413   8.552  20.663  0.00  0.00    +0.000 A 
ATOM     12  C   UNL     1       0.607   9.340  19.831  0.00  0.00    +0.000 A 
ATOM     13  C   UNL     1      -0.387  10.166  20.369  0.00  0.00    +0.000 A 
ATOM     14  C   UNL     1      -0.595  10.202  21.746  0.00  0.00    +0.000 A 
ATOM     15  C   UNL     1       0.193   9.412  22.571  0.00  0.00    +0.000 A 
ATOM     16  F   UNL     1      -0.005   9.437  23.896  0.00  0.00    +0.000 F 
ATOM     17  C   UNL     1       1.192   8.603  22.044  0.00  0.00    +0.000 A 
ENDBRANCH   4  11
BRANCH   1  18
ATOM     18  N   UNL     1       0.656   3.544  20.463  0.00  0.00    +0.000 N 
ATOM     19  H   UNL     1      -0.046   4.134  20.907  0.00  0.00    +0.000 HD
ATOM     20  H   UNL     1       0.237   2.825  19.877  0.00  0.00    +0.000 HD
ENDBRANCH   1  18
BRANCH   8  21
ATOM     21  N   UNL     1       2.457   2.565  18.434  0.00  0.00    +0.000 N 
ATOM     22  O   UNL     1       2.113   2.338  17.263  0.00  0.00    +0.000 OA
ATOM     23  O   UNL     1       2.785   1.702  19.259  0.00  0.00    +0.000 OA
ENDBRANCH   8  21
BRANCH   7  24
ATOM     24  C   UNL     1       5.520   5.363  17.206  0.00  0.00    +0.000 C 
BRANCH  24  25
ATOM     25  C   UNL     1       6.799   4.591  16.848  0.00  0.00    +0.000 C 
BRANCH  25  26
ATOM     26  O   UNL     1       7.583   4.227  17.979  0.00  0.00    +0.000 OA
ATOM     27  H   UNL     1       6.974   3.784  18.603  0.00  0.00    +0.000 HD
ENDBRANCH  25  26
ENDBRANCH  24  25
ENDBRANCH   7  24
TORSDOF 6
ENDMDL
MODEL 8
REMARK VINA RESULT:      -7.2      4.006      6.767
REMARK  Name = 
REMARK  6 active torsions:
REMARK  status: ('A' for Active; 'I' for Inactive)
REMARK    1  A    between atoms: N_1  and  C_2
REMARK    2  A    between atoms: N_5  and  C_6
REMARK    3  A    between atoms: N_15  and  C_16
REMARK    4  A    between atoms: C_16  and  C_17
REMARK    5  A    between atoms: C_17  and  O_18
REMARK    6  A    between atoms: C_19  and  N_20
REMARK                            x       y       z     vdW  Elec       q    Type
REMARK                         _______ _______ _______ _____ _____    ______ ____
ROOT
ATOM      1  C   UNL     1       2.954   3.307  19.062  0.00  0.00    +0.000 A 
ATOM      2  N   UNL     1       3.574   3.881  18.027  0.00  0.00    +0.000 NA
ATOM      3  C   UNL     1       3.635   5.221  17.981  0.00  0.00    +0.000 A 
ATOM      4  N   UNL     1       4.260   5.842  16.907  0.00  0.00    +0.000 N 
ATOM      5  N   UNL     1       3.106   6.013  18.926  0.00  0.00    +0.000 NA
ATOM      6  C   UNL     1       2.505   5.447  19.992  0.00  0.00    +0.000 A 
ATOM      7  N   UNL     1       2.005   6.311  20.961  0.00  0.00    +0.000 N 
ATOM      8  C   UNL     1       2.410   4.069  20.075  0.00  0.00    +0.000 A 
ATOM      9  H   UNL     1       4.129   6.844  16.904  0.00  0.00    +0.000 HD
ATOM     10  H   UNL     1       2.331   6.147  21.909  0.00  0.00    +0.000 HD
ENDROOT
BRANCH   4  11
ATOM     11  C   UNL     1       5.238   5.319  16.052  0.00  0.00    +0.000 A 
ATOM     12  C   UNL     1       6.591   5.570  16.312  0.00  0.00    +0.000 A 
ATOM     13  C   UNL     1       7.584   5.141  15.423  0.00  0.00    +0.000 A 
ATOM     14  C   UNL     1       7.233   4.440  14.271  0.00  0.00    +0.000 A 
ATOM     15  C   UNL     1       5.895   4.178  14.018  0.00  0.00    +0.000 A 
ATOM     16  F   UNL     1       5.550   3.500  12.915  0.00  0.00    +0.000 F 
ATOM     17  C   UNL     1       4.904   4.616  14.888  0.00  0.00    +0.000 A 
ENDBRANCH   4  11
BRANCH   1  18
ATOM     18  N   UNL     1       2.849   1.922  18.958  0.00  0.00    +0.000 N 
ATOM     19  H   UNL     1       2.346   1.576  19.773  0.00  0.00    +0.000 HD
ATOM     20  H   UNL     1       2.430   1.605  18.087  0.00  0.00    +0.000 HD
ENDBRANCH   1  18
BRANCH   8  21
ATOM     21  N   UNL     1       1.753   3.420  21.166  0.00  0.00    +0.000 N 
ATOM     22  O   UNL     1       0.682   2.846  20.911  0.00  0.00    +0.000 OA
ATOM     23  O   UNL     1       2.284   3.471  22.283  0.00  0.00    +0.000 OA
ENDBRANCH   8  21
BRANCH   7  24
ATOM     24  C   UNL     1       1.726   7.713  20.626  0.00  0.00    +0.000 C 
BRANCH  24  25
ATOM     25  C   UNL     1       1.027   8.510  21.739  0.00  0.00    +0.000 C 
BRANCH  25  26
ATOM     26  O   UNL     1       1.924   9.231  22.575  0.00  0.00    +0.000 OA
ATOM     27  H   UNL     1       2.801   8.811  22.464  0.00  0.00    +0.000 HD
ENDBRANCH  25  26
ENDBRANCH  24  25
ENDBRANCH   7  24
TORSDOF 6
ENDMDL
MODEL 9
REMARK VINA RESULT:      -7.1      1.903      3.762
REMARK  Name = 
REMARK  6 active torsions:
REMARK  status: ('A' for Active; 'I' for Inactive)
REMARK    1  A    between atoms: N_1  and  C_2
REMARK    2  A    between atoms: N_5  and  C_6
REMARK    3  A    between atoms: N_15  and  C_16
REMARK    4  A    between atoms: C_16  and  C_17
REMARK    5  A    between atoms: C_17  and  O_18
REMARK    6  A    between atoms: C_19  and  N_20
REMARK                            x       y       z     vdW  Elec       q    Type
REMARK                         _______ _______ _______ _____ _____    ______ ____
ROOT
ATOM      1  C   UNL     1       3.013   4.475  19.958  0.00  0.00    +0.000 A 
ATOM      2  N   UNL     1       2.745   5.759  19.711  0.00  0.00    +0.000 NA
ATOM      3  C   UNL     1       3.193   6.297  18.566  0.00  0.00    +0.000 A 
ATOM      4  N   UNL     1       2.942   7.637  18.292  0.00  0.00    +0.000 N 
ATOM      5  N   UNL     1       3.896   5.606  17.655  0.00  0.00    +0.000 NA
ATOM      6  C   UNL     1       4.146   4.300  17.877  0.00  0.00    +0.000 A 
ATOM      7  N   UNL     1       4.846   3.620  16.886  0.00  0.00    +0.000 N 
ATOM      8  C   UNL     1       3.711   3.708  19.049  0.00  0.00    +0.000 A 
ATOM      9  H   UNL     1       3.437   7.969  17.477  0.00  0.00    +0.000 HD
ATOM     10  H   UNL     1       4.401   2.779  16.529  0.00  0.00    +0.000 HD
ENDROOT
BRANCH   4  11
ATOM     11  C   UNL     1       1.918   8.447  18.798  0.00  0.00    +0.000 A 
ATOM     12  C   UNL     1       1.643   8.438  20.172  0.00  0.00    +0.000 A 
ATOM     13  C   UNL     1       0.566   9.166  20.692  0.00  0.00    +0.000 A 
ATOM     14  C   UNL     1      -0.239   9.923  19.844  0.00  0.00    +0.000 A 
ATOM     15  C   UNL     1       0.039   9.944  18.486  0.00  0.00    +0.000 A 
ATOM     16  F   UNL     1      -0.728  10.674  17.664  0.00  0.00    +0.000 F 
ATOM     17  C   UNL     1       1.097   9.211  17.961  0.00  0.00    +0.000 A 
ENDBRANCH   4  11
BRANCH   1  18
ATOM     18  N   UNL     1       2.602   4.046  21.218  0.00  0.00    +0.000 N 
ATOM     19  H   UNL     1       2.204   4.840  21.715  0.00  0.00    +0.000 HD
ATOM     20  H   UNL     1       1.967   3.251  21.195  0.00  0.00    +0.000 HD
ENDBRANCH   1  18
BRANCH   8  21
ATOM     21  N   UNL     1       3.981   2.336  19.348  0.00  0.00    +0.000 N 
ATOM     22  O   UNL     1       3.394   1.488  18.656  0.00  0.00    +0.000 OA
ATOM     23  O   UNL     1       4.770   2.081  20.267  0.00  0.00    +0.000 OA
ENDBRANCH   8  21
BRANCH   7  24
ATOM     24  C   UNL     1       5.656   4.363  15.913  0.00  0.00    +0.000 C 
BRANCH  24  25
ATOM     25  C   UNL     1       7.093   4.658  16.370  0.00  0.00    +0.000 C 
BRANCH  25  26
ATOM     26  O   UNL     1       7.464   6.026  16.240  0.00  0.00    +0.000 OA
ATOM     27  H   UNL     1       6.743   6.460  15.742  0.00  0.00    +0.000 HD
ENDBRANCH  25  26
ENDBRANCH  24  25
ENDBRANCH   7  24
TORSDOF 6
ENDMDL
