MODEL 1
REMARK VINA RESULT:      -7.3      0.000      0.000
REMARK  Name = 
REMARK  8 active torsions:
REMARK  status: ('A' for Active; 'I' for Inactive)
REMARK    1  A    between atoms: C_1  and  C_2
REMARK    2  A    between atoms: C_2  and  C_3
REMARK    3  A    between atoms: C_2  and  C_16
REMARK    4  A    between atoms: C_3  and  S_4
REMARK    5  A    between atoms: S_4  and  C_5
REMARK    6  A    between atoms: C_8  and  C_9
REMARK    7  A    between atoms: C_16  and  S_17
REMARK    8  A    between atoms: S_17  and  C_18
REMARK                            x       y       z     vdW  Elec       q    Type
REMARK                         _______ _______ _______ _____ _____    ______ ____
ROOT
ATOM      1  C   UNL     1       6.127   4.440  18.095  0.00  0.00    +0.000 A 
ATOM      2  N   UNL     1       7.434   4.688  18.204  0.00  0.00    +0.000 NA
ATOM      3  N   UNL     1       7.797   4.738  16.906  0.00  0.00    +0.000 N 
ATOM      4  C   UNL     1       6.730   4.542  16.074  0.00  0.00    +0.000 A 
ATOM      5  N   UNL     1       5.656   4.355  16.817  0.00  0.00    +0.000 NA
ATOM      6  H   UNL     1       8.764   4.889  16.640  0.00  0.00    +0.000 HD
ENDROOT
BRANCH   4   7
ATOM      7  C   UNL     1       6.848   4.519  14.625  0.00  0.00    +0.000 A 
ATOM      8  C   UNL     1       6.099   3.636  13.853  0.00  0.00    +0.000 A 
ATOM      9  C   UNL     1       6.287   3.626  12.475  0.00  0.00    +0.000 A 
ATOM     10  C   UNL     1       7.213   4.497  11.911  0.00  0.00    +0.000 A 
ATOM     11  C   UNL     1       7.907   5.352  12.753  0.00  0.00    +0.000 A 
ATOM     12  N   UNL     1       7.746   5.390  14.097  0.00  0.00    +0.000 NA
ENDBRANCH   4   7
BRANCH   1  13
ATOM     13  S   UNL     1       5.103   4.130  19.473  0.00  0.00    +0.000 S 
BRANCH  13  14
ATOM     14  C   UNL     1       4.014   5.586  19.434  0.00  0.00    +0.000 C 
BRANCH  14  16
ATOM     15  C   UNL     1       2.300   6.809  18.094  0.00  0.00    +0.000 C 
ATOM     16  C   UNL     1       2.819   5.414  18.465  0.00  0.00    +0.000 C 
BRANCH  16  17
ATOM     17  C   UNL     1       1.703   4.544  19.081  0.00  0.00    +0.000 C 
BRANCH  17  18
ATOM     18  S   UNL     1       1.523   2.929  18.322  0.00  0.00    +0.000 S 
ATOM     19  C   UNL     1       2.495   1.884  19.374  0.00  0.00    +0.000 C 
ATOM     20  O   UNL     1       0.153   2.486  18.468  0.00  0.00    +0.000 OA
ATOM     21  O   UNL     1       2.165   2.961  17.020  0.00  0.00    +0.000 OA
ENDBRANCH  17  18
ENDBRANCH  16  17
ENDBRANCH  14  16
ENDBRANCH  13  14
ENDBRANCH   1  13
TORSDOF 6
ENDMDL
MODEL 2
REMARK VINA RESULT:      -7.0      1.539      1.679
REMARK  Name = 
REMARK  8 active torsions:
REMARK  status: ('A' for Active; 'I' for Inactive)
REMARK    1  A    between atoms: C_1  and  C_2
REMARK    2  A    between atoms: C_2  and  C_3
REMARK    3  A    between atoms: C_2  and  C_16
REMARK    4  A    between atoms: C_3  and  S_4
REMARK    5  A    between atoms: S_4  and  C_5
REMARK    6  A    between atoms: C_8  and  C_9
REMARK    7  A    between atoms: C_16  and  S_17
REMARK    8  A    between atoms: S_17  and  C_18
REMARK                            x       y       z     vdW  Elec       q    Type
REMARK                         _______ _______ _______ _____ _____    ______ ____
ROOT
ATOM      1  C   UNL     1       5.845   5.487  17.860  0.00  0.00    +0.000 A 
ATOM      2  N   UNL     1       6.957   6.224  17.824  0.00  0.00    +0.000 NA
ATOM      3  N   UNL     1       7.350   6.040  16.547  0.00  0.00    +0.000 N 
ATOM      4  C   UNL     1       6.483   5.236  15.862  0.00  0.00    +0.000 A 
ATOM      5  N   UNL     1       5.514   4.878  16.684  0.00  0.00    +0.000 NA
ATOM      6  H   UNL     1       8.205   6.459  16.198  0.00  0.00    +0.000 HD
ENDROOT
BRANCH   4   7
ATOM      7  C   UNL     1       6.684   4.852  14.474  0.00  0.00    +0.000 A 
ATOM      8  C   UNL     1       5.909   3.861  13.879  0.00  0.00    +0.000 A 
ATOM      9  C   UNL     1       6.178   3.503  12.562  0.00  0.00    +0.000 A 
ATOM     10  C   UNL     1       7.206   4.146  11.881  0.00  0.00    +0.000 A 
ATOM     11  C   UNL     1       7.919   5.131  12.547  0.00  0.00    +0.000 A 
ATOM     12  N   UNL     1       7.682   5.506  13.825  0.00  0.00    +0.000 NA
ENDBRANCH   4   7
BRANCH   1  13
ATOM     13  S   UNL     1       4.933   5.218  19.322  0.00  0.00    +0.000 S 
BRANCH  13  14
ATOM     14  C   UNL     1       3.440   6.200  18.988  0.00  0.00    +0.000 C 
BRANCH  14  16
ATOM     15  C   UNL     1       1.733   7.043  20.603  0.00  0.00    +0.000 C 
ATOM     16  C   UNL     1       2.241   5.790  19.879  0.00  0.00    +0.000 C 
BRANCH  16  17
ATOM     17  C   UNL     1       2.625   4.679  20.878  0.00  0.00    +0.000 C 
BRANCH  17  18
ATOM     18  S   UNL     1       1.642   3.185  20.734  0.00  0.00    +0.000 S 
ATOM     19  C   UNL     1       2.593   2.189  19.617  0.00  0.00    +0.000 C 
ATOM     20  O   UNL     1       1.649   2.488  22.002  0.00  0.00    +0.000 OA
ATOM     21  O   UNL     1       0.395   3.521  20.071  0.00  0.00    +0.000 OA
ENDBRANCH  17  18
ENDBRANCH  16  17
ENDBRANCH  14  16
ENDBRANCH  13  14
ENDBRANCH   1  13
TORSDOF 6
ENDMDL
MODEL 3
REMARK VINA RESULT:      -6.9      1.406      1.984
REMARK  Name = 
REMARK  8 active torsions:
REMARK  status: ('A' for Active; 'I' for Inactive)
REMARK    1  A    between atoms: C_1  and  C_2
REMARK    2  A    between atoms: C_2  and  C_3
REMARK    3  A    between atoms: C_2  and  C_16
REMARK    4  A    between atoms: C_3  and  S_4
REMARK    5  A    between atoms: S_4  and  C_5
REMARK    6  A    between atoms: C_8  and  C_9
REMARK    7  A    between atoms: C_16  and  S_17
REMARK    8  A    between atoms: S_17  and  C_18
REMARK                            x       y       z     vdW  Elec       q    Type
REMARK                         _______ _______ _______ _____ _____    ______ ____
ROOT
ATOM      1  C   UNL     1       6.272   4.998  17.987  0.00  0.00    +0.000 A 
ATOM      2  N   UNL     1       7.500   4.491  18.117  0.00  0.00    +0.000 NA
ATOM      3  N   UNL     1       7.848   4.323  16.824  0.00  0.00    +0.000 N 
ATOM      4  C   UNL     1       6.860   4.736  15.976  0.00  0.00    +0.000 A 
ATOM      5  N   UNL     1       5.849   5.175  16.701  0.00  0.00    +0.000 NA
ATOM      6  H   UNL     1       8.744   3.917  16.573  0.00  0.00    +0.000 HD
ENDROOT
BRANCH   4   7
ATOM      7  C   UNL     1       6.965   4.640  14.529  0.00  0.00    +0.000 A 
ATOM      8  C   UNL     1       6.241   3.690  13.813  0.00  0.00    +0.000 A 
ATOM      9  C   UNL     1       6.416   3.614  12.436  0.00  0.00    +0.000 A 
ATOM     10  C   UNL     1       7.304   4.486  11.816  0.00  0.00    +0.000 A 
ATOM     11  C   UNL     1       7.974   5.410  12.604  0.00  0.00    +0.000 A 
ATOM     12  N   UNL     1       7.825   5.514  13.945  0.00  0.00    +0.000 NA
ENDBRANCH   4   7
BRANCH   1  13
ATOM     13  S   UNL     1       5.228   5.312  19.349  0.00  0.00    +0.000 S 
BRANCH  13  14
ATOM     14  C   UNL     1       3.625   4.754  18.697  0.00  0.00    +0.000 C 
BRANCH  14  16
ATOM     15  C   UNL     1       2.373   2.848  17.683  0.00  0.00    +0.000 C 
ATOM     16  C   UNL     1       3.497   3.212  18.662  0.00  0.00    +0.000 C 
BRANCH  16  17
ATOM     17  C   UNL     1       3.234   2.627  20.064  0.00  0.00    +0.000 C 
BRANCH  17  18
ATOM     18  S   UNL     1       1.646   3.078  20.765  0.00  0.00    +0.000 S 
ATOM     19  C   UNL     1       1.774   4.839  20.942  0.00  0.00    +0.000 C 
ATOM     20  O   UNL     1       0.610   2.847  19.781  0.00  0.00    +0.000 OA
ATOM     21  O   UNL     1       1.555   2.509  22.097  0.00  0.00    +0.000 OA
ENDBRANCH  17  18
ENDBRANCH  16  17
ENDBRANCH  14  16
ENDBRANCH  13  14
ENDBRANCH   1  13
TORSDOF 6
ENDMDL
MODEL 4
REMARK VINA RESULT:      -6.9      1.819      2.162
REMARK  Name = 
REMARK  8 active torsions:
REMARK  status: ('A' for Active; 'I' for Inactive)
REMARK    1  A    between atoms: C_1  and  C_2
REMARK    2  A    between atoms: C_2  and  C_3
REMARK    3  A    between atoms: C_2  and  C_16
REMARK    4  A    between atoms: C_3  and  S_4
REMARK    5  A    between atoms: S_4  and  C_5
REMARK    6  A    between atoms: C_8  and  C_9
REMARK    7  A    between atoms: C_16  and  S_17
REMARK    8  A    between atoms: S_17  and  C_18
REMARK                            x       y       z     vdW  Elec       q    Type
REMARK                         _______ _______ _______ _____ _____    ______ ____
ROOT
ATOM      1  C   UNL     1       6.237   5.083  18.001  0.00  0.00    +0.000 A 
ATOM      2  N   UNL     1       7.444   4.530  18.140  0.00  0.00    +0.000 NA
ATOM      3  N   UNL     1       7.787   4.329  16.850  0.00  0.00    +0.000 N 
ATOM      4  C   UNL     1       6.815   4.768  15.995  0.00  0.00    +0.000 A 
ATOM      5  N   UNL     1       5.822   5.256  16.713  0.00  0.00    +0.000 NA
ATOM      6  H   UNL     1       8.665   3.885  16.607  0.00  0.00    +0.000 HD
ENDROOT
BRANCH   4   7
ATOM      7  C   UNL     1       6.917   4.646  14.549  0.00  0.00    +0.000 A 
ATOM      8  C   UNL     1       6.155   3.717  13.847  0.00  0.00    +0.000 A 
ATOM      9  C   UNL     1       6.328   3.613  12.471  0.00  0.00    +0.000 A 
ATOM     10  C   UNL     1       7.252   4.438  11.840  0.00  0.00    +0.000 A 
ATOM     11  C   UNL     1       7.960   5.344  12.615  0.00  0.00    +0.000 A 
ATOM     12  N   UNL     1       7.814   5.474  13.954  0.00  0.00    +0.000 NA
ENDBRANCH   4   7
BRANCH   1  13
ATOM     13  S   UNL     1       5.205   5.457  19.357  0.00  0.00    +0.000 S 
BRANCH  13  14
ATOM     14  C   UNL     1       3.735   4.464  18.962  0.00  0.00    +0.000 C 
BRANCH  14  16
ATOM     15  C   UNL     1       3.261   2.224  17.967  0.00  0.00    +0.000 C 
ATOM     16  C   UNL     1       3.980   2.943  19.116  0.00  0.00    +0.000 C 
BRANCH  16  17
ATOM     17  C   UNL     1       3.506   2.423  20.489  0.00  0.00    +0.000 C 
BRANCH  17  18
ATOM     18  S   UNL     1       2.031   3.229  21.114  0.00  0.00    +0.000 S 
ATOM     19  C   UNL     1       0.867   3.009  19.793  0.00  0.00    +0.000 C 
ATOM     20  O   UNL     1       1.516   2.471  22.235  0.00  0.00    +0.000 OA
ATOM     21  O   UNL     1       2.300   4.650  21.231  0.00  0.00    +0.000 OA
ENDBRANCH  17  18
ENDBRANCH  16  17
ENDBRANCH  14  16
ENDBRANCH  13  14
ENDBRANCH   1  13
TORSDOF 6
ENDMDL
MODEL 5
REMARK VINA RESULT:      -6.9      1.980      2.570
REMARK  Name = 
REMARK  8 active torsions:
REMARK  status: ('A' for Active; 'I' for Inactive)
REMARK    1  A    between atoms: C_1  and  C_2
REMARK    2  A    between atoms: C_2  and  C_3
REMARK    3  A    between atoms: C_2  and  C_16
REMARK    4  A    between atoms: C_3  and  S_4
REMARK    5  A    between atoms: S_4  and  C_5
REMARK    6  A    between atoms: C_8  and  C_9
REMARK    7  A    between atoms: C_16  and  S_17
REMARK    8  A    between atoms: S_17  and  C_18
REMARK                            x       y       z     vdW  Elec       q    Type
REMARK                         _______ _______ _______ _____ _____    ______ ____
ROOT
ATOM      1  C   UNL     1       6.007   4.299  18.047  0.00  0.00    +0.000 A 
ATOM      2  N   UNL     1       7.306   4.563  18.208  0.00  0.00    +0.000 NA
ATOM      3  N   UNL     1       7.712   4.660  16.925  0.00  0.00    +0.000 N 
ATOM      4  C   UNL     1       6.677   4.475  16.052  0.00  0.00    +0.000 A 
ATOM      5  N   UNL     1       5.581   4.249  16.751  0.00  0.00    +0.000 NA
ATOM      6  H   UNL     1       8.685   4.833  16.697  0.00  0.00    +0.000 HD
ENDROOT
BRANCH   4   7
ATOM      7  C   UNL     1       6.844   4.500  14.607  0.00  0.00    +0.000 A 
ATOM      8  C   UNL     1       6.101   3.663  13.780  0.00  0.00    +0.000 A 
ATOM      9  C   UNL     1       6.336   3.697  12.409  0.00  0.00    +0.000 A 
ATOM     10  C   UNL     1       7.301   4.564  11.909  0.00  0.00    +0.000 A 
ATOM     11  C   UNL     1       7.986   5.372  12.804  0.00  0.00    +0.000 A 
ATOM     12  N   UNL     1       7.780   5.366  14.141  0.00  0.00    +0.000 NA
ENDBRANCH   4   7
BRANCH   1  13
ATOM     13  S   UNL     1       4.942   3.931  19.378  0.00  0.00    +0.000 S 
BRANCH  13  14
ATOM     14  C   UNL     1       3.465   3.349  18.494  0.00  0.00    +0.000 C 
BRANCH  14  16
ATOM     15  C   UNL     1       1.000   3.239  18.872  0.00  0.00    +0.000 C 
ATOM     16  C   UNL     1       2.204   4.188  18.816  0.00  0.00    +0.000 C 
BRANCH  16  17
ATOM     17  C   UNL     1       1.987   5.314  17.784  0.00  0.00    +0.000 C 
BRANCH  17  18
ATOM     18  S   UNL     1       2.484   6.941  18.351  0.00  0.00    +0.000 S 
ATOM     19  C   UNL     1       4.021   7.205  17.505  0.00  0.00    +0.000 C 
ATOM     20  O   UNL     1       1.563   7.927  17.829  0.00  0.00    +0.000 OA
ATOM     21  O   UNL     1       2.773   6.863  19.771  0.00  0.00    +0.000 OA
ENDBRANCH  17  18
ENDBRANCH  16  17
ENDBRANCH  14  16
ENDBRANCH  13  14
ENDBRANCH   1  13
TORSDOF 6
ENDMDL
MODEL 6
REMARK VINA RESULT:      -6.7      1.648      2.308
REMARK  Name = 
REMARK  8 active torsions:
REMARK  status: ('A' for Active; 'I' for Inactive)
REMARK    1  A    between atoms: C_1  and  C_2
REMARK    2  A    between atoms: C_2  and  C_3
REMARK    3  A    between atoms: C_2  and  C_16
REMARK    4  A    between atoms: C_3  and  S_4
REMARK    5  A    between atoms: S_4  and  C_5
REMARK    6  A    between atoms: C_8  and  C_9
REMARK    7  A    between atoms: C_16  and  S_17
REMARK    8  A    between atoms: S_17  and  C_18
REMARK                            x       y       z     vdW  Elec       q    Type
REMARK                         _______ _______ _______ _____ _____    ______ ____
ROOT
ATOM      1  C   UNL     1       6.086   5.458  17.858  0.00  0.00    +0.000 A 
ATOM      2  N   UNL     1       7.062   6.358  17.723  0.00  0.00    +0.000 NA
ATOM      3  N   UNL     1       7.382   6.200  16.422  0.00  0.00    +0.000 N 
ATOM      4  C   UNL     1       6.604   5.251  15.821  0.00  0.00    +0.000 A 
ATOM      5  N   UNL     1       5.768   4.770  16.722  0.00  0.00    +0.000 NA
ATOM      6  H   UNL     1       8.132   6.737  16.000  0.00  0.00    +0.000 HD
ENDROOT
BRANCH   4   7
ATOM      7  C   UNL     1       6.759   4.863  14.428  0.00  0.00    +0.000 A 
ATOM      8  C   UNL     1       5.972   3.862  13.865  0.00  0.00    +0.000 A 
ATOM      9  C   UNL     1       6.197   3.502  12.540  0.00  0.00    +0.000 A 
ATOM     10  C   UNL     1       7.194   4.150  11.821  0.00  0.00    +0.000 A 
ATOM     11  C   UNL     1       7.922   5.145  12.457  0.00  0.00    +0.000 A 
ATOM     12  N   UNL     1       7.728   5.522  13.742  0.00  0.00    +0.000 NA
ENDBRANCH   4   7
BRANCH   1  13
ATOM     13  S   UNL     1       5.339   5.092  19.391  0.00  0.00    +0.000 S 
BRANCH  13  14
ATOM     14  C   UNL     1       5.121   3.293  19.255  0.00  0.00    +0.000 C 
BRANCH  14  16
ATOM     15  C   UNL     1       3.436   1.882  18.071  0.00  0.00    +0.000 C 
ATOM     16  C   UNL     1       3.632   2.870  19.229  0.00  0.00    +0.000 C 
BRANCH  16  17
ATOM     17  C   UNL     1       2.693   4.087  19.095  0.00  0.00    +0.000 C 
BRANCH  17  18
ATOM     18  S   UNL     1       1.685   4.403  20.544  0.00  0.00    +0.000 S 
ATOM     19  C   UNL     1       1.674   6.174  20.643  0.00  0.00    +0.000 C 
ATOM     20  O   UNL     1       0.321   4.006  20.268  0.00  0.00    +0.000 OA
ATOM     21  O   UNL     1       2.390   3.902  21.710  0.00  0.00    +0.000 OA
ENDBRANCH  17  18
ENDBRANCH  16  17
ENDBRANCH  14  16
ENDBRANCH  13  14
ENDBRANCH   1  13
TORSDOF 6
ENDMDL
MODEL 7
REMARK VINA RESULT:      -6.7      1.144      1.527
REMARK  Name = 
REMARK  8 active torsions:
REMARK  status: ('A' for Active; 'I' for Inactive)
REMARK    1  A    between atoms: C_1  and  C_2
REMARK    2  A    between atoms: C_2  and  C_3
REMARK    3  A    between atoms: C_2  and  C_16
REMARK    4  A    between atoms: C_3  and  S_4
REMARK    5  A    between atoms: S_4  and  C_5
REMARK    6  A    between atoms: C_8  and  C_9
REMARK    7  A    between atoms: C_16  and  S_17
REMARK    8  A    between atoms: S_17  and  C_18
REMARK                            x       y       z     vdW  Elec       q    Type
REMARK                         _______ _______ _______ _____ _____    ______ ____
ROOT
ATOM      1  C   UNL     1       6.246   5.039  17.930  0.00  0.00    +0.000 A 
ATOM      2  N   UNL     1       7.498   4.603  18.083  0.00  0.00    +0.000 NA
ATOM      3  N   UNL     1       7.857   4.392  16.799  0.00  0.00    +0.000 N 
ATOM      4  C   UNL     1       6.850   4.713  15.933  0.00  0.00    +0.000 A 
ATOM      5  N   UNL     1       5.816   5.132  16.638  0.00  0.00    +0.000 NA
ATOM      6  H   UNL     1       8.772   4.022  16.568  0.00  0.00    +0.000 HD
ENDROOT
BRANCH   4   7
ATOM      7  C   UNL     1       6.962   4.554  14.492  0.00  0.00    +0.000 A 
ATOM      8  C   UNL     1       7.777   5.389  13.734  0.00  0.00    +0.000 A 
ATOM      9  C   UNL     1       7.809   5.220  12.354  0.00  0.00    +0.000 A 
ATOM     10  C   UNL     1       7.032   4.223  11.775  0.00  0.00    +0.000 A 
ATOM     11  C   UNL     1       6.259   3.427  12.607  0.00  0.00    +0.000 A 
ATOM     12  N   UNL     1       6.206   3.563  13.952  0.00  0.00    +0.000 NA
ENDBRANCH   4   7
BRANCH   1  13
ATOM     13  S   UNL     1       5.184   5.362  19.276  0.00  0.00    +0.000 S 
BRANCH  13  14
ATOM     14  C   UNL     1       3.768   6.126  18.430  0.00  0.00    +0.000 C 
BRANCH  14  16
ATOM     15  C   UNL     1       2.079   6.720  20.169  0.00  0.00    +0.000 C 
ATOM     16  C   UNL     1       2.409   5.722  19.052  0.00  0.00    +0.000 C 
BRANCH  16  17
ATOM     17  C   UNL     1       2.429   4.272  19.579  0.00  0.00    +0.000 C 
BRANCH  17  18
ATOM     18  S   UNL     1       2.083   3.029  18.334  0.00  0.00    +0.000 S 
ATOM     19  C   UNL     1       0.614   2.248  18.947  0.00  0.00    +0.000 C 
ATOM     20  O   UNL     1       1.706   3.686  17.101  0.00  0.00    +0.000 OA
ATOM     21  O   UNL     1       3.149   2.044  18.362  0.00  0.00    +0.000 OA
ENDBRANCH  17  18
ENDBRANCH  16  17
ENDBRANCH  14  16
ENDBRANCH  13  14
ENDBRANCH   1  13
TORSDOF 6
ENDMDL
MODEL 8
REMARK VINA RESULT:      -6.7      1.516      1.936
REMARK  Name = 
REMARK  8 active torsions:
REMARK  status: ('A' for Active; 'I' for Inactive)
REMARK    1  A    between atoms: C_1  and  C_2
REMARK    2  A    between atoms: C_2  and  C_3
REMARK    3  A    between atoms: C_2  and  C_16
REMARK    4  A    between atoms: C_3  and  S_4
REMARK    5  A    between atoms: S_4  and  C_5
REMARK    6  A    between atoms: C_8  and  C_9
REMARK    7  A    between atoms: C_16  and  S_17
REMARK    8  A    between atoms: S_17  and  C_18
REMARK                            x       y       z     vdW  Elec       q    Type
REMARK                         _______ _______ _______ _____ _____    ______ ____
ROOT
ATOM      1  C   UNL     1       6.207   4.970  17.938  0.00  0.00    +0.000 A 
ATOM      2  N   UNL     1       7.455   4.519  18.083  0.00  0.00    +0.000 NA
ATOM      3  N   UNL     1       7.810   4.322  16.796  0.00  0.00    +0.000 N 
ATOM      4  C   UNL     1       6.805   4.665  15.936  0.00  0.00    +0.000 A 
ATOM      5  N   UNL     1       5.777   5.085  16.648  0.00  0.00    +0.000 NA
ATOM      6  H   UNL     1       8.721   3.946  16.558  0.00  0.00    +0.000 HD
ENDROOT
BRANCH   4   7
ATOM      7  C   UNL     1       6.914   4.525  14.493  0.00  0.00    +0.000 A 
ATOM      8  C   UNL     1       7.750   5.352  13.747  0.00  0.00    +0.000 A 
ATOM      9  C   UNL     1       7.779   5.203  12.365  0.00  0.00    +0.000 A 
ATOM     10  C   UNL     1       6.976   4.234  11.771  0.00  0.00    +0.000 A 
ATOM     11  C   UNL     1       6.183   3.446  12.590  0.00  0.00    +0.000 A 
ATOM     12  N   UNL     1       6.134   3.562  13.938  0.00  0.00    +0.000 NA
ENDBRANCH   4   7
BRANCH   1  13
ATOM     13  S   UNL     1       5.150   5.284  19.290  0.00  0.00    +0.000 S 
BRANCH  13  14
ATOM     14  C   UNL     1       3.611   5.733  18.434  0.00  0.00    +0.000 C 
BRANCH  14  16
ATOM     15  C   UNL     1       2.129   7.194  19.813  0.00  0.00    +0.000 C 
ATOM     16  C   UNL     1       2.383   5.745  19.377  0.00  0.00    +0.000 C 
BRANCH  16  17
ATOM     17  C   UNL     1       2.585   4.819  20.593  0.00  0.00    +0.000 C 
BRANCH  17  18
ATOM     18  S   UNL     1       2.032   3.132  20.336  0.00  0.00    +0.000 S 
ATOM     19  C   UNL     1       1.002   3.266  18.898  0.00  0.00    +0.000 C 
ATOM     20  O   UNL     1       3.162   2.316  19.947  0.00  0.00    +0.000 OA
ATOM     21  O   UNL     1       1.183   2.754  21.451  0.00  0.00    +0.000 OA
ENDBRANCH  17  18
ENDBRANCH  16  17
ENDBRANCH  14  16
ENDBRANCH  13  14
ENDBRANCH   1  13
TORSDOF 6
ENDMDL
MODEL 9
REMARK VINA RESULT:      -6.6      1.322      1.468
REMARK  Name = 
REMARK  8 active torsions:
REMARK  status: ('A' for Active; 'I' for Inactive)
REMARK    1  A    between atoms: C_1  and  C_2
REMARK    2  A    between atoms: C_2  and  C_3
REMARK    3  A    between atoms: C_2  and  C_16
REMARK    4  A    between atoms: C_3  and  S_4
REMARK    5  A    between atoms: S_4  and  C_5
REMARK    6  A    between atoms: C_8  and  C_9
REMARK    7  A    between atoms: C_16  and  S_17
REMARK    8  A    between atoms: S_17  and  C_18
REMARK                            x       y       z     vdW  Elec       q    Type
REMARK                         _______ _______ _______ _____ _____    ______ ____
ROOT
ATOM      1  C   UNL     1       4.925   5.888  17.360  0.00  0.00    +0.000 A 
ATOM      2  N   UNL     1       5.733   4.971  17.896  0.00  0.00    +0.000 NA
ATOM      3  N   UNL     1       6.348   4.493  16.794  0.00  0.00    +0.000 N 
ATOM      4  C   UNL     1       5.921   5.126  15.661  0.00  0.00    +0.000 A 
ATOM      5  N   UNL     1       5.016   6.023  16.005  0.00  0.00    +0.000 NA
ATOM      6  H   UNL     1       7.025   3.741  16.860  0.00  0.00    +0.000 HD
ENDROOT
BRANCH   4   7
ATOM      7  C   UNL     1       6.402   4.785  14.332  0.00  0.00    +0.000 A 
ATOM      8  C   UNL     1       5.775   3.807  13.565  0.00  0.00    +0.000 A 
ATOM      9  C   UNL     1       6.307   3.490  12.320  0.00  0.00    +0.000 A 
ATOM     10  C   UNL     1       7.444   4.158  11.879  0.00  0.00    +0.000 A 
ATOM     11  C   UNL     1       7.997   5.127  12.702  0.00  0.00    +0.000 A 
ATOM     12  N   UNL     1       7.503   5.463  13.916  0.00  0.00    +0.000 NA
ENDBRANCH   4   7
BRANCH   1  13
ATOM     13  S   UNL     1       3.751   6.778  18.294  0.00  0.00    +0.000 S 
BRANCH  13  14
ATOM     14  C   UNL     1       3.390   5.593  19.624  0.00  0.00    +0.000 C 
BRANCH  14  16
ATOM     15  C   UNL     1       1.402   6.136  21.033  0.00  0.00    +0.000 C 
ATOM     16  C   UNL     1       1.874   5.341  19.808  0.00  0.00    +0.000 C 
BRANCH  16  17
ATOM     17  C   UNL     1       1.556   3.839  19.955  0.00  0.00    +0.000 C 
BRANCH  17  18
ATOM     18  S   UNL     1       1.367   2.969  18.398  0.00  0.00    +0.000 S 
ATOM     19  C   UNL     1       2.863   2.023  18.286  0.00  0.00    +0.000 C 
ATOM     20  O   UNL     1       0.291   2.009  18.519  0.00  0.00    +0.000 OA
ATOM     21  O   UNL     1       1.383   3.945  17.323  0.00  0.00    +0.000 OA
ENDBRANCH  17  18
ENDBRANCH  16  17
ENDBRANCH  14  16
ENDBRANCH  13  14
ENDBRANCH   1  13
TORSDOF 6
ENDMDL
