MODEL 1
REMARK VINA RESULT:      -6.9      0.000      0.000
REMARK  Name = 
REMARK  2 active torsions:
REMARK  status: ('A' for Active; 'I' for Inactive)
REMARK    1  A    between atoms: C_2  and  C_3
REMARK    2  A    between atoms: C_8  and  N_9
REMARK                            x       y       z     vdW  Elec       q    Type
REMARK                         _______ _______ _______ _____ _____    ______ ____
ROOT
ATOM      1  O   UNL     1      -4.041  11.539  24.318  0.00  0.00    +0.000 OA
ATOM      2  C   UNL     1      -3.455  12.480  23.797  0.00  0.00    +0.000 C 
ATOM      3  N   UNL     1      -2.160  12.399  23.298  0.00  0.00    +0.000 N 
ATOM      4  C   UNL     1      -1.490  11.124  23.139  0.00  0.00    +0.000 C 
ATOM      5  C   UNL     1      -0.248  11.410  22.282  0.00  0.00    +0.000 C 
ATOM      6  C   UNL     1      -0.256  10.721  20.923  0.00  0.00    +0.000 C 
ATOM      7  N   UNL     1      -0.794  11.695  19.976  0.00  0.00    +0.000 N 
ATOM      8  C   UNL     1      -1.757  11.345  19.050  0.00  0.00    +0.000 A 
ATOM      9  C   UNL     1      -1.760  10.077  18.470  0.00  0.00    +0.000 A 
ATOM     10  C   UNL     1      -2.743   9.724  17.542  0.00  0.00    +0.000 A 
ATOM     11  C   UNL     1      -3.701  10.653  17.208  0.00  0.00    +0.000 A 
ATOM     12  F   UNL     1      -4.668  10.350  16.330  0.00  0.00    +0.000 F 
ATOM     13  C   UNL     1      -3.637  11.901  17.790  0.00  0.00    +0.000 A 
ATOM     14  N   UNL     1      -2.682  12.265  18.677  0.00  0.00    +0.000 NA
ATOM     15  C   UNL     1      -0.835  13.038  20.539  0.00  0.00    +0.000 C 
ATOM     16  C   UNL     1      -0.287  12.907  21.961  0.00  0.00    +0.000 C 
ATOM     17  C   UNL     1      -1.260  13.489  22.960  0.00  0.00    +0.000 C 
ENDROOT
BRANCH   2  18
ATOM     18  C   UNL     1      -4.127  13.801  23.697  0.00  0.00    +0.000 A 
ATOM     19  C   UNL     1      -3.632  14.820  24.530  0.00  0.00    +0.000 A 
ATOM     20  C   UNL     1      -4.061  16.136  24.389  0.00  0.00    +0.000 A 
ATOM     21  C   UNL     1      -5.081  16.432  23.496  0.00  0.00    +0.000 A 
ATOM     22  C   UNL     1      -5.689  15.405  22.770  0.00  0.00    +0.000 A 
ATOM     23  C   UNL     1      -5.208  14.081  22.844  0.00  0.00    +0.000 A 
BRANCH  23  24
ATOM     24  N   UNL     1      -5.847  13.105  22.038  0.00  0.00    +0.000 N 
ATOM     25  N   UNL     1      -5.393  12.843  20.770  0.00  0.00    +0.000 NA
ATOM     26  C   UNL     1      -6.292  11.962  20.325  0.00  0.00    +0.000 A 
ATOM     27  C   UNL     1      -7.169  11.625  21.356  0.00  0.00    +0.000 A 
ATOM     28  N   UNL     1      -6.868  12.317  22.455  0.00  0.00    +0.000 NA
ENDBRANCH  23  24
ENDBRANCH   2  18
TORSDOF 2
ENDMDL
MODEL 2
REMARK VINA RESULT:      -6.7      1.981      2.971
REMARK  Name = 
REMARK  2 active torsions:
REMARK  status: ('A' for Active; 'I' for Inactive)
REMARK    1  A    between atoms: C_2  and  C_3
REMARK    2  A    between atoms: C_8  and  N_9
REMARK                            x       y       z     vdW  Elec       q    Type
REMARK                         _______ _______ _______ _____ _____    ______ ____
ROOT
ATOM      1  O   UNL     1      -6.457  12.058  22.829  0.00  0.00    +0.000 OA
ATOM      2  C   UNL     1      -5.920  13.078  22.414  0.00  0.00    +0.000 C 
ATOM      3  N   UNL     1      -4.650  13.491  22.800  0.00  0.00    +0.000 N 
ATOM      4  C   UNL     1      -3.764  12.616  23.539  0.00  0.00    +0.000 C 
ATOM      5  C   UNL     1      -2.382  13.285  23.491  0.00  0.00    +0.000 C 
ATOM      6  C   UNL     1      -1.325  12.481  22.744  0.00  0.00    +0.000 C 
ATOM      7  N   UNL     1      -1.315  12.993  21.377  0.00  0.00    +0.000 N 
ATOM      8  C   UNL     1      -1.304  12.144  20.288  0.00  0.00    +0.000 A 
ATOM      9  C   UNL     1      -0.620  10.930  20.338  0.00  0.00    +0.000 A 
ATOM     10  C   UNL     1      -0.622  10.068  19.238  0.00  0.00    +0.000 A 
ATOM     11  C   UNL     1      -1.305  10.444  18.105  0.00  0.00    +0.000 A 
ATOM     12  F   UNL     1      -1.340   9.642  17.032  0.00  0.00    +0.000 F 
ATOM     13  C   UNL     1      -1.943  11.667  18.098  0.00  0.00    +0.000 A 
ATOM     14  N   UNL     1      -1.936  12.520  19.148  0.00  0.00    +0.000 NA
ATOM     15  C   UNL     1      -2.038  14.253  21.261  0.00  0.00    +0.000 C 
ATOM     16  C   UNL     1      -2.556  14.563  22.666  0.00  0.00    +0.000 C 
ATOM     17  C   UNL     1      -4.047  14.804  22.640  0.00  0.00    +0.000 C 
ENDROOT
BRANCH   2  18
ATOM     18  C   UNL     1      -6.649  13.958  21.466  0.00  0.00    +0.000 A 
ATOM     19  C   UNL     1      -7.087  15.196  21.970  0.00  0.00    +0.000 A 
ATOM     20  C   UNL     1      -7.613  16.170  21.127  0.00  0.00    +0.000 A 
ATOM     21  C   UNL     1      -7.824  15.876  19.787  0.00  0.00    +0.000 A 
ATOM     22  C   UNL     1      -7.535  14.598  19.303  0.00  0.00    +0.000 A 
ATOM     23  C   UNL     1      -6.925  13.629  20.129  0.00  0.00    +0.000 A 
BRANCH  23  24
ATOM     24  N   UNL     1      -6.618  12.373  19.548  0.00  0.00    +0.000 N 
ATOM     25  N   UNL     1      -5.420  12.175  18.909  0.00  0.00    +0.000 NA
ATOM     26  C   UNL     1      -5.555  10.934  18.435  0.00  0.00    +0.000 A 
ATOM     27  C   UNL     1      -6.749  10.382  18.899  0.00  0.00    +0.000 A 
ATOM     28  N   UNL     1      -7.409  11.275  19.637  0.00  0.00    +0.000 NA
ENDBRANCH  23  24
ENDBRANCH   2  18
TORSDOF 2
ENDMDL
MODEL 3
REMARK VINA RESULT:      -6.5      1.319      1.886
REMARK  Name = 
REMARK  2 active torsions:
REMARK  status: ('A' for Active; 'I' for Inactive)
REMARK    1  A    between atoms: C_2  and  C_3
REMARK    2  A    between atoms: C_8  and  N_9
REMARK                            x       y       z     vdW  Elec       q    Type
REMARK                         _______ _______ _______ _____ _____    ______ ____
ROOT
ATOM      1  O   UNL     1      -5.439  12.011  23.908  0.00  0.00    +0.000 OA
ATOM      2  C   UNL     1      -5.016  13.003  23.327  0.00  0.00    +0.000 C 
ATOM      3  N   UNL     1      -3.664  13.281  23.162  0.00  0.00    +0.000 N 
ATOM      4  C   UNL     1      -2.649  12.290  23.454  0.00  0.00    +0.000 C 
ATOM      5  C   UNL     1      -1.346  12.839  22.852  0.00  0.00    +0.000 C 
ATOM      6  C   UNL     1      -0.775  11.991  21.722  0.00  0.00    +0.000 C 
ATOM      7  N   UNL     1      -1.273  12.579  20.481  0.00  0.00    +0.000 N 
ATOM      8  C   UNL     1      -1.796  11.797  19.470  0.00  0.00    +0.000 A 
ATOM      9  C   UNL     1      -1.280  10.528  19.212  0.00  0.00    +0.000 A 
ATOM     10  C   UNL     1      -1.820   9.735  18.196  0.00  0.00    +0.000 A 
ATOM     11  C   UNL     1      -2.864  10.234  17.453  0.00  0.00    +0.000 A 
ATOM     12  F   UNL     1      -3.417   9.501  16.476  0.00  0.00    +0.000 F 
ATOM     13  C   UNL     1      -3.319  11.506  17.730  0.00  0.00    +0.000 A 
ATOM     14  N   UNL     1      -2.796  12.293  18.699  0.00  0.00    +0.000 NA
ATOM     15  C   UNL     1      -1.846  13.902  20.695  0.00  0.00    +0.000 C 
ATOM     16  C   UNL     1      -1.709  14.173  22.194  0.00  0.00    +0.000 C 
ATOM     17  C   UNL     1      -3.048  14.544  22.790  0.00  0.00    +0.000 C 
ENDROOT
BRANCH   2  18
ATOM     18  C   UNL     1      -5.974  13.997  22.779  0.00  0.00    +0.000 A 
ATOM     19  C   UNL     1      -6.052  15.229  23.452  0.00  0.00    +0.000 A 
ATOM     20  C   UNL     1      -6.774  16.295  22.922  0.00  0.00    +0.000 A 
ATOM     21  C   UNL     1      -7.529  16.105  21.773  0.00  0.00    +0.000 A 
ATOM     22  C   UNL     1      -7.584  14.843  21.177  0.00  0.00    +0.000 A 
ATOM     23  C   UNL     1      -6.792  13.778  21.658  0.00  0.00    +0.000 A 
BRANCH  23  24
ATOM     24  N   UNL     1      -6.866  12.542  20.967  0.00  0.00    +0.000 N 
ATOM     25  N   UNL     1      -7.709  11.551  21.402  0.00  0.00    +0.000 NA
ATOM     26  C   UNL     1      -7.422  10.551  20.566  0.00  0.00    +0.000 A 
ATOM     27  C   UNL     1      -6.529  10.995  19.591  0.00  0.00    +0.000 A 
ATOM     28  N   UNL     1      -6.204  12.267  19.817  0.00  0.00    +0.000 NA
ENDBRANCH  23  24
ENDBRANCH   2  18
TORSDOF 2
ENDMDL
MODEL 4
REMARK VINA RESULT:      -6.4      1.291      1.590
REMARK  Name = 
REMARK  2 active torsions:
REMARK  status: ('A' for Active; 'I' for Inactive)
REMARK    1  A    between atoms: C_2  and  C_3
REMARK    2  A    between atoms: C_8  and  N_9
REMARK                            x       y       z     vdW  Elec       q    Type
REMARK                         _______ _______ _______ _____ _____    ______ ____
ROOT
ATOM      1  O   UNL     1      -4.648  12.107  23.436  0.00  0.00    +0.000 OA
ATOM      2  C   UNL     1      -4.201  13.075  22.832  0.00  0.00    +0.000 C 
ATOM      3  N   UNL     1      -2.844  13.292  22.624  0.00  0.00    +0.000 N 
ATOM      4  C   UNL     1      -1.863  12.262  22.898  0.00  0.00    +0.000 C 
ATOM      5  C   UNL     1      -0.557  12.748  22.252  0.00  0.00    +0.000 C 
ATOM      6  C   UNL     1      -0.057  11.865  21.114  0.00  0.00    +0.000 C 
ATOM      7  N   UNL     1      -0.565  12.462  19.882  0.00  0.00    +0.000 N 
ATOM      8  C   UNL     1      -1.151  11.693  18.895  0.00  0.00    +0.000 A 
ATOM      9  C   UNL     1      -0.697  10.400  18.637  0.00  0.00    +0.000 A 
ATOM     10  C   UNL     1      -1.301   9.622  17.646  0.00  0.00    +0.000 A 
ATOM     11  C   UNL     1      -2.344  10.158  16.929  0.00  0.00    +0.000 A 
ATOM     12  F   UNL     1      -2.957   9.440  15.976  0.00  0.00    +0.000 F 
ATOM     13  C   UNL     1      -2.736  11.450  17.205  0.00  0.00    +0.000 A 
ATOM     14  N   UNL     1      -2.151  12.224  18.149  0.00  0.00    +0.000 NA
ATOM     15  C   UNL     1      -1.074  13.810  20.099  0.00  0.00    +0.000 C 
ATOM     16  C   UNL     1      -0.882  14.090  21.590  0.00  0.00    +0.000 C 
ATOM     17  C   UNL     1      -2.185  14.524  22.220  0.00  0.00    +0.000 C 
ENDROOT
BRANCH   2  18
ATOM     18  C   UNL     1      -5.131  14.103  22.301  0.00  0.00    +0.000 A 
ATOM     19  C   UNL     1      -5.131  15.347  22.958  0.00  0.00    +0.000 A 
ATOM     20  C   UNL     1      -5.822  16.436  22.436  0.00  0.00    +0.000 A 
ATOM     21  C   UNL     1      -6.623  16.266  21.316  0.00  0.00    +0.000 A 
ATOM     22  C   UNL     1      -6.754  15.000  20.740  0.00  0.00    +0.000 A 
ATOM     23  C   UNL     1      -5.995  13.907  21.211  0.00  0.00    +0.000 A 
BRANCH  23  24
ATOM     24  N   UNL     1      -6.148  12.667  20.541  0.00  0.00    +0.000 N 
ATOM     25  N   UNL     1      -5.482  12.423  19.365  0.00  0.00    +0.000 NA
ATOM     26  C   UNL     1      -5.952  11.223  19.019  0.00  0.00    +0.000 A 
ATOM     27  C   UNL     1      -6.770  10.728  20.035  0.00  0.00    +0.000 A 
ATOM     28  N   UNL     1      -6.866  11.621  21.019  0.00  0.00    +0.000 NA
ENDBRANCH  23  24
ENDBRANCH   2  18
TORSDOF 2
ENDMDL
MODEL 5
REMARK VINA RESULT:      -6.4      2.178      4.882
REMARK  Name = 
REMARK  2 active torsions:
REMARK  status: ('A' for Active; 'I' for Inactive)
REMARK    1  A    between atoms: C_2  and  C_3
REMARK    2  A    between atoms: C_8  and  N_9
REMARK                            x       y       z     vdW  Elec       q    Type
REMARK                         _______ _______ _______ _____ _____    ______ ____
ROOT
ATOM      1  O   UNL     1      -4.430  15.543  20.828  0.00  0.00    +0.000 OA
ATOM      2  C   UNL     1      -5.092  14.543  21.081  0.00  0.00    +0.000 C 
ATOM      3  N   UNL     1      -6.092  14.052  20.249  0.00  0.00    +0.000 N 
ATOM      4  C   UNL     1      -6.264  14.549  18.899  0.00  0.00    +0.000 C 
ATOM      5  C   UNL     1      -7.220  13.563  18.211  0.00  0.00    +0.000 C 
ATOM      6  C   UNL     1      -6.600  12.802  17.045  0.00  0.00    +0.000 C 
ATOM      7  N   UNL     1      -6.129  11.533  17.594  0.00  0.00    +0.000 N 
ATOM      8  C   UNL     1      -4.876  11.037  17.291  0.00  0.00    +0.000 A 
ATOM      9  C   UNL     1      -4.315  11.240  16.030  0.00  0.00    +0.000 A 
ATOM     10  C   UNL     1      -3.042  10.746  15.732  0.00  0.00    +0.000 A 
ATOM     11  C   UNL     1      -2.358  10.053  16.703  0.00  0.00    +0.000 A 
ATOM     12  F   UNL     1      -1.130   9.571  16.460  0.00  0.00    +0.000 F 
ATOM     13  C   UNL     1      -2.969   9.856  17.923  0.00  0.00    +0.000 A 
ATOM     14  N   UNL     1      -4.207  10.312  18.222  0.00  0.00    +0.000 NA
ATOM     15  C   UNL     1      -6.667  11.279  18.923  0.00  0.00    +0.000 C 
ATOM     16  C   UNL     1      -7.545  12.488  19.251  0.00  0.00    +0.000 C 
ATOM     17  C   UNL     1      -7.138  13.096  20.573  0.00  0.00    +0.000 C 
ENDROOT
BRANCH   2  18
ATOM     18  C   UNL     1      -4.856  13.806  22.348  0.00  0.00    +0.000 A 
ATOM     19  C   UNL     1      -5.893  13.845  23.297  0.00  0.00    +0.000 A 
ATOM     20  C   UNL     1      -5.856  13.044  24.435  0.00  0.00    +0.000 A 
ATOM     21  C   UNL     1      -4.726  12.284  24.702  0.00  0.00    +0.000 A 
ATOM     22  C   UNL     1      -3.624  12.352  23.846  0.00  0.00    +0.000 A 
ATOM     23  C   UNL     1      -3.682  13.096  22.648  0.00  0.00    +0.000 A 
BRANCH  23  24
ATOM     24  N   UNL     1      -2.539  13.074  21.808  0.00  0.00    +0.000 N 
ATOM     25  N   UNL     1      -2.487  12.232  20.725  0.00  0.00    +0.000 NA
ATOM     26  C   UNL     1      -1.251  12.440  20.267  0.00  0.00    +0.000 A 
ATOM     27  C   UNL     1      -0.649  13.471  20.988  0.00  0.00    +0.000 A 
ATOM     28  N   UNL     1      -1.475  13.904  21.940  0.00  0.00    +0.000 NA
ENDBRANCH  23  24
ENDBRANCH   2  18
TORSDOF 2
ENDMDL
MODEL 6
REMARK VINA RESULT:      -6.4      1.212      1.328
REMARK  Name = 
REMARK  2 active torsions:
REMARK  status: ('A' for Active; 'I' for Inactive)
REMARK    1  A    between atoms: C_2  and  C_3
REMARK    2  A    between atoms: C_8  and  N_9
REMARK                            x       y       z     vdW  Elec       q    Type
REMARK                         _______ _______ _______ _____ _____    ______ ____
ROOT
ATOM      1  O   UNL     1      -2.899  11.322  23.589  0.00  0.00    +0.000 OA
ATOM      2  C   UNL     1      -2.276  12.211  23.021  0.00  0.00    +0.000 C 
ATOM      3  N   UNL     1      -1.048  12.014  22.399  0.00  0.00    +0.000 N 
ATOM      4  C   UNL     1      -0.524  10.685  22.165  0.00  0.00    +0.000 C 
ATOM      5  C   UNL     1       0.652  10.865  21.194  0.00  0.00    +0.000 C 
ATOM      6  C   UNL     1       0.447  10.205  19.835  0.00  0.00    +0.000 C 
ATOM      7  N   UNL     1      -0.081  11.243  18.954  0.00  0.00    +0.000 N 
ATOM      8  C   UNL     1      -1.157  11.005  18.122  0.00  0.00    +0.000 A 
ATOM      9  C   UNL     1      -1.339   9.755  17.533  0.00  0.00    +0.000 A 
ATOM     10  C   UNL     1      -2.436   9.515  16.702  0.00  0.00    +0.000 A 
ATOM     11  C   UNL     1      -3.326  10.537  16.471  0.00  0.00    +0.000 A 
ATOM     12  F   UNL     1      -4.397  10.345  15.687  0.00  0.00    +0.000 F 
ATOM     13  C   UNL     1      -3.086  11.763  17.055  0.00  0.00    +0.000 A 
ATOM     14  N   UNL     1      -2.019  12.016  17.849  0.00  0.00    +0.000 NA
ATOM     15  C   UNL     1       0.064  12.574  19.531  0.00  0.00    +0.000 C 
ATOM     16  C   UNL     1       0.729  12.364  20.892  0.00  0.00    +0.000 C 
ATOM     17  C   UNL     1      -0.082  13.019  21.985  0.00  0.00    +0.000 C 
ENDROOT
BRANCH   2  18
ATOM     18  C   UNL     1      -2.823  13.591  22.999  0.00  0.00    +0.000 A 
ATOM     19  C   UNL     1      -2.166  14.538  23.806  0.00  0.00    +0.000 A 
ATOM     20  C   UNL     1      -2.475  15.892  23.723  0.00  0.00    +0.000 A 
ATOM     21  C   UNL     1      -3.529  16.306  22.921  0.00  0.00    +0.000 A 
ATOM     22  C   UNL     1      -4.290  15.361  22.229  0.00  0.00    +0.000 A 
ATOM     23  C   UNL     1      -3.935  13.994  22.242  0.00  0.00    +0.000 A 
BRANCH  23  24
ATOM     24  N   UNL     1      -4.728  13.105  21.473  0.00  0.00    +0.000 N 
ATOM     25  N   UNL     1      -4.382  12.803  20.180  0.00  0.00    +0.000 NA
ATOM     26  C   UNL     1      -5.400  12.034  19.789  0.00  0.00    +0.000 A 
ATOM     27  C   UNL     1      -6.248  11.791  20.869  0.00  0.00    +0.000 A 
ATOM     28  N   UNL     1      -5.805  12.434  21.949  0.00  0.00    +0.000 NA
ENDBRANCH  23  24
ENDBRANCH   2  18
TORSDOF 2
ENDMDL
MODEL 7
REMARK VINA RESULT:      -6.3      3.368      4.567
REMARK  Name = 
REMARK  2 active torsions:
REMARK  status: ('A' for Active; 'I' for Inactive)
REMARK    1  A    between atoms: C_2  and  C_3
REMARK    2  A    between atoms: C_8  and  N_9
REMARK                            x       y       z     vdW  Elec       q    Type
REMARK                         _______ _______ _______ _____ _____    ______ ____
ROOT
ATOM      1  O   UNL     1      -3.172  15.075  21.031  0.00  0.00    +0.000 OA
ATOM      2  C   UNL     1      -2.606  14.261  21.750  0.00  0.00    +0.000 C 
ATOM      3  N   UNL     1      -2.185  13.010  21.315  0.00  0.00    +0.000 N 
ATOM      4  C   UNL     1      -2.167  12.667  19.908  0.00  0.00    +0.000 C 
ATOM      5  C   UNL     1      -1.356  11.366  19.806  0.00  0.00    +0.000 C 
ATOM      6  C   UNL     1      -0.060  11.500  19.015  0.00  0.00    +0.000 C 
ATOM      7  N   UNL     1       0.991  11.754  19.997  0.00  0.00    +0.000 N 
ATOM      8  C   UNL     1       1.935  12.744  19.804  0.00  0.00    +0.000 A 
ATOM      9  C   UNL     1       2.407  13.038  18.526  0.00  0.00    +0.000 A 
ATOM     10  C   UNL     1       3.353  14.049  18.334  0.00  0.00    +0.000 A 
ATOM     11  C   UNL     1       3.812  14.740  19.430  0.00  0.00    +0.000 A 
ATOM     12  F   UNL     1       4.713  15.724  19.288  0.00  0.00    +0.000 F 
ATOM     13  C   UNL     1       3.334  14.392  20.675  0.00  0.00    +0.000 A 
ATOM     14  N   UNL     1       2.431  13.405  20.880  0.00  0.00    +0.000 NA
ATOM     15  C   UNL     1       0.544  11.484  21.358  0.00  0.00    +0.000 C 
ATOM     16  C   UNL     1      -0.911  11.029  21.232  0.00  0.00    +0.000 C 
ATOM     17  C   UNL     1      -1.805  11.861  22.121  0.00  0.00    +0.000 C 
ENDROOT
BRANCH   2  18
ATOM     18  C   UNL     1      -2.362  14.588  23.178  0.00  0.00    +0.000 A 
ATOM     19  C   UNL     1      -1.068  15.031  23.507  0.00  0.00    +0.000 A 
ATOM     20  C   UNL     1      -0.781  15.538  24.771  0.00  0.00    +0.000 A 
ATOM     21  C   UNL     1      -1.751  15.495  25.763  0.00  0.00    +0.000 A 
ATOM     22  C   UNL     1      -2.994  14.918  25.495  0.00  0.00    +0.000 A 
ATOM     23  C   UNL     1      -3.324  14.476  24.195  0.00  0.00    +0.000 A 
BRANCH  23  24
ATOM     24  N   UNL     1      -4.624  13.948  23.993  0.00  0.00    +0.000 N 
ATOM     25  N   UNL     1      -5.674  14.778  23.689  0.00  0.00    +0.000 NA
ATOM     26  C   UNL     1      -6.706  13.932  23.673  0.00  0.00    +0.000 A 
ATOM     27  C   UNL     1      -6.245  12.625  23.835  0.00  0.00    +0.000 A 
ATOM     28  N   UNL     1      -4.923  12.625  23.999  0.00  0.00    +0.000 NA
ENDBRANCH  23  24
ENDBRANCH   2  18
TORSDOF 2
ENDMDL
MODEL 8
REMARK VINA RESULT:      -6.3      4.663      7.518
REMARK  Name = 
REMARK  2 active torsions:
REMARK  status: ('A' for Active; 'I' for Inactive)
REMARK    1  A    between atoms: C_2  and  C_3
REMARK    2  A    between atoms: C_8  and  N_9
REMARK                            x       y       z     vdW  Elec       q    Type
REMARK                         _______ _______ _______ _____ _____    ______ ____
ROOT
ATOM      1  O   UNL     1       2.342  15.245  20.985  0.00  0.00    +0.000 OA
ATOM      2  C   UNL     1       1.632  14.936  20.036  0.00  0.00    +0.000 C 
ATOM      3  N   UNL     1       1.131  13.655  19.835  0.00  0.00    +0.000 N 
ATOM      4  C   UNL     1       1.213  12.641  20.866  0.00  0.00    +0.000 C 
ATOM      5  C   UNL     1       0.289  11.504  20.406  0.00  0.00    +0.000 C 
ATOM      6  C   UNL     1      -0.907  11.263  21.320  0.00  0.00    +0.000 C 
ATOM      7  N   UNL     1      -2.015  12.023  20.749  0.00  0.00    +0.000 N 
ATOM      8  C   UNL     1      -2.833  12.810  21.536  0.00  0.00    +0.000 A 
ATOM      9  C   UNL     1      -3.151  12.426  22.838  0.00  0.00    +0.000 A 
ATOM     10  C   UNL     1      -3.969  13.232  23.635  0.00  0.00    +0.000 A 
ATOM     11  C   UNL     1      -4.458  14.404  23.108  0.00  0.00    +0.000 A 
ATOM     12  F   UNL     1      -5.238  15.209  23.843  0.00  0.00    +0.000 F 
ATOM     13  C   UNL     1      -4.136  14.723  21.806  0.00  0.00    +0.000 A 
ATOM     14  N   UNL     1      -3.360  13.947  21.015  0.00  0.00    +0.000 NA
ATOM     15  C   UNL     1      -1.728  12.470  19.392  0.00  0.00    +0.000 C 
ATOM     16  C   UNL     1      -0.321  11.960  19.078  0.00  0.00    +0.000 C 
ATOM     17  C   UNL     1       0.564  13.095  18.619  0.00  0.00    +0.000 C 
ENDROOT
BRANCH   2  18
ATOM     18  C   UNL     1       1.288  15.956  19.013  0.00  0.00    +0.000 A 
ATOM     19  C   UNL     1      -0.081  16.219  18.827  0.00  0.00    +0.000 A 
ATOM     20  C   UNL     1      -0.509  17.279  18.033  0.00  0.00    +0.000 A 
ATOM     21  C   UNL     1       0.424  18.016  17.315  0.00  0.00    +0.000 A 
ATOM     22  C   UNL     1       1.776  17.671  17.371  0.00  0.00    +0.000 A 
ATOM     23  C   UNL     1       2.229  16.651  18.236  0.00  0.00    +0.000 A 
BRANCH  23  24
ATOM     24  N   UNL     1       3.623  16.394  18.272  0.00  0.00    +0.000 N 
ATOM     25  N   UNL     1       4.147  15.303  17.625  0.00  0.00    +0.000 NA
ATOM     26  C   UNL     1       5.435  15.364  17.970  0.00  0.00    +0.000 A 
ATOM     27  C   UNL     1       5.674  16.534  18.691  0.00  0.00    +0.000 A 
ATOM     28  N   UNL     1       4.537  17.211  18.851  0.00  0.00    +0.000 NA
ENDBRANCH  23  24
ENDBRANCH   2  18
TORSDOF 2
ENDMDL
MODEL 9
REMARK VINA RESULT:      -6.1      3.273      7.089
REMARK  Name = 
REMARK  2 active torsions:
REMARK  status: ('A' for Active; 'I' for Inactive)
REMARK    1  A    between atoms: C_2  and  C_3
REMARK    2  A    between atoms: C_8  and  N_9
REMARK                            x       y       z     vdW  Elec       q    Type
REMARK                         _______ _______ _______ _____ _____    ______ ____
ROOT
ATOM      1  O   UNL     1      -2.499  13.169  20.139  0.00  0.00    +0.000 OA
ATOM      2  C   UNL     1      -3.392  12.468  19.678  0.00  0.00    +0.000 C 
ATOM      3  N   UNL     1      -4.681  12.423  20.197  0.00  0.00    +0.000 N 
ATOM      4  C   UNL     1      -5.135  13.388  21.176  0.00  0.00    +0.000 C 
ATOM      5  C   UNL     1      -6.660  13.219  21.253  0.00  0.00    +0.000 C 
ATOM      6  C   UNL     1      -7.447  14.442  20.795  0.00  0.00    +0.000 C 
ATOM      7  N   UNL     1      -7.769  14.215  19.389  0.00  0.00    +0.000 N 
ATOM      8  C   UNL     1      -7.597  15.204  18.440  0.00  0.00    +0.000 A 
ATOM      9  C   UNL     1      -7.816  16.543  18.761  0.00  0.00    +0.000 A 
ATOM     10  C   UNL     1      -7.629  17.542  17.801  0.00  0.00    +0.000 A 
ATOM     11  C   UNL     1      -7.233  17.177  16.536  0.00  0.00    +0.000 A 
ATOM     12  F   UNL     1      -7.033  18.105  15.589  0.00  0.00    +0.000 F 
ATOM     13  C   UNL     1      -7.057  15.837  16.263  0.00  0.00    +0.000 A 
ATOM     14  N   UNL     1      -7.250  14.856  17.176  0.00  0.00    +0.000 NA
ATOM     15  C   UNL     1      -7.537  12.832  18.992  0.00  0.00    +0.000 C 
ATOM     16  C   UNL     1      -7.018  12.124  20.244  0.00  0.00    +0.000 C 
ATOM     17  C   UNL     1      -5.710  11.425  19.955  0.00  0.00    +0.000 C 
ENDROOT
BRANCH   2  18
ATOM     18  C   UNL     1      -3.108  11.586  18.517  0.00  0.00    +0.000 A 
ATOM     19  C   UNL     1      -4.117  11.491  17.542  0.00  0.00    +0.000 A 
ATOM     20  C   UNL     1      -3.888  10.845  16.331  0.00  0.00    +0.000 A 
ATOM     21  C   UNL     1      -2.687  10.179  16.126  0.00  0.00    +0.000 A 
ATOM     22  C   UNL     1      -1.734  10.136  17.145  0.00  0.00    +0.000 A 
ATOM     23  C   UNL     1      -1.921  10.855  18.345  0.00  0.00    +0.000 A 
BRANCH  23  24
ATOM     24  N   UNL     1      -0.884  10.800  19.311  0.00  0.00    +0.000 N 
ATOM     25  N   UNL     1      -0.905   9.853  20.304  0.00  0.00    +0.000 NA
ATOM     26  C   UNL     1       0.159  10.189  21.035  0.00  0.00    +0.000 A 
ATOM     27  C   UNL     1       0.853  11.224  20.409  0.00  0.00    +0.000 A 
ATOM     28  N   UNL     1       0.219  11.589  19.295  0.00  0.00    +0.000 NA
ENDBRANCH  23  24
ENDBRANCH   2  18
TORSDOF 2
ENDMDL
