MODEL 1
REMARK VINA RESULT:      -7.9      0.000      0.000
REMARK  Name = 
REMARK  7 active torsions:
REMARK  status: ('A' for Active; 'I' for Inactive)
REMARK    1  A    between atoms: C_2  and  C_3
REMARK    2  A    between atoms: C_6  and  O_7
REMARK    3  A    between atoms: O_7  and  C_8
REMARK    4  A    between atoms: C_16  and  O_17
REMARK    5  A    between atoms: O_17  and  C_18
REMARK    6  A    between atoms: C_18  and  C_19
REMARK    7  A    between atoms: C_19  and  N_20
REMARK                            x       y       z     vdW  Elec       q    Type
REMARK                         _______ _______ _______ _____ _____    ______ ____
ROOT
ATOM      1  C   UNL     1       1.584   9.222  19.017  0.00  0.00    +0.000 A 
ATOM      2  C   UNL     1       2.229   8.931  17.817  0.00  0.00    +0.000 A 
ATOM      3  C   UNL     1       2.782   7.670  17.622  0.00  0.00    +0.000 A 
ATOM      4  C   UNL     1       2.596   6.653  18.573  0.00  0.00    +0.000 A 
ATOM      5  C   UNL     1       1.978   6.950  19.803  0.00  0.00    +0.000 A 
ATOM      6  C   UNL     1       1.495   8.247  20.023  0.00  0.00    +0.000 A 
ENDROOT
BRANCH   1   8
ATOM      7  N   UNL     1       0.522  11.567  19.348  0.00  0.00    +0.000 NA
ATOM      8  C   UNL     1       0.998  10.513  19.208  0.00  0.00    +0.000 C 
ENDBRANCH   1   8
BRANCH   4   9
ATOM      9  O   UNL     1       2.991   5.343  18.321  0.00  0.00    +0.000 OA
BRANCH   9  10
ATOM     10  C   UNL     1       4.278   5.146  17.849  0.00  0.00    +0.000 A 
ATOM     11  C   UNL     1       5.337   5.634  18.616  0.00  0.00    +0.000 A 
ATOM     12  C   UNL     1       6.637   5.572  18.107  0.00  0.00    +0.000 A 
ATOM     13 CL   UNL     1       7.949   6.193  19.031  0.00  0.00    +0.000 Cl
ATOM     14  C   UNL     1       6.887   5.040  16.842  0.00  0.00    +0.000 A 
ATOM     15  C   UNL     1       5.831   4.505  16.112  0.00  0.00    +0.000 A 
ATOM     16 CL   UNL     1       6.103   3.892  14.528  0.00  0.00    +0.000 Cl
ATOM     17  C   UNL     1       4.539   4.508  16.630  0.00  0.00    +0.000 A 
ENDBRANCH   9  10
ENDBRANCH   4   9
BRANCH   5  18
ATOM     18  O   UNL     1       1.881   5.930  20.717  0.00  0.00    +0.000 OA
BRANCH  18  19
ATOM     19  C   UNL     1       0.818   4.984  20.529  0.00  0.00    +0.000 C 
BRANCH  19  20
ATOM     20  C   UNL     1       1.245   3.623  21.086  0.00  0.00    +0.000 C 
BRANCH  20  21
ATOM     21  N   UNL     1       2.057   2.826  20.162  0.00  0.00    +0.000 N 
ATOM     22  C   UNL     1       3.415   2.729  20.369  0.00  0.00    +0.000 A 
ATOM     23  C   UNL     1       4.217   2.092  19.511  0.00  0.00    +0.000 A 
ATOM     24  C   UNL     1       3.628   1.479  18.312  0.00  0.00    +0.000 A 
ATOM     25  O   UNL     1       4.332   0.960  17.455  0.00  0.00    +0.000 OA
ATOM     26  N   UNL     1       2.266   1.537  18.223  0.00  0.00    +0.000 N 
ATOM     27  C   UNL     1       1.434   2.206  19.084  0.00  0.00    +0.000 A 
ATOM     28  O   UNL     1       0.222   2.245  18.876  0.00  0.00    +0.000 OA
ATOM     29  H   UNL     1       1.840   1.124  17.411  0.00  0.00    +0.000 HD
ENDBRANCH  20  21
ENDBRANCH  19  20
ENDBRANCH  18  19
ENDBRANCH   5  18
TORSDOF 7
ENDMDL
MODEL 2
REMARK VINA RESULT:      -7.8      2.265      6.440
REMARK  Name = 
REMARK  7 active torsions:
REMARK  status: ('A' for Active; 'I' for Inactive)
REMARK    1  A    between atoms: C_2  and  C_3
REMARK    2  A    between atoms: C_6  and  O_7
REMARK    3  A    between atoms: O_7  and  C_8
REMARK    4  A    between atoms: C_16  and  O_17
REMARK    5  A    between atoms: O_17  and  C_18
REMARK    6  A    between atoms: C_18  and  C_19
REMARK    7  A    between atoms: C_19  and  N_20
REMARK                            x       y       z     vdW  Elec       q    Type
REMARK                         _______ _______ _______ _____ _____    ______ ____
ROOT
ATOM      1  C   UNL     1       1.836   3.834  20.447  0.00  0.00    +0.000 A 
ATOM      2  C   UNL     1       2.173   3.267  19.221  0.00  0.00    +0.000 A 
ATOM      3  C   UNL     1       2.565   4.087  18.168  0.00  0.00    +0.000 A 
ATOM      4  C   UNL     1       2.735   5.468  18.362  0.00  0.00    +0.000 A 
ATOM      5  C   UNL     1       2.361   6.053  19.587  0.00  0.00    +0.000 A 
ATOM      6  C   UNL     1       1.890   5.227  20.617  0.00  0.00    +0.000 A 
ENDROOT
BRANCH   1   8
ATOM      7  N   UNL     1       1.135   2.312  22.429  0.00  0.00    +0.000 NA
ATOM      8  C   UNL     1       1.452   2.988  21.535  0.00  0.00    +0.000 C 
ENDBRANCH   1   8
BRANCH   4   9
ATOM      9  O   UNL     1       3.289   6.277  17.376  0.00  0.00    +0.000 OA
BRANCH   9  10
ATOM     10  C   UNL     1       4.638   6.116  17.104  0.00  0.00    +0.000 A 
ATOM     11  C   UNL     1       4.995   5.612  15.852  0.00  0.00    +0.000 A 
ATOM     12  C   UNL     1       6.335   5.311  15.593  0.00  0.00    +0.000 A 
ATOM     13 CL   UNL     1       6.788   4.666  14.063  0.00  0.00    +0.000 Cl
ATOM     14  C   UNL     1       7.314   5.499  16.569  0.00  0.00    +0.000 A 
ATOM     15  C   UNL     1       6.954   6.055  17.791  0.00  0.00    +0.000 A 
ATOM     16 CL   UNL     1       8.131   6.246  19.031  0.00  0.00    +0.000 Cl
ATOM     17  C   UNL     1       5.632   6.412  18.044  0.00  0.00    +0.000 A 
ENDBRANCH   9  10
ENDBRANCH   4   9
BRANCH   5  18
ATOM     18  O   UNL     1       2.492   7.415  19.696  0.00  0.00    +0.000 OA
BRANCH  18  19
ATOM     19  C   UNL     1       1.602   8.087  20.600  0.00  0.00    +0.000 C 
BRANCH  19  20
ATOM     20  C   UNL     1       0.641   8.974  19.802  0.00  0.00    +0.000 C 
BRANCH  20  21
ATOM     21  N   UNL     1       1.212  10.261  19.397  0.00  0.00    +0.000 N 
ATOM     22  C   UNL     1       1.123  11.337  20.252  0.00  0.00    +0.000 A 
ATOM     23  C   UNL     1       1.545  12.555  19.902  0.00  0.00    +0.000 A 
ATOM     24  C   UNL     1       2.118  12.748  18.562  0.00  0.00    +0.000 A 
ATOM     25  O   UNL     1       2.439  13.861  18.165  0.00  0.00    +0.000 OA
ATOM     26  N   UNL     1       2.257  11.619  17.807  0.00  0.00    +0.000 N 
ATOM     27  C   UNL     1       1.809  10.367  18.145  0.00  0.00    +0.000 A 
ATOM     28  O   UNL     1       1.933   9.427  17.362  0.00  0.00    +0.000 OA
ATOM     29  H   UNL     1       2.648  11.726  16.887  0.00  0.00    +0.000 HD
ENDBRANCH  20  21
ENDBRANCH  19  20
ENDBRANCH  18  19
ENDBRANCH   5  18
TORSDOF 7
ENDMDL
MODEL 3
REMARK VINA RESULT:      -7.8      2.650      6.487
REMARK  Name = 
REMARK  7 active torsions:
REMARK  status: ('A' for Active; 'I' for Inactive)
REMARK    1  A    between atoms: C_2  and  C_3
REMARK    2  A    between atoms: C_6  and  O_7
REMARK    3  A    between atoms: O_7  and  C_8
REMARK    4  A    between atoms: C_16  and  O_17
REMARK    5  A    between atoms: O_17  and  C_18
REMARK    6  A    between atoms: C_18  and  C_19
REMARK    7  A    between atoms: C_19  and  N_20
REMARK                            x       y       z     vdW  Elec       q    Type
REMARK                         _______ _______ _______ _____ _____    ______ ____
ROOT
ATOM      1  C   UNL     1       1.807   3.680  20.490  0.00  0.00    +0.000 A 
ATOM      2  C   UNL     1       2.158   3.099  19.274  0.00  0.00    +0.000 A 
ATOM      3  C   UNL     1       2.539   3.910  18.210  0.00  0.00    +0.000 A 
ATOM      4  C   UNL     1       2.683   5.297  18.384  0.00  0.00    +0.000 A 
ATOM      5  C   UNL     1       2.294   5.894  19.599  0.00  0.00    +0.000 A 
ATOM      6  C   UNL     1       1.835   5.075  20.640  0.00  0.00    +0.000 A 
ENDROOT
BRANCH   1   8
ATOM      7  N   UNL     1       1.132   2.150  22.476  0.00  0.00    +0.000 NA
ATOM      8  C   UNL     1       1.436   2.843  21.591  0.00  0.00    +0.000 C 
ENDBRANCH   1   8
BRANCH   4   9
ATOM      9  O   UNL     1       3.224   6.101  17.387  0.00  0.00    +0.000 OA
BRANCH   9  10
ATOM     10  C   UNL     1       4.548   5.883  17.042  0.00  0.00    +0.000 A 
ATOM     11  C   UNL     1       5.534   6.491  17.821  0.00  0.00    +0.000 A 
ATOM     12  C   UNL     1       6.871   6.403  17.425  0.00  0.00    +0.000 A 
ATOM     13 CL   UNL     1       8.095   7.169  18.363  0.00  0.00    +0.000 Cl
ATOM     14  C   UNL     1       7.231   5.727  16.259  0.00  0.00    +0.000 A 
ATOM     15  C   UNL     1       6.246   5.077  15.522  0.00  0.00    +0.000 A 
ATOM     16 CL   UNL     1       6.654   4.282  14.052  0.00  0.00    +0.000 Cl
ATOM     17  C   UNL     1       4.917   5.108  15.936  0.00  0.00    +0.000 A 
ENDBRANCH   9  10
ENDBRANCH   4   9
BRANCH   5  18
ATOM     18  O   UNL     1       2.399   7.259  19.687  0.00  0.00    +0.000 OA
BRANCH  18  19
ATOM     19  C   UNL     1       1.581   7.916  20.667  0.00  0.00    +0.000 C 
BRANCH  19  20
ATOM     20  C   UNL     1       1.041   9.225  20.082  0.00  0.00    +0.000 C 
BRANCH  20  21
ATOM     21  N   UNL     1       0.203   9.993  21.007  0.00  0.00    +0.000 N 
ATOM     22  C   UNL     1       0.078   9.572  22.312  0.00  0.00    +0.000 A 
ATOM     23  C   UNL     1      -0.740  10.179  23.175  0.00  0.00    +0.000 A 
ATOM     24  C   UNL     1      -1.530  11.330  22.714  0.00  0.00    +0.000 A 
ATOM     25  O   UNL     1      -2.355  11.865  23.443  0.00  0.00    +0.000 OA
ATOM     26  N   UNL     1      -1.284  11.745  21.436  0.00  0.00    +0.000 N 
ATOM     27  C   UNL     1      -0.464  11.118  20.533  0.00  0.00    +0.000 A 
ATOM     28  O   UNL     1      -0.360  11.544  19.384  0.00  0.00    +0.000 OA
ATOM     29  H   UNL     1      -1.812  12.531  21.098  0.00  0.00    +0.000 HD
ENDBRANCH  20  21
ENDBRANCH  19  20
ENDBRANCH  18  19
ENDBRANCH   5  18
TORSDOF 7
ENDMDL
MODEL 4
REMARK VINA RESULT:      -7.7      0.547      1.778
REMARK  Name = 
REMARK  7 active torsions:
REMARK  status: ('A' for Active; 'I' for Inactive)
REMARK    1  A    between atoms: C_2  and  C_3
REMARK    2  A    between atoms: C_6  and  O_7
REMARK    3  A    between atoms: O_7  and  C_8
REMARK    4  A    between atoms: C_16  and  O_17
REMARK    5  A    between atoms: O_17  and  C_18
REMARK    6  A    between atoms: C_18  and  C_19
REMARK    7  A    between atoms: C_19  and  N_20
REMARK                            x       y       z     vdW  Elec       q    Type
REMARK                         _______ _______ _______ _____ _____    ______ ____
ROOT
ATOM      1  C   UNL     1       1.494   9.098  19.197  0.00  0.00    +0.000 A 
ATOM      2  C   UNL     1       1.782   8.986  17.839  0.00  0.00    +0.000 A 
ATOM      3  C   UNL     1       2.412   7.841  17.362  0.00  0.00    +0.000 A 
ATOM      4  C   UNL     1       2.654   6.751  18.214  0.00  0.00    +0.000 A 
ATOM      5  C   UNL     1       2.399   6.871  19.594  0.00  0.00    +0.000 A 
ATOM      6  C   UNL     1       1.838   8.061  20.078  0.00  0.00    +0.000 A 
ENDROOT
BRANCH   1   8
ATOM      7  N   UNL     1       0.287  11.214  20.093  0.00  0.00    +0.000 NA
ATOM      8  C   UNL     1       0.827  10.267  19.683  0.00  0.00    +0.000 C 
ENDBRANCH   1   8
BRANCH   4   9
ATOM      9  O   UNL     1       3.124   5.537  17.724  0.00  0.00    +0.000 OA
BRANCH   9  10
ATOM     10  C   UNL     1       4.476   5.446  17.438  0.00  0.00    +0.000 A 
ATOM     11  C   UNL     1       4.846   4.959  16.183  0.00  0.00    +0.000 A 
ATOM     12  C   UNL     1       6.197   4.728  15.909  0.00  0.00    +0.000 A 
ATOM     13 CL   UNL     1       6.665   4.104  14.375  0.00  0.00    +0.000 Cl
ATOM     14  C   UNL     1       7.175   4.967  16.874  0.00  0.00    +0.000 A 
ATOM     15  C   UNL     1       6.799   5.506  18.100  0.00  0.00    +0.000 A 
ATOM     16 CL   UNL     1       7.978   5.760  19.327  0.00  0.00    +0.000 Cl
ATOM     17  C   UNL     1       5.464   5.795  18.366  0.00  0.00    +0.000 A 
ENDBRANCH   9  10
ENDBRANCH   4   9
BRANCH   5  18
ATOM     18  O   UNL     1       2.714   5.795  20.385  0.00  0.00    +0.000 OA
BRANCH  18  19
ATOM     19  C   UNL     1       1.659   5.241  21.186  0.00  0.00    +0.000 C 
BRANCH  19  20
ATOM     20  C   UNL     1       0.943   4.142  20.395  0.00  0.00    +0.000 C 
BRANCH  20  21
ATOM     21  N   UNL     1       1.844   3.166  19.777  0.00  0.00    +0.000 N 
ATOM     22  C   UNL     1       3.157   3.104  20.190  0.00  0.00    +0.000 A 
ATOM     23  C   UNL     1       4.045   2.298  19.603  0.00  0.00    +0.000 A 
ATOM     24  C   UNL     1       3.604   1.454  18.482  0.00  0.00    +0.000 A 
ATOM     25  O   UNL     1       4.400   0.763  17.859  0.00  0.00    +0.000 OA
ATOM     26  N   UNL     1       2.271   1.502  18.192  0.00  0.00    +0.000 N 
ATOM     27  C   UNL     1       1.353   2.341  18.771  0.00  0.00    +0.000 A 
ATOM     28  O   UNL     1       0.183   2.344  18.390  0.00  0.00    +0.000 OA
ATOM     29  H   UNL     1       1.945   0.933  17.429  0.00  0.00    +0.000 HD
ENDBRANCH  20  21
ENDBRANCH  19  20
ENDBRANCH  18  19
ENDBRANCH   5  18
TORSDOF 7
ENDMDL
MODEL 5
REMARK VINA RESULT:      -7.7      2.526      6.445
REMARK  Name = 
REMARK  7 active torsions:
REMARK  status: ('A' for Active; 'I' for Inactive)
REMARK    1  A    between atoms: C_2  and  C_3
REMARK    2  A    between atoms: C_6  and  O_7
REMARK    3  A    between atoms: O_7  and  C_8
REMARK    4  A    between atoms: C_16  and  O_17
REMARK    5  A    between atoms: O_17  and  C_18
REMARK    6  A    between atoms: C_18  and  C_19
REMARK    7  A    between atoms: C_19  and  N_20
REMARK                            x       y       z     vdW  Elec       q    Type
REMARK                         _______ _______ _______ _____ _____    ______ ____
ROOT
ATOM      1  C   UNL     1       1.701   3.758  20.560  0.00  0.00    +0.000 A 
ATOM      2  C   UNL     1       1.856   3.201  19.293  0.00  0.00    +0.000 A 
ATOM      3  C   UNL     1       2.238   4.011  18.228  0.00  0.00    +0.000 A 
ATOM      4  C   UNL     1       2.580   5.357  18.440  0.00  0.00    +0.000 A 
ATOM      5  C   UNL     1       2.390   5.935  19.710  0.00  0.00    +0.000 A 
ATOM      6  C   UNL     1       1.928   5.129  20.759  0.00  0.00    +0.000 A 
ENDROOT
BRANCH   1   8
ATOM      7  N   UNL     1       1.041   2.237  22.557  0.00  0.00    +0.000 NA
ATOM      8  C   UNL     1       1.329   2.920  21.658  0.00  0.00    +0.000 C 
ENDBRANCH   1   8
BRANCH   4   9
ATOM      9  O   UNL     1       3.126   6.135  17.425  0.00  0.00    +0.000 OA
BRANCH   9  10
ATOM     10  C   UNL     1       4.445   5.892  17.076  0.00  0.00    +0.000 A 
ATOM     11  C   UNL     1       5.443   6.533  17.812  0.00  0.00    +0.000 A 
ATOM     12  C   UNL     1       6.775   6.417  17.404  0.00  0.00    +0.000 A 
ATOM     13 CL   UNL     1       8.014   7.221  18.288  0.00  0.00    +0.000 Cl
ATOM     14  C   UNL     1       7.116   5.681  16.270  0.00  0.00    +0.000 A 
ATOM     15  C   UNL     1       6.119   5.002  15.578  0.00  0.00    +0.000 A 
ATOM     16 CL   UNL     1       6.504   4.132  14.145  0.00  0.00    +0.000 Cl
ATOM     17  C   UNL     1       4.795   5.061  16.006  0.00  0.00    +0.000 A 
ENDBRANCH   9  10
ENDBRANCH   4   9
BRANCH   5  18
ATOM     18  O   UNL     1       2.683   7.270  19.840  0.00  0.00    +0.000 OA
BRANCH  18  19
ATOM     19  C   UNL     1       1.578   8.186  19.825  0.00  0.00    +0.000 C 
BRANCH  19  20
ATOM     20  C   UNL     1       1.161   8.502  21.264  0.00  0.00    +0.000 C 
BRANCH  20  21
ATOM     21  N   UNL     1       0.247   9.642  21.386  0.00  0.00    +0.000 N 
ATOM     22  C   UNL     1      -0.259  10.225  20.246  0.00  0.00    +0.000 A 
ATOM     23  C   UNL     1      -1.024  11.319  20.292  0.00  0.00    +0.000 A 
ATOM     24  C   UNL     1      -1.330  11.916  21.600  0.00  0.00    +0.000 A 
ATOM     25  O   UNL     1      -1.955  12.965  21.687  0.00  0.00    +0.000 OA
ATOM     26  N   UNL     1      -0.870  11.229  22.687  0.00  0.00    +0.000 N 
ATOM     27  C   UNL     1      -0.066  10.118  22.655  0.00  0.00    +0.000 A 
ATOM     28  O   UNL     1       0.342   9.612  23.699  0.00  0.00    +0.000 OA
ATOM     29  H   UNL     1      -1.068  11.618  23.594  0.00  0.00    +0.000 HD
ENDBRANCH  20  21
ENDBRANCH  19  20
ENDBRANCH  18  19
ENDBRANCH   5  18
TORSDOF 7
ENDMDL
MODEL 6
REMARK VINA RESULT:      -7.6      2.112      5.931
REMARK  Name = 
REMARK  7 active torsions:
REMARK  status: ('A' for Active; 'I' for Inactive)
REMARK    1  A    between atoms: C_2  and  C_3
REMARK    2  A    between atoms: C_6  and  O_7
REMARK    3  A    between atoms: O_7  and  C_8
REMARK    4  A    between atoms: C_16  and  O_17
REMARK    5  A    between atoms: O_17  and  C_18
REMARK    6  A    between atoms: C_18  and  C_19
REMARK    7  A    between atoms: C_19  and  N_20
REMARK                            x       y       z     vdW  Elec       q    Type
REMARK                         _______ _______ _______ _____ _____    ______ ____
ROOT
ATOM      1  C   UNL     1       1.901   3.029  20.049  0.00  0.00    +0.000 A 
ATOM      2  C   UNL     1       2.486   2.052  19.248  0.00  0.00    +0.000 A 
ATOM      3  C   UNL     1       2.894   2.375  17.958  0.00  0.00    +0.000 A 
ATOM      4  C   UNL     1       2.828   3.700  17.497  0.00  0.00    +0.000 A 
ATOM      5  C   UNL     1       2.203   4.685  18.288  0.00  0.00    +0.000 A 
ATOM      6  C   UNL     1       1.723   4.331  19.556  0.00  0.00    +0.000 A 
ENDROOT
BRANCH   1   8
ATOM      7  N   UNL     1       1.169   2.420  22.464  0.00  0.00    +0.000 NA
ATOM      8  C   UNL     1       1.500   2.701  21.383  0.00  0.00    +0.000 C 
ENDBRANCH   1   8
BRANCH   4   9
ATOM      9  O   UNL     1       3.386   4.075  16.280  0.00  0.00    +0.000 OA
BRANCH   9  10
ATOM     10  C   UNL     1       4.745   4.341  16.258  0.00  0.00    +0.000 A 
ATOM     11  C   UNL     1       5.376   4.613  17.474  0.00  0.00    +0.000 A 
ATOM     12  C   UNL     1       6.714   5.017  17.475  0.00  0.00    +0.000 A 
ATOM     13 CL   UNL     1       7.498   5.379  18.964  0.00  0.00    +0.000 Cl
ATOM     14  C   UNL     1       7.421   5.161  16.281  0.00  0.00    +0.000 A 
ATOM     15  C   UNL     1       6.798   4.833  15.082  0.00  0.00    +0.000 A 
ATOM     16 CL   UNL     1       7.629   5.053  13.591  0.00  0.00    +0.000 Cl
ATOM     17  C   UNL     1       5.484   4.375  15.069  0.00  0.00    +0.000 A 
ENDBRANCH   9  10
ENDBRANCH   4   9
BRANCH   5  18
ATOM     18  O   UNL     1       2.113   5.948  17.759  0.00  0.00    +0.000 OA
BRANCH  18  19
ATOM     19  C   UNL     1       2.725   7.013  18.502  0.00  0.00    +0.000 C 
BRANCH  19  20
ATOM     20  C   UNL     1       1.905   8.294  18.320  0.00  0.00    +0.000 C 
BRANCH  20  21
ATOM     21  N   UNL     1       1.482   8.918  19.577  0.00  0.00    +0.000 N 
ATOM     22  C   UNL     1       1.514   8.180  20.740  0.00  0.00    +0.000 A 
ATOM     23  C   UNL     1       1.058   8.665  21.897  0.00  0.00    +0.000 A 
ATOM     24  C   UNL     1       0.503  10.026  21.926  0.00  0.00    +0.000 A 
ATOM     25  O   UNL     1      -0.004  10.482  22.943  0.00  0.00    +0.000 OA
ATOM     26  N   UNL     1       0.590  10.727  20.757  0.00  0.00    +0.000 N 
ATOM     27  C   UNL     1       1.035  10.235  19.557  0.00  0.00    +0.000 A 
ATOM     28  O   UNL     1       1.014  10.937  18.548  0.00  0.00    +0.000 OA
ATOM     29  H   UNL     1       0.217  11.661  20.752  0.00  0.00    +0.000 HD
ENDBRANCH  20  21
ENDBRANCH  19  20
ENDBRANCH  18  19
ENDBRANCH   5  18
TORSDOF 7
ENDMDL
MODEL 7
REMARK VINA RESULT:      -7.5      1.062      2.171
REMARK  Name = 
REMARK  7 active torsions:
REMARK  status: ('A' for Active; 'I' for Inactive)
REMARK    1  A    between atoms: C_2  and  C_3
REMARK    2  A    between atoms: C_6  and  O_7
REMARK    3  A    between atoms: O_7  and  C_8
REMARK    4  A    between atoms: C_16  and  O_17
REMARK    5  A    between atoms: O_17  and  C_18
REMARK    6  A    between atoms: C_18  and  C_19
REMARK    7  A    between atoms: C_19  and  N_20
REMARK                            x       y       z     vdW  Elec       q    Type
REMARK                         _______ _______ _______ _____ _____    ______ ____
ROOT
ATOM      1  C   UNL     1       1.515   8.936  19.621  0.00  0.00    +0.000 A 
ATOM      2  C   UNL     1       1.940   8.922  18.295  0.00  0.00    +0.000 A 
ATOM      3  C   UNL     1       2.527   7.773  17.774  0.00  0.00    +0.000 A 
ATOM      4  C   UNL     1       2.590   6.594  18.535  0.00  0.00    +0.000 A 
ATOM      5  C   UNL     1       2.197   6.613  19.887  0.00  0.00    +0.000 A 
ATOM      6  C   UNL     1       1.681   7.799  20.426  0.00  0.00    +0.000 A 
ENDROOT
BRANCH   1   8
ATOM      7  N   UNL     1       0.392  11.077  20.568  0.00  0.00    +0.000 NA
ATOM      8  C   UNL     1       0.893  10.112  20.150  0.00  0.00    +0.000 C 
ENDBRANCH   1   8
BRANCH   4   9
ATOM      9  O   UNL     1       3.014   5.393  17.978  0.00  0.00    +0.000 OA
BRANCH   9  10
ATOM     10  C   UNL     1       4.352   5.288  17.632  0.00  0.00    +0.000 A 
ATOM     11  C   UNL     1       4.663   4.750  16.383  0.00  0.00    +0.000 A 
ATOM     12  C   UNL     1       6.000   4.505  16.056  0.00  0.00    +0.000 A 
ATOM     13 CL   UNL     1       6.397   3.818  14.528  0.00  0.00    +0.000 Cl
ATOM     14  C   UNL     1       7.022   4.783  16.964  0.00  0.00    +0.000 A 
ATOM     15  C   UNL     1       6.704   5.372  18.182  0.00  0.00    +0.000 A 
ATOM     16 CL   UNL     1       7.938   5.675  19.341  0.00  0.00    +0.000 Cl
ATOM     17  C   UNL     1       5.382   5.673  18.499  0.00  0.00    +0.000 A 
ENDBRANCH   9  10
ENDBRANCH   4   9
BRANCH   5  18
ATOM     18  O   UNL     1       2.340   5.446  20.596  0.00  0.00    +0.000 OA
BRANCH  18  19
ATOM     19  C   UNL     1       1.144   4.710  20.891  0.00  0.00    +0.000 C 
BRANCH  19  20
ATOM     20  C   UNL     1       1.489   3.227  21.060  0.00  0.00    +0.000 C 
BRANCH  20  21
ATOM     21  N   UNL     1       2.304   2.674  19.974  0.00  0.00    +0.000 N 
ATOM     22  C   UNL     1       1.757   2.551  18.716  0.00  0.00    +0.000 A 
ATOM     23  C   UNL     1       2.420   1.974  17.711  0.00  0.00    +0.000 A 
ATOM     24  C   UNL     1       3.772   1.454  17.960  0.00  0.00    +0.000 A 
ATOM     25  O   UNL     1       4.385   0.842  17.094  0.00  0.00    +0.000 OA
ATOM     26  N   UNL     1       4.281   1.695  19.204  0.00  0.00    +0.000 N 
ATOM     27  C   UNL     1       3.604   2.266  20.251  0.00  0.00    +0.000 A 
ATOM     28  O   UNL     1       4.141   2.381  21.352  0.00  0.00    +0.000 OA
ATOM     29  H   UNL     1       5.205   1.349  19.398  0.00  0.00    +0.000 HD
ENDBRANCH  20  21
ENDBRANCH  19  20
ENDBRANCH  18  19
ENDBRANCH   5  18
TORSDOF 7
ENDMDL
MODEL 8
REMARK VINA RESULT:      -7.5      2.138      6.160
REMARK  Name = 
REMARK  7 active torsions:
REMARK  status: ('A' for Active; 'I' for Inactive)
REMARK    1  A    between atoms: C_2  and  C_3
REMARK    2  A    between atoms: C_6  and  O_7
REMARK    3  A    between atoms: O_7  and  C_8
REMARK    4  A    between atoms: C_16  and  O_17
REMARK    5  A    between atoms: O_17  and  C_18
REMARK    6  A    between atoms: C_18  and  C_19
REMARK    7  A    between atoms: C_19  and  N_20
REMARK                            x       y       z     vdW  Elec       q    Type
REMARK                         _______ _______ _______ _____ _____    ______ ____
ROOT
ATOM      1  C   UNL     1       2.011   3.034  19.980  0.00  0.00    +0.000 A 
ATOM      2  C   UNL     1       2.518   2.031  19.158  0.00  0.00    +0.000 A 
ATOM      3  C   UNL     1       2.911   2.339  17.859  0.00  0.00    +0.000 A 
ATOM      4  C   UNL     1       2.910   3.670  17.409  0.00  0.00    +0.000 A 
ATOM      5  C   UNL     1       2.364   4.683  18.221  0.00  0.00    +0.000 A 
ATOM      6  C   UNL     1       1.896   4.348  19.500  0.00  0.00    +0.000 A 
ENDROOT
BRANCH   1   8
ATOM      7  N   UNL     1       1.305   2.477  22.415  0.00  0.00    +0.000 NA
ATOM      8  C   UNL     1       1.627   2.719  21.322  0.00  0.00    +0.000 C 
ENDBRANCH   1   8
BRANCH   4   9
ATOM      9  O   UNL     1       3.458   4.021  16.180  0.00  0.00    +0.000 OA
BRANCH   9  10
ATOM     10  C   UNL     1       4.784   4.421  16.165  0.00  0.00    +0.000 A 
ATOM     11  C   UNL     1       5.409   4.563  14.925  0.00  0.00    +0.000 A 
ATOM     12  C   UNL     1       6.779   4.833  14.876  0.00  0.00    +0.000 A 
ATOM     13 CL   UNL     1       7.568   4.986  13.353  0.00  0.00    +0.000 Cl
ATOM     14  C   UNL     1       7.529   4.952  16.046  0.00  0.00    +0.000 A 
ATOM     15  C   UNL     1       6.884   4.866  17.275  0.00  0.00    +0.000 A 
ATOM     16 CL   UNL     1       7.793   4.955  18.733  0.00  0.00    +0.000 Cl
ATOM     17  C   UNL     1       5.510   4.653  17.339  0.00  0.00    +0.000 A 
ENDBRANCH   9  10
ENDBRANCH   4   9
BRANCH   5  18
ATOM     18  O   UNL     1       2.334   5.953  17.703  0.00  0.00    +0.000 OA
BRANCH  18  19
ATOM     19  C   UNL     1       2.737   7.023  18.570  0.00  0.00    +0.000 C 
BRANCH  19  20
ATOM     20  C   UNL     1       1.816   8.228  18.352  0.00  0.00    +0.000 C 
BRANCH  20  21
ATOM     21  N   UNL     1       1.419   8.910  19.587  0.00  0.00    +0.000 N 
ATOM     22  C   UNL     1       1.462   8.223  20.780  0.00  0.00    +0.000 A 
ATOM     23  C   UNL     1       1.029   8.764  21.922  0.00  0.00    +0.000 A 
ATOM     24  C   UNL     1       0.490  10.131  21.900  0.00  0.00    +0.000 A 
ATOM     25  O   UNL     1       0.003  10.637  22.903  0.00  0.00    +0.000 OA
ATOM     26  N   UNL     1       0.565  10.779  20.700  0.00  0.00    +0.000 N 
ATOM     27  C   UNL     1       0.986  10.230  19.516  0.00  0.00    +0.000 A 
ATOM     28  O   UNL     1       0.956  10.888  18.477  0.00  0.00    +0.000 OA
ATOM     29  H   UNL     1       0.202  11.716  20.660  0.00  0.00    +0.000 HD
ENDBRANCH  20  21
ENDBRANCH  19  20
ENDBRANCH  18  19
ENDBRANCH   5  18
TORSDOF 7
ENDMDL
MODEL 9
REMARK VINA RESULT:      -7.4      2.406      6.762
REMARK  Name = 
REMARK  7 active torsions:
REMARK  status: ('A' for Active; 'I' for Inactive)
REMARK    1  A    between atoms: C_2  and  C_3
REMARK    2  A    between atoms: C_6  and  O_7
REMARK    3  A    between atoms: O_7  and  C_8
REMARK    4  A    between atoms: C_16  and  O_17
REMARK    5  A    between atoms: O_17  and  C_18
REMARK    6  A    between atoms: C_18  and  C_19
REMARK    7  A    between atoms: C_19  and  N_20
REMARK                            x       y       z     vdW  Elec       q    Type
REMARK                         _______ _______ _______ _____ _____    ______ ____
ROOT
ATOM      1  C   UNL     1       1.844   3.813  20.416  0.00  0.00    +0.000 A 
ATOM      2  C   UNL     1       2.070   3.282  19.149  0.00  0.00    +0.000 A 
ATOM      3  C   UNL     1       2.427   4.127  18.103  0.00  0.00    +0.000 A 
ATOM      4  C   UNL     1       2.673   5.491  18.337  0.00  0.00    +0.000 A 
ATOM      5  C   UNL     1       2.410   6.040  19.607  0.00  0.00    +0.000 A 
ATOM      6  C   UNL     1       1.974   5.193  20.635  0.00  0.00    +0.000 A 
ENDROOT
BRANCH   1   8
ATOM      7  N   UNL     1       1.231   2.232  22.381  0.00  0.00    +0.000 NA
ATOM      8  C   UNL     1       1.498   2.940  21.496  0.00  0.00    +0.000 C 
ENDBRANCH   1   8
BRANCH   4   9
ATOM      9  O   UNL     1       3.194   6.315  17.346  0.00  0.00    +0.000 OA
BRANCH   9  10
ATOM     10  C   UNL     1       4.531   6.152  17.021  0.00  0.00    +0.000 A 
ATOM     11  C   UNL     1       4.843   5.341  15.930  0.00  0.00    +0.000 A 
ATOM     12  C   UNL     1       6.182   5.047  15.656  0.00  0.00    +0.000 A 
ATOM     13 CL   UNL     1       6.581   4.027  14.328  0.00  0.00    +0.000 Cl
ATOM     14  C   UNL     1       7.205   5.545  16.463  0.00  0.00    +0.000 A 
ATOM     15  C   UNL     1       6.885   6.398  17.513  0.00  0.00    +0.000 A 
ATOM     16 CL   UNL     1       8.121   6.982  18.556  0.00  0.00    +0.000 Cl
ATOM     17  C   UNL     1       5.560   6.745  17.763  0.00  0.00    +0.000 A 
ENDBRANCH   9  10
ENDBRANCH   4   9
BRANCH   5  18
ATOM     18  O   UNL     1       2.611   7.390  19.758  0.00  0.00    +0.000 OA
BRANCH  18  19
ATOM     19  C   UNL     1       1.475   8.181  20.139  0.00  0.00    +0.000 C 
BRANCH  19  20
ATOM     20  C   UNL     1       1.399   9.423  19.246  0.00  0.00    +0.000 C 
BRANCH  20  21
ATOM     21  N   UNL     1       0.223  10.263  19.487  0.00  0.00    +0.000 N 
ATOM     22  C   UNL     1      -0.821  10.237  18.589  0.00  0.00    +0.000 A 
ATOM     23  C   UNL     1      -1.877  11.044  18.709  0.00  0.00    +0.000 A 
ATOM     24  C   UNL     1      -1.922  11.990  19.835  0.00  0.00    +0.000 A 
ATOM     25  O   UNL     1      -2.827  12.807  19.939  0.00  0.00    +0.000 OA
ATOM     26  N   UNL     1      -0.898  11.893  20.732  0.00  0.00    +0.000 N 
ATOM     27  C   UNL     1       0.203  11.084  20.610  0.00  0.00    +0.000 A 
ATOM     28  O   UNL     1       1.101  11.120  21.451  0.00  0.00    +0.000 OA
ATOM     29  H   UNL     1      -0.907  12.529  21.511  0.00  0.00    +0.000 HD
ENDBRANCH  20  21
ENDBRANCH  19  20
ENDBRANCH  18  19
ENDBRANCH   5  18
TORSDOF 7
ENDMDL
