MODEL 1
REMARK VINA RESULT:      -6.5      0.000      0.000
REMARK  Name = 
REMARK  6 active torsions:
REMARK  status: ('A' for Active; 'I' for Inactive)
REMARK    1  A    between atoms: C_1  and  C_2
REMARK    2  A    between atoms: C_2  and  O_3
REMARK    3  A    between atoms: O_3  and  C_4
REMARK    4  A    between atoms: C_4  and  C_6
REMARK    5  A    between atoms: C_16  and  C_17
REMARK    6  A    between atoms: C_21  and  C_23
REMARK                            x       y       z     vdW  Elec       q    Type
REMARK                         _______ _______ _______ _____ _____    ______ ____
ROOT
ATOM      1  C   UNL     1      -1.978  11.953  19.931  0.00  0.00    +0.000 C 
ATOM      2  C   UNL     1      -3.292  12.594  20.362  0.00  0.00    +0.000 C 
ATOM      3  S   UNL     1      -2.924  14.219  21.005  0.00  0.00    +0.000 S 
ATOM      4  C   UNL     1      -1.106  13.920  21.153  0.00  0.00    +0.000 C 
ATOM      5  C   UNL     1      -0.747  14.004  22.685  0.00  0.00    +0.000 C 
ATOM      6  O   UNL     1      -1.037  13.205  23.567  0.00  0.00    +0.000 OA
ATOM      7  N   UNL     1      -0.039  15.195  22.870  0.00  0.00    +0.000 N 
ATOM      8  C   UNL     1       0.164  15.854  21.662  0.00  0.00    +0.000 A 
ATOM      9  C   UNL     1       0.798  17.063  21.471  0.00  0.00    +0.000 A 
ATOM     10  C   UNL     1       0.843  17.572  20.170  0.00  0.00    +0.000 A 
ATOM     11  C   UNL     1       0.268  16.869  19.088  0.00  0.00    +0.000 A 
ATOM     12  C   UNL     1       0.291  17.436  17.698  0.00  0.00    +0.000 C 
ATOM     13  C   UNL     1      -0.359  15.635  19.311  0.00  0.00    +0.000 A 
ATOM     14  C   UNL     1      -0.404  15.137  20.604  0.00  0.00    +0.000 A 
ATOM     15  N   UNL     1      -0.812  12.628  20.535  0.00  0.00    +0.000 N 
ATOM     16  C   UNL     1       0.503  12.141  20.596  0.00  0.00    +0.000 C 
ATOM     17  O   UNL     1       1.398  12.775  21.166  0.00  0.00    +0.000 OA
ATOM     18  H   UNL     1       0.313  15.489  23.768  0.00  0.00    +0.000 HD
ENDROOT
BRANCH  16  19
ATOM     19  C   UNL     1       0.917  10.881  19.908  0.00  0.00    +0.000 A 
ATOM     20  C   UNL     1       0.852   9.685  20.640  0.00  0.00    +0.000 A 
ATOM     21  C   UNL     1       1.336   8.485  20.098  0.00  0.00    +0.000 A 
ATOM     22  C   UNL     1       1.907   8.482  18.828  0.00  0.00    +0.000 A 
ATOM     23 CL   UNL     1       2.601   7.045  18.193  0.00  0.00    +0.000 Cl
ATOM     24  C   UNL     1       1.901   9.641  18.061  0.00  0.00    +0.000 A 
ATOM     25  C   UNL     1       1.347  10.816  18.581  0.00  0.00    +0.000 A 
ENDBRANCH  16  19
BRANCH   1  26
ATOM     26  C   UNL     1      -1.994  11.796  18.408  0.00  0.00    +0.000 C 
ATOM     27  O   UNL     1      -1.391  12.565  17.667  0.00  0.00    +0.000 OA
BRANCH  26  28
ATOM     28  O   UNL     1      -2.700  10.715  17.989  0.00  0.00    +0.000 OA
BRANCH  28  30
ATOM     29  C   UNL     1      -2.796   9.924  15.701  0.00  0.00    +0.000 C 
ATOM     30  C   UNL     1      -2.036   9.891  17.017  0.00  0.00    +0.000 C 
ENDBRANCH  28  30
ENDBRANCH  26  28
ENDBRANCH   1  26
TORSDOF 4
ENDMDL
MODEL 2
REMARK VINA RESULT:      -6.3      0.908      1.079
REMARK  Name = 
REMARK  6 active torsions:
REMARK  status: ('A' for Active; 'I' for Inactive)
REMARK    1  A    between atoms: C_1  and  C_2
REMARK    2  A    between atoms: C_2  and  O_3
REMARK    3  A    between atoms: O_3  and  C_4
REMARK    4  A    between atoms: C_4  and  C_6
REMARK    5  A    between atoms: C_16  and  C_17
REMARK    6  A    between atoms: C_21  and  C_23
REMARK                            x       y       z     vdW  Elec       q    Type
REMARK                         _______ _______ _______ _____ _____    ______ ____
ROOT
ATOM      1  C   UNL     1      -1.987  11.583  19.432  0.00  0.00    +0.000 C 
ATOM      2  C   UNL     1      -3.383  12.157  19.645  0.00  0.00    +0.000 C 
ATOM      3  S   UNL     1      -3.236  13.567  20.731  0.00  0.00    +0.000 S 
ATOM      4  C   UNL     1      -1.515  13.167  21.273  0.00  0.00    +0.000 C 
ATOM      5  C   UNL     1      -1.575  12.871  22.820  0.00  0.00    +0.000 C 
ATOM      6  O   UNL     1      -2.067  11.899  23.377  0.00  0.00    +0.000 OA
ATOM      7  N   UNL     1      -0.969  13.954  23.462  0.00  0.00    +0.000 N 
ATOM      8  C   UNL     1      -0.470  14.871  22.544  0.00  0.00    +0.000 A 
ATOM      9  C   UNL     1       0.163  16.065  22.821  0.00  0.00    +0.000 A 
ATOM     10  C   UNL     1       0.537  16.865  21.737  0.00  0.00    +0.000 A 
ATOM     11  C   UNL     1       0.284  16.463  20.407  0.00  0.00    +0.000 A 
ATOM     12  C   UNL     1       0.659  17.342  19.249  0.00  0.00    +0.000 C 
ATOM     13  C   UNL     1      -0.350  15.238  20.157  0.00  0.00    +0.000 A 
ATOM     14  C   UNL     1      -0.723  14.450  21.235  0.00  0.00    +0.000 A 
ATOM     15  N   UNL     1      -1.038  12.048  20.463  0.00  0.00    +0.000 N 
ATOM     16  C   UNL     1       0.226  11.507  20.747  0.00  0.00    +0.000 C 
ATOM     17  O   UNL     1       0.923  11.950  21.666  0.00  0.00    +0.000 OA
ATOM     18  H   UNL     1      -0.873  14.012  24.465  0.00  0.00    +0.000 HD
ENDROOT
BRANCH  16  19
ATOM     19  C   UNL     1       0.836  10.430  19.911  0.00  0.00    +0.000 A 
ATOM     20  C   UNL     1       0.927   9.143  20.465  0.00  0.00    +0.000 A 
ATOM     21  C   UNL     1       1.594   8.114  19.784  0.00  0.00    +0.000 A 
ATOM     22  C   UNL     1       2.192   8.375  18.555  0.00  0.00    +0.000 A 
ATOM     23 CL   UNL     1       3.104   7.156  17.758  0.00  0.00    +0.000 Cl
ATOM     24  C   UNL     1       2.037   9.619  17.957  0.00  0.00    +0.000 A 
ATOM     25  C   UNL     1       1.306  10.618  18.609  0.00  0.00    +0.000 A 
ENDBRANCH  16  19
BRANCH   1  26
ATOM     26  C   UNL     1      -1.597  11.793  17.966  0.00  0.00    +0.000 C 
ATOM     27  O   UNL     1      -0.961  12.773  17.594  0.00  0.00    +0.000 OA
BRANCH  26  28
ATOM     28  O   UNL     1      -1.992  10.776  17.157  0.00  0.00    +0.000 OA
BRANCH  28  30
ATOM     29  C   UNL     1      -2.833  10.091  14.991  0.00  0.00    +0.000 C 
ATOM     30  C   UNL     1      -2.854  11.157  16.073  0.00  0.00    +0.000 C 
ENDBRANCH  28  30
ENDBRANCH  26  28
ENDBRANCH   1  26
TORSDOF 4
ENDMDL
MODEL 3
REMARK VINA RESULT:      -6.1      3.633      6.012
REMARK  Name = 
REMARK  6 active torsions:
REMARK  status: ('A' for Active; 'I' for Inactive)
REMARK    1  A    between atoms: C_1  and  C_2
REMARK    2  A    between atoms: C_2  and  O_3
REMARK    3  A    between atoms: O_3  and  C_4
REMARK    4  A    between atoms: C_4  and  C_6
REMARK    5  A    between atoms: C_16  and  C_17
REMARK    6  A    between atoms: C_21  and  C_23
REMARK                            x       y       z     vdW  Elec       q    Type
REMARK                         _______ _______ _______ _____ _____    ______ ____
ROOT
ATOM      1  C   UNL     1      -1.422  11.064  21.783  0.00  0.00    +0.000 C 
ATOM      2  C   UNL     1      -0.455   9.962  22.199  0.00  0.00    +0.000 C 
ATOM      3  S   UNL     1       1.092  10.243  21.353  0.00  0.00    +0.000 S 
ATOM      4  C   UNL     1       0.393  11.457  20.148  0.00  0.00    +0.000 C 
ATOM      5  C   UNL     1       0.534  10.819  18.714  0.00  0.00    +0.000 C 
ATOM      6  O   UNL     1      -0.088   9.872  18.252  0.00  0.00    +0.000 OA
ATOM      7  N   UNL     1       1.539  11.532  18.053  0.00  0.00    +0.000 N 
ATOM      8  C   UNL     1       2.015  12.577  18.836  0.00  0.00    +0.000 A 
ATOM      9  C   UNL     1       3.020  13.465  18.514  0.00  0.00    +0.000 A 
ATOM     10  C   UNL     1       3.380  14.412  19.478  0.00  0.00    +0.000 A 
ATOM     11  C   UNL     1       2.732  14.463  20.732  0.00  0.00    +0.000 A 
ATOM     12  C   UNL     1       3.145  15.461  21.775  0.00  0.00    +0.000 C 
ATOM     13  C   UNL     1       1.705  13.555  21.026  0.00  0.00    +0.000 A 
ATOM     14  C   UNL     1       1.355  12.616  20.068  0.00  0.00    +0.000 A 
ATOM     15  N   UNL     1      -0.984  11.743  20.548  0.00  0.00    +0.000 N 
ATOM     16  C   UNL     1      -1.757  12.584  19.731  0.00  0.00    +0.000 C 
ATOM     17  O   UNL     1      -1.299  13.069  18.691  0.00  0.00    +0.000 OA
ATOM     18  H   UNL     1       1.826  11.324  17.109  0.00  0.00    +0.000 HD
ENDROOT
BRANCH  16  19
ATOM     19  C   UNL     1      -3.138  13.010  20.110  0.00  0.00    +0.000 A 
ATOM     20  C   UNL     1      -3.283  14.230  20.790  0.00  0.00    +0.000 A 
ATOM     21  C   UNL     1      -4.533  14.635  21.280  0.00  0.00    +0.000 A 
ATOM     22  C   UNL     1      -5.640  13.809  21.111  0.00  0.00    +0.000 A 
ATOM     23 CL   UNL     1      -7.155  14.238  21.798  0.00  0.00    +0.000 Cl
ATOM     24  C   UNL     1      -5.528  12.640  20.368  0.00  0.00    +0.000 A 
ATOM     25  C   UNL     1      -4.293  12.281  19.818  0.00  0.00    +0.000 A 
ENDBRANCH  16  19
BRANCH   1  26
ATOM     26  C   UNL     1      -1.714  11.938  23.006  0.00  0.00    +0.000 C 
ATOM     27  O   UNL     1      -0.942  12.815  23.379  0.00  0.00    +0.000 OA
BRANCH  26  28
ATOM     28  O   UNL     1      -2.910  11.664  23.587  0.00  0.00    +0.000 OA
BRANCH  28  30
ATOM     29  C   UNL     1      -4.993  12.438  24.551  0.00  0.00    +0.000 C 
ATOM     30  C   UNL     1      -3.549  12.780  24.227  0.00  0.00    +0.000 C 
ENDBRANCH  28  30
ENDBRANCH  26  28
ENDBRANCH   1  26
TORSDOF 4
ENDMDL
MODEL 4
REMARK VINA RESULT:      -6.1      9.289     11.680
REMARK  Name = 
REMARK  6 active torsions:
REMARK  status: ('A' for Active; 'I' for Inactive)
REMARK    1  A    between atoms: C_1  and  C_2
REMARK    2  A    between atoms: C_2  and  O_3
REMARK    3  A    between atoms: O_3  and  C_4
REMARK    4  A    between atoms: C_4  and  C_6
REMARK    5  A    between atoms: C_16  and  C_17
REMARK    6  A    between atoms: C_21  and  C_23
REMARK                            x       y       z     vdW  Elec       q    Type
REMARK                         _______ _______ _______ _____ _____    ______ ____
ROOT
ATOM      1  C   UNL     1       7.561  16.268  20.377  0.00  0.00    +0.000 C 
ATOM      2  C   UNL     1       6.562  16.226  19.226  0.00  0.00    +0.000 C 
ATOM      3  S   UNL     1       7.292  15.276  17.902  0.00  0.00    +0.000 S 
ATOM      4  C   UNL     1       9.001  15.318  18.603  0.00  0.00    +0.000 C 
ATOM      5  C   UNL     1       9.900  16.113  17.583  0.00  0.00    +0.000 C 
ATOM      6  O   UNL     1       9.877  17.313  17.343  0.00  0.00    +0.000 OA
ATOM      7  N   UNL     1      10.737  15.178  16.968  0.00  0.00    +0.000 N 
ATOM      8  C   UNL     1      10.546  13.905  17.496  0.00  0.00    +0.000 A 
ATOM      9  C   UNL     1      11.179  12.742  17.111  0.00  0.00    +0.000 A 
ATOM     10  C   UNL     1      10.794  11.556  17.744  0.00  0.00    +0.000 A 
ATOM     11  C   UNL     1       9.800  11.551  18.747  0.00  0.00    +0.000 A 
ATOM     12  C   UNL     1       9.368  10.270  19.400  0.00  0.00    +0.000 C 
ATOM     13  C   UNL     1       9.183  12.752  19.126  0.00  0.00    +0.000 A 
ATOM     14  C   UNL     1       9.566  13.924  18.493  0.00  0.00    +0.000 A 
ATOM     15  N   UNL     1       8.925  15.918  19.935  0.00  0.00    +0.000 N 
ATOM     16  C   UNL     1      10.119  16.133  20.641  0.00  0.00    +0.000 C 
ATOM     17  O   UNL     1      11.215  15.837  20.155  0.00  0.00    +0.000 OA
ATOM     18  H   UNL     1      11.418  15.429  16.268  0.00  0.00    +0.000 HD
ENDROOT
BRANCH  16  19
ATOM     19  C   UNL     1      10.131  16.648  22.043  0.00  0.00    +0.000 A 
ATOM     20  C   UNL     1      10.067  18.037  22.231  0.00  0.00    +0.000 A 
ATOM     21  C   UNL     1      10.193  18.596  23.511  0.00  0.00    +0.000 A 
ATOM     22  C   UNL     1      10.407  17.765  24.608  0.00  0.00    +0.000 A 
ATOM     23 CL   UNL     1      10.671  18.437  26.166  0.00  0.00    +0.000 Cl
ATOM     24  C   UNL     1      10.389  16.385  24.448  0.00  0.00    +0.000 A 
ATOM     25  C   UNL     1      10.186  15.834  23.178  0.00  0.00    +0.000 A 
ENDBRANCH  16  19
BRANCH   1  26
ATOM     26  C   UNL     1       6.975  15.482  21.554  0.00  0.00    +0.000 C 
ATOM     27  O   UNL     1       6.331  16.026  22.444  0.00  0.00    +0.000 OA
BRANCH  26  28
ATOM     28  O   UNL     1       7.211  14.147  21.476  0.00  0.00    +0.000 OA
BRANCH  28  30
ATOM     29  C   UNL     1       8.506  12.522  22.722  0.00  0.00    +0.000 C 
ATOM     30  C   UNL     1       7.320  13.471  22.739  0.00  0.00    +0.000 C 
ENDBRANCH  28  30
ENDBRANCH  26  28
ENDBRANCH   1  26
TORSDOF 4
ENDMDL
MODEL 5
REMARK VINA RESULT:      -5.9      2.327      3.212
REMARK  Name = 
REMARK  6 active torsions:
REMARK  status: ('A' for Active; 'I' for Inactive)
REMARK    1  A    between atoms: C_1  and  C_2
REMARK    2  A    between atoms: C_2  and  O_3
REMARK    3  A    between atoms: O_3  and  C_4
REMARK    4  A    between atoms: C_4  and  C_6
REMARK    5  A    between atoms: C_16  and  C_17
REMARK    6  A    between atoms: C_21  and  C_23
REMARK                            x       y       z     vdW  Elec       q    Type
REMARK                         _______ _______ _______ _____ _____    ______ ____
ROOT
ATOM      1  C   UNL     1      -3.284  12.200  20.747  0.00  0.00    +0.000 C 
ATOM      2  C   UNL     1      -4.717  12.696  20.589  0.00  0.00    +0.000 C 
ATOM      3  S   UNL     1      -4.998  13.959  21.820  0.00  0.00    +0.000 S 
ATOM      4  C   UNL     1      -3.493  13.549  22.811  0.00  0.00    +0.000 C 
ATOM      5  C   UNL     1      -3.989  13.055  24.222  0.00  0.00    +0.000 C 
ATOM      6  O   UNL     1      -4.556  12.004  24.490  0.00  0.00    +0.000 OA
ATOM      7  N   UNL     1      -3.679  14.066  25.136  0.00  0.00    +0.000 N 
ATOM      8  C   UNL     1      -2.995  15.109  24.522  0.00  0.00    +0.000 A 
ATOM      9  C   UNL     1      -2.558  16.277  25.111  0.00  0.00    +0.000 A 
ATOM     10  C   UNL     1      -1.935  17.222  24.289  0.00  0.00    +0.000 A 
ATOM     11  C   UNL     1      -1.752  16.986  22.909  0.00  0.00    +0.000 A 
ATOM     12  C   UNL     1      -1.112  18.017  22.027  0.00  0.00    +0.000 C 
ATOM     13  C   UNL     1      -2.196  15.783  22.341  0.00  0.00    +0.000 A 
ATOM     14  C   UNL     1      -2.816  14.851  23.159  0.00  0.00    +0.000 A 
ATOM     15  N   UNL     1      -2.719  12.559  22.063  0.00  0.00    +0.000 N 
ATOM     16  C   UNL     1      -1.563  12.027  22.655  0.00  0.00    +0.000 C 
ATOM     17  O   UNL     1      -1.203  12.371  23.786  0.00  0.00    +0.000 OA
ATOM     18  H   UNL     1      -3.890  13.998  26.120  0.00  0.00    +0.000 HD
ENDROOT
BRANCH  16  19
ATOM     19  C   UNL     1      -0.658  11.087  21.928  0.00  0.00    +0.000 A 
ATOM     20  C   UNL     1       0.309  11.639  21.073  0.00  0.00    +0.000 A 
ATOM     21  C   UNL     1       1.112  10.816  20.269  0.00  0.00    +0.000 A 
ATOM     22  C   UNL     1       0.934   9.436  20.304  0.00  0.00    +0.000 A 
ATOM     23 CL   UNL     1       1.833   8.420  19.249  0.00  0.00    +0.000 Cl
ATOM     24  C   UNL     1       0.041   8.872  21.206  0.00  0.00    +0.000 A 
ATOM     25  C   UNL     1      -0.702   9.697  22.058  0.00  0.00    +0.000 A 
ENDBRANCH  16  19
BRANCH   1  26
ATOM     26  C   UNL     1      -2.491  12.609  19.502  0.00  0.00    +0.000 C 
ATOM     27  O   UNL     1      -1.702  13.547  19.511  0.00  0.00    +0.000 OA
BRANCH  26  28
ATOM     28  O   UNL     1      -2.728  11.808  18.431  0.00  0.00    +0.000 OA
BRANCH  28  30
ATOM     29  C   UNL     1      -1.347  10.093  17.421  0.00  0.00    +0.000 C 
ATOM     30  C   UNL     1      -2.274  10.452  18.570  0.00  0.00    +0.000 C 
ENDBRANCH  28  30
ENDBRANCH  26  28
ENDBRANCH   1  26
TORSDOF 4
ENDMDL
MODEL 6
REMARK VINA RESULT:      -5.9      3.066      5.694
REMARK  Name = 
REMARK  6 active torsions:
REMARK  status: ('A' for Active; 'I' for Inactive)
REMARK    1  A    between atoms: C_1  and  C_2
REMARK    2  A    between atoms: C_2  and  O_3
REMARK    3  A    between atoms: O_3  and  C_4
REMARK    4  A    between atoms: C_4  and  C_6
REMARK    5  A    between atoms: C_16  and  C_17
REMARK    6  A    between atoms: C_21  and  C_23
REMARK                            x       y       z     vdW  Elec       q    Type
REMARK                         _______ _______ _______ _____ _____    ______ ____
ROOT
ATOM      1  C   UNL     1       0.052  13.434  20.570  0.00  0.00    +0.000 C 
ATOM      2  C   UNL     1       0.337  12.111  21.271  0.00  0.00    +0.000 C 
ATOM      3  S   UNL     1      -1.041  11.755  22.350  0.00  0.00    +0.000 S 
ATOM      4  C   UNL     1      -1.749  13.460  22.266  0.00  0.00    +0.000 C 
ATOM      5  C   UNL     1      -1.676  14.063  23.720  0.00  0.00    +0.000 C 
ATOM      6  O   UNL     1      -0.677  14.415  24.335  0.00  0.00    +0.000 OA
ATOM      7  N   UNL     1      -2.985  14.105  24.207  0.00  0.00    +0.000 N 
ATOM      8  C   UNL     1      -3.895  13.676  23.246  0.00  0.00    +0.000 A 
ATOM      9  C   UNL     1      -5.262  13.563  23.388  0.00  0.00    +0.000 A 
ATOM     10  C   UNL     1      -5.984  13.055  22.304  0.00  0.00    +0.000 A 
ATOM     11  C   UNL     1      -5.340  12.680  21.104  0.00  0.00    +0.000 A 
ATOM     12  C   UNL     1      -6.117  12.105  19.956  0.00  0.00    +0.000 C 
ATOM     13  C   UNL     1      -3.949  12.819  20.986  0.00  0.00    +0.000 A 
ATOM     14  C   UNL     1      -3.237  13.319  22.065  0.00  0.00    +0.000 A 
ATOM     15  N   UNL     1      -0.995  14.211  21.264  0.00  0.00    +0.000 N 
ATOM     16  C   UNL     1      -1.298  15.569  21.077  0.00  0.00    +0.000 C 
ATOM     17  O   UNL     1      -2.171  16.131  21.746  0.00  0.00    +0.000 OA
ATOM     18  H   UNL     1      -3.218  14.455  25.124  0.00  0.00    +0.000 HD
ENDROOT
BRANCH  16  19
ATOM     19  C   UNL     1      -0.649  16.388  20.009  0.00  0.00    +0.000 A 
ATOM     20  C   UNL     1      -1.477  16.969  19.037  0.00  0.00    +0.000 A 
ATOM     21  C   UNL     1      -0.928  17.651  17.940  0.00  0.00    +0.000 A 
ATOM     22  C   UNL     1       0.454  17.734  17.802  0.00  0.00    +0.000 A 
ATOM     23 CL   UNL     1       1.144  18.471  16.412  0.00  0.00    +0.000 Cl
ATOM     24  C   UNL     1       1.283  17.237  18.800  0.00  0.00    +0.000 A 
ATOM     25  C   UNL     1       0.725  16.626  19.928  0.00  0.00    +0.000 A 
ENDBRANCH  16  19
BRANCH   1  26
ATOM     26  C   UNL     1      -0.146  13.157  19.077  0.00  0.00    +0.000 C 
ATOM     27  O   UNL     1       0.783  13.198  18.278  0.00  0.00    +0.000 OA
BRANCH  26  28
ATOM     28  O   UNL     1      -1.425  12.832  18.758  0.00  0.00    +0.000 OA
BRANCH  28  30
ATOM     29  C   UNL     1      -3.026  11.369  17.678  0.00  0.00    +0.000 C 
ATOM     30  C   UNL     1      -1.594  11.538  18.156  0.00  0.00    +0.000 C 
ENDBRANCH  28  30
ENDBRANCH  26  28
ENDBRANCH   1  26
TORSDOF 4
ENDMDL
MODEL 7
REMARK VINA RESULT:      -5.9      2.588      5.010
REMARK  Name = 
REMARK  6 active torsions:
REMARK  status: ('A' for Active; 'I' for Inactive)
REMARK    1  A    between atoms: C_1  and  C_2
REMARK    2  A    between atoms: C_2  and  O_3
REMARK    3  A    between atoms: O_3  and  C_4
REMARK    4  A    between atoms: C_4  and  C_6
REMARK    5  A    between atoms: C_16  and  C_17
REMARK    6  A    between atoms: C_21  and  C_23
REMARK                            x       y       z     vdW  Elec       q    Type
REMARK                         _______ _______ _______ _____ _____    ______ ____
ROOT
ATOM      1  C   UNL     1      -1.079  13.158  22.505  0.00  0.00    +0.000 C 
ATOM      2  C   UNL     1      -1.270  14.096  23.692  0.00  0.00    +0.000 C 
ATOM      3  S   UNL     1      -2.771  15.023  23.420  0.00  0.00    +0.000 S 
ATOM      4  C   UNL     1      -2.915  14.570  21.635  0.00  0.00    +0.000 C 
ATOM      5  C   UNL     1      -2.776  15.903  20.806  0.00  0.00    +0.000 C 
ATOM      6  O   UNL     1      -1.770  16.581  20.642  0.00  0.00    +0.000 OA
ATOM      7  N   UNL     1      -4.044  16.196  20.297  0.00  0.00    +0.000 N 
ATOM      8  C   UNL     1      -4.962  15.204  20.627  0.00  0.00    +0.000 A 
ATOM      9  C   UNL     1      -6.305  15.177  20.314  0.00  0.00    +0.000 A 
ATOM     10  C   UNL     1      -7.060  14.103  20.795  0.00  0.00    +0.000 A 
ATOM     11  C   UNL     1      -6.467  13.078  21.565  0.00  0.00    +0.000 A 
ATOM     12  C   UNL     1      -7.289  11.945  22.106  0.00  0.00    +0.000 C 
ATOM     13  C   UNL     1      -5.096  13.126  21.856  0.00  0.00    +0.000 A 
ATOM     14  C   UNL     1      -4.354  14.196  21.380  0.00  0.00    +0.000 A 
ATOM     15  N   UNL     1      -1.890  13.569  21.342  0.00  0.00    +0.000 N 
ATOM     16  C   UNL     1      -1.746  13.125  20.018  0.00  0.00    +0.000 C 
ATOM     17  O   UNL     1      -2.456  13.570  19.110  0.00  0.00    +0.000 OA
ATOM     18  H   UNL     1      -4.231  17.004  19.723  0.00  0.00    +0.000 HD
ENDROOT
BRANCH  16  19
ATOM     19  C   UNL     1      -0.795  12.036  19.644  0.00  0.00    +0.000 A 
ATOM     20  C   UNL     1       0.571  12.350  19.589  0.00  0.00    +0.000 A 
ATOM     21  C   UNL     1       1.507  11.411  19.131  0.00  0.00    +0.000 A 
ATOM     22  C   UNL     1       1.074  10.159  18.704  0.00  0.00    +0.000 A 
ATOM     23 CL   UNL     1       2.191   9.035  18.040  0.00  0.00    +0.000 Cl
ATOM     24  C   UNL     1      -0.263   9.805  18.831  0.00  0.00    +0.000 A 
ATOM     25  C   UNL     1      -1.178  10.722  19.361  0.00  0.00    +0.000 A 
ENDBRANCH  16  19
BRANCH   1  26
ATOM     26  C   UNL     1      -1.233  11.716  23.000  0.00  0.00    +0.000 C 
ATOM     27  O   UNL     1      -2.312  11.265  23.368  0.00  0.00    +0.000 OA
BRANCH  26  28
ATOM     28  O   UNL     1      -0.076  11.007  22.947  0.00  0.00    +0.000 OA
BRANCH  28  30
ATOM     29  C   UNL     1       1.066   9.010  22.187  0.00  0.00    +0.000 C 
ATOM     30  C   UNL     1      -0.234   9.599  22.709  0.00  0.00    +0.000 C 
ENDBRANCH  28  30
ENDBRANCH  26  28
ENDBRANCH   1  26
TORSDOF 4
ENDMDL
MODEL 8
REMARK VINA RESULT:      -5.9      2.006      2.685
REMARK  Name = 
REMARK  6 active torsions:
REMARK  status: ('A' for Active; 'I' for Inactive)
REMARK    1  A    between atoms: C_1  and  C_2
REMARK    2  A    between atoms: C_2  and  O_3
REMARK    3  A    between atoms: O_3  and  C_4
REMARK    4  A    between atoms: C_4  and  C_6
REMARK    5  A    between atoms: C_16  and  C_17
REMARK    6  A    between atoms: C_21  and  C_23
REMARK                            x       y       z     vdW  Elec       q    Type
REMARK                         _______ _______ _______ _____ _____    ______ ____
ROOT
ATOM      1  C   UNL     1      -3.069  12.682  20.855  0.00  0.00    +0.000 C 
ATOM      2  C   UNL     1      -4.393  13.343  20.490  0.00  0.00    +0.000 C 
ATOM      3  S   UNL     1      -4.356  15.019  21.104  0.00  0.00    +0.000 S 
ATOM      4  C   UNL     1      -2.891  14.752  22.198  0.00  0.00    +0.000 C 
ATOM      5  C   UNL     1      -3.376  14.967  23.681  0.00  0.00    +0.000 C 
ATOM      6  O   UNL     1      -4.108  14.242  24.342  0.00  0.00    +0.000 OA
ATOM      7  N   UNL     1      -2.826  16.176  24.115  0.00  0.00    +0.000 N 
ATOM      8  C   UNL     1      -2.003  16.734  23.143  0.00  0.00    +0.000 A 
ATOM      9  C   UNL     1      -1.321  17.930  23.218  0.00  0.00    +0.000 A 
ATOM     10  C   UNL     1      -0.590  18.330  22.095  0.00  0.00    +0.000 A 
ATOM     11  C   UNL     1      -0.544  17.533  20.929  0.00  0.00    +0.000 A 
ATOM     12  C   UNL     1       0.216  17.983  19.716  0.00  0.00    +0.000 C 
ATOM     13  C   UNL     1      -1.238  16.316  20.888  0.00  0.00    +0.000 A 
ATOM     14  C   UNL     1      -1.964  15.927  22.002  0.00  0.00    +0.000 A 
ATOM     15  N   UNL     1      -2.363  13.417  21.923  0.00  0.00    +0.000 N 
ATOM     16  C   UNL     1      -1.288  12.950  22.696  0.00  0.00    +0.000 C 
ATOM     17  O   UNL     1      -0.798  13.638  23.598  0.00  0.00    +0.000 OA
ATOM     18  H   UNL     1      -2.981  16.548  25.040  0.00  0.00    +0.000 HD
ENDROOT
BRANCH  16  19
ATOM     19  C   UNL     1      -0.621  11.642  22.422  0.00  0.00    +0.000 A 
ATOM     20  C   UNL     1       0.419  11.622  21.480  0.00  0.00    +0.000 A 
ATOM     21  C   UNL     1       1.009  10.411  21.087  0.00  0.00    +0.000 A 
ATOM     22  C   UNL     1       0.544   9.213  21.620  0.00  0.00    +0.000 A 
ATOM     23 CL   UNL     1       1.181   7.714  21.071  0.00  0.00    +0.000 Cl
ATOM     24  C   UNL     1      -0.426   9.224  22.615  0.00  0.00    +0.000 A 
ATOM     25  C   UNL     1      -0.956  10.442  23.056  0.00  0.00    +0.000 A 
ENDBRANCH  16  19
BRANCH   1  26
ATOM     26  C   UNL     1      -2.298  12.398  19.563  0.00  0.00    +0.000 C 
ATOM     27  O   UNL     1      -1.410  13.141  19.157  0.00  0.00    +0.000 OA
BRANCH  26  28
ATOM     28  O   UNL     1      -2.673  11.242  18.959  0.00  0.00    +0.000 OA
BRANCH  28  30
ATOM     29  C   UNL     1      -1.897   9.943  17.066  0.00  0.00    +0.000 C 
ATOM     30  C   UNL     1      -1.593  10.428  18.474  0.00  0.00    +0.000 C 
ENDBRANCH  28  30
ENDBRANCH  26  28
ENDBRANCH   1  26
TORSDOF 4
ENDMDL
MODEL 9
REMARK VINA RESULT:      -5.8      3.540      5.997
REMARK  Name = 
REMARK  6 active torsions:
REMARK  status: ('A' for Active; 'I' for Inactive)
REMARK    1  A    between atoms: C_1  and  C_2
REMARK    2  A    between atoms: C_2  and  O_3
REMARK    3  A    between atoms: O_3  and  C_4
REMARK    4  A    between atoms: C_4  and  C_6
REMARK    5  A    between atoms: C_16  and  C_17
REMARK    6  A    between atoms: C_21  and  C_23
REMARK                            x       y       z     vdW  Elec       q    Type
REMARK                         _______ _______ _______ _____ _____    ______ ____
ROOT
ATOM      1  C   UNL     1      -1.340  10.992  21.704  0.00  0.00    +0.000 C 
ATOM      2  C   UNL     1      -0.352   9.917  22.142  0.00  0.00    +0.000 C 
ATOM      3  S   UNL     1       1.192  10.214  21.295  0.00  0.00    +0.000 S 
ATOM      4  C   UNL     1       0.472  11.392  20.067  0.00  0.00    +0.000 C 
ATOM      5  C   UNL     1       0.630  10.732  18.645  0.00  0.00    +0.000 C 
ATOM      6  O   UNL     1       0.027   9.765  18.198  0.00  0.00    +0.000 OA
ATOM      7  N   UNL     1       1.622  11.452  17.973  0.00  0.00    +0.000 N 
ATOM      8  C   UNL     1       2.076  12.521  18.739  0.00  0.00    +0.000 A 
ATOM      9  C   UNL     1       3.064  13.423  18.404  0.00  0.00    +0.000 A 
ATOM     10  C   UNL     1       3.402  14.393  19.352  0.00  0.00    +0.000 A 
ATOM     11  C   UNL     1       2.750  14.454  20.603  0.00  0.00    +0.000 A 
ATOM     12  C   UNL     1       3.140  15.478  21.629  0.00  0.00    +0.000 C 
ATOM     13  C   UNL     1       1.740  13.531  20.910  0.00  0.00    +0.000 A 
ATOM     14  C   UNL     1       1.412  12.568  19.968  0.00  0.00    +0.000 A 
ATOM     15  N   UNL     1      -0.912  11.658  20.458  0.00  0.00    +0.000 N 
ATOM     16  C   UNL     1      -1.698  12.470  19.625  0.00  0.00    +0.000 C 
ATOM     17  O   UNL     1      -1.247  12.944  18.578  0.00  0.00    +0.000 OA
ATOM     18  H   UNL     1       1.916  11.234  17.034  0.00  0.00    +0.000 HD
ENDROOT
BRANCH  16  19
ATOM     19  C   UNL     1      -3.088  12.875  19.993  0.00  0.00    +0.000 A 
ATOM     20  C   UNL     1      -3.250  14.050  20.744  0.00  0.00    +0.000 A 
ATOM     21  C   UNL     1      -4.512  14.427  21.226  0.00  0.00    +0.000 A 
ATOM     22  C   UNL     1      -5.616  13.616  20.974  0.00  0.00    +0.000 A 
ATOM     23 CL   UNL     1      -7.148  14.005  21.646  0.00  0.00    +0.000 Cl
ATOM     24  C   UNL     1      -5.485  12.497  20.162  0.00  0.00    +0.000 A 
ATOM     25  C   UNL     1      -4.236  12.170  19.624  0.00  0.00    +0.000 A 
ENDBRANCH  16  19
BRANCH   1  26
ATOM     26  C   UNL     1      -1.652  11.882  22.910  0.00  0.00    +0.000 C 
ATOM     27  O   UNL     1      -2.659  11.727  23.592  0.00  0.00    +0.000 OA
BRANCH  26  28
ATOM     28  O   UNL     1      -0.690  12.810  23.154  0.00  0.00    +0.000 OA
BRANCH  28  30
ATOM     29  C   UNL     1      -0.524  15.219  22.968  0.00  0.00    +0.000 C 
ATOM     30  C   UNL     1      -1.164  14.052  23.700  0.00  0.00    +0.000 C 
ENDBRANCH  28  30
ENDBRANCH  26  28
ENDBRANCH   1  26
TORSDOF 4
ENDMDL
