MODEL 1
REMARK VINA RESULT:      -7.4      0.000      0.000
REMARK  Name = 
REMARK  13 active torsions:
REMARK  status: ('A' for Active; 'I' for Inactive)
REMARK    1  A    between atoms: C_1  and  O_2
REMARK    2  A    between atoms: O_2  and  C_3
REMARK    3  A    between atoms: C_5  and  C_6
REMARK    4  A    between atoms: N_7  and  N_8
REMARK    5  A    between atoms: N_8  and  C_9
REMARK    6  A    between atoms: C_10  and  C_12
REMARK    7  A    between atoms: C_12  and  S_13
REMARK    8  A    between atoms: S_13  and  C_14
REMARK    9  A    between atoms: C_16  and  C_17
REMARK   10  A    between atoms: C_26  and  O_27
REMARK   11  A    between atoms: O_27  and  C_28
REMARK   12  A    between atoms: C_29  and  O_30
REMARK   13  A    between atoms: O_30  and  C_31
REMARK                            x       y       z     vdW  Elec       q    Type
REMARK                         _______ _______ _______ _____ _____    ______ ____
ROOT
ATOM      1  N   UNL     1       1.256   9.107  20.210  0.00  0.00    +0.000 N 
ATOM      2  C   UNL     1       1.115   8.358  21.475  0.00  0.00    +0.000 C 
ATOM      3  C   UNL     1       0.618  10.368  20.148  0.00  0.00    +0.000 C 
ATOM      4  O   UNL     1       0.083  10.800  21.188  0.00  0.00    +0.000 OA
ENDROOT
BRANCH   1   6
ATOM      5  C   UNL     1       2.376   7.236  19.453  0.00  0.00    +0.000 C 
ATOM      6  N   UNL     1       1.797   8.351  19.172  0.00  0.00    +0.000 NA
BRANCH   5   9
ATOM      7  C   UNL     1       3.578   4.281  17.314  0.00  0.00    +0.000 A 
ATOM      8  C   UNL     1       2.792   5.030  18.242  0.00  0.00    +0.000 A 
ATOM      9  C   UNL     1       3.091   6.372  18.493  0.00  0.00    +0.000 A 
ATOM     10  C   UNL     1       4.166   6.983  17.853  0.00  0.00    +0.000 A 
ATOM     11  C   UNL     1       4.948   6.255  16.955  0.00  0.00    +0.000 A 
ATOM     12  C   UNL     1       4.686   4.898  16.688  0.00  0.00    +0.000 A 
BRANCH   7  14
ATOM     13  C   UNL     1       2.336   2.320  17.866  0.00  0.00    +0.000 C 
ATOM     14  O   UNL     1       3.318   2.958  17.053  0.00  0.00    +0.000 OA
ENDBRANCH   7  14
BRANCH  11  15
ATOM     15  O   UNL     1       5.986   7.014  16.457  0.00  0.00    +0.000 OA
ATOM     16  C   UNL     1       7.067   7.280  17.342  0.00  0.00    +0.000 C 
ENDBRANCH  11  15
BRANCH  12  17
ATOM     17  O   UNL     1       5.611   4.302  15.874  0.00  0.00    +0.000 OA
ATOM     18  C   UNL     1       5.499   4.285  14.468  0.00  0.00    +0.000 C 
ENDBRANCH  12  17
ENDBRANCH   5   9
ENDBRANCH   1   6
BRANCH   3  19
ATOM     19  C   UNL     1       0.656  11.363  18.956  0.00  0.00    +0.000 C 
BRANCH  19  20
ATOM     20  S   UNL     1      -0.869  12.260  18.278  0.00  0.00    +0.000 S 
BRANCH  20  21
ATOM     21  C   UNL     1      -2.368  11.164  18.653  0.00  0.00    +0.000 A 
ATOM     22  C   UNL     1      -2.250  10.034  17.853  0.00  0.00    +0.000 A 
ATOM     23  C   UNL     1      -3.123  10.083  16.790  0.00  0.00    +0.000 A 
ATOM     24  C   UNL     1      -2.766  11.033  15.643  0.00  0.00    +0.000 C 
ATOM     25  N   UNL     1      -4.415  10.229  17.066  0.00  0.00    +0.000 NA
ATOM     26  C   UNL     1      -4.701  11.164  17.984  0.00  0.00    +0.000 A 
ATOM     27  C   UNL     1      -5.995  11.642  17.894  0.00  0.00    +0.000 A 
ATOM     28  C   UNL     1      -6.476  12.609  18.760  0.00  0.00    +0.000 A 
ATOM     29  C   UNL     1      -5.640  13.059  19.769  0.00  0.00    +0.000 A 
ATOM     30  C   UNL     1      -4.280  12.650  19.810  0.00  0.00    +0.000 A 
ATOM     31  C   UNL     1      -3.732  11.710  18.857  0.00  0.00    +0.000 A 
ENDBRANCH  20  21
ENDBRANCH  19  20
ENDBRANCH   3  19
TORSDOF 8
ENDMDL
MODEL 2
REMARK VINA RESULT:      -7.4      4.155     10.196
REMARK  Name = 
REMARK  13 active torsions:
REMARK  status: ('A' for Active; 'I' for Inactive)
REMARK    1  A    between atoms: C_1  and  O_2
REMARK    2  A    between atoms: O_2  and  C_3
REMARK    3  A    between atoms: C_5  and  C_6
REMARK    4  A    between atoms: N_7  and  N_8
REMARK    5  A    between atoms: N_8  and  C_9
REMARK    6  A    between atoms: C_10  and  C_12
REMARK    7  A    between atoms: C_12  and  S_13
REMARK    8  A    between atoms: S_13  and  C_14
REMARK    9  A    between atoms: C_16  and  C_17
REMARK   10  A    between atoms: C_26  and  O_27
REMARK   11  A    between atoms: O_27  and  C_28
REMARK   12  A    between atoms: C_29  and  O_30
REMARK   13  A    between atoms: O_30  and  C_31
REMARK                            x       y       z     vdW  Elec       q    Type
REMARK                         _______ _______ _______ _____ _____    ______ ____
ROOT
ATOM      1  N   UNL     1       2.014   4.114  19.917  0.00  0.00    +0.000 N 
ATOM      2  C   UNL     1       1.009   3.515  20.819  0.00  0.00    +0.000 C 
ATOM      3  C   UNL     1       3.186   3.357  19.685  0.00  0.00    +0.000 C 
ATOM      4  O   UNL     1       3.239   2.207  20.165  0.00  0.00    +0.000 OA
ENDROOT
BRANCH   1   6
ATOM      5  C   UNL     1       1.842   6.324  20.560  0.00  0.00    +0.000 C 
ATOM      6  N   UNL     1       1.766   5.451  19.616  0.00  0.00    +0.000 NA
BRANCH   5   9
ATOM      7  C   UNL     1       1.278   9.895  19.263  0.00  0.00    +0.000 A 
ATOM      8  C   UNL     1       1.596   8.503  19.256  0.00  0.00    +0.000 A 
ATOM      9  C   UNL     1       1.506   7.757  20.435  0.00  0.00    +0.000 A 
ATOM     10  C   UNL     1       1.122   8.368  21.625  0.00  0.00    +0.000 A 
ATOM     11  C   UNL     1       0.823   9.731  21.644  0.00  0.00    +0.000 A 
ATOM     12  C   UNL     1       0.916  10.518  20.481  0.00  0.00    +0.000 A 
BRANCH   7  14
ATOM     13  C   UNL     1       2.444  11.589  18.054  0.00  0.00    +0.000 C 
ATOM     14  O   UNL     1       1.366  10.660  18.125  0.00  0.00    +0.000 OA
ENDBRANCH   7  14
BRANCH  11  15
ATOM     15  O   UNL     1       0.506  10.162  22.915  0.00  0.00    +0.000 OA
ATOM     16  C   UNL     1      -0.871  10.156  23.269  0.00  0.00    +0.000 C 
ENDBRANCH  11  15
BRANCH  12  17
ATOM     17  O   UNL     1       0.699  11.852  20.693  0.00  0.00    +0.000 OA
ATOM     18  C   UNL     1      -0.516  12.493  20.373  0.00  0.00    +0.000 C 
ENDBRANCH  12  17
ENDBRANCH   5   9
ENDBRANCH   1   6
BRANCH   3  19
ATOM     19  C   UNL     1       4.362   3.741  18.747  0.00  0.00    +0.000 C 
BRANCH  19  20
ATOM     20  S   UNL     1       4.219   3.849  16.861  0.00  0.00    +0.000 S 
BRANCH  20  21
ATOM     21  C   UNL     1       5.979   3.752  16.166  0.00  0.00    +0.000 A 
ATOM     22  C   UNL     1       6.796   4.456  17.043  0.00  0.00    +0.000 A 
ATOM     23  C   UNL     1       7.145   5.682  16.524  0.00  0.00    +0.000 A 
ATOM     24  C   UNL     1       6.066   6.768  16.529  0.00  0.00    +0.000 C 
ATOM     25  N   UNL     1       7.747   5.695  15.339  0.00  0.00    +0.000 NA
ATOM     26  C   UNL     1       7.192   4.904  14.408  0.00  0.00    +0.000 A 
ATOM     27  C   UNL     1       7.488   5.291  13.114  0.00  0.00    +0.000 A 
ATOM     28  C   UNL     1       7.010   4.594  12.018  0.00  0.00    +0.000 A 
ATOM     29  C   UNL     1       6.260   3.451  12.246  0.00  0.00    +0.000 A 
ATOM     30  C   UNL     1       5.866   3.101  13.565  0.00  0.00    +0.000 A 
ATOM     31  C   UNL     1       6.279   3.871  14.719  0.00  0.00    +0.000 A 
ENDBRANCH  20  21
ENDBRANCH  19  20
ENDBRANCH   3  19
TORSDOF 8
ENDMDL
MODEL 3
REMARK VINA RESULT:      -7.3      1.569      2.191
REMARK  Name = 
REMARK  13 active torsions:
REMARK  status: ('A' for Active; 'I' for Inactive)
REMARK    1  A    between atoms: C_1  and  O_2
REMARK    2  A    between atoms: O_2  and  C_3
REMARK    3  A    between atoms: C_5  and  C_6
REMARK    4  A    between atoms: N_7  and  N_8
REMARK    5  A    between atoms: N_8  and  C_9
REMARK    6  A    between atoms: C_10  and  C_12
REMARK    7  A    between atoms: C_12  and  S_13
REMARK    8  A    between atoms: S_13  and  C_14
REMARK    9  A    between atoms: C_16  and  C_17
REMARK   10  A    between atoms: C_26  and  O_27
REMARK   11  A    between atoms: O_27  and  C_28
REMARK   12  A    between atoms: C_29  and  O_30
REMARK   13  A    between atoms: O_30  and  C_31
REMARK                            x       y       z     vdW  Elec       q    Type
REMARK                         _______ _______ _______ _____ _____    ______ ____
ROOT
ATOM      1  N   UNL     1       0.253   9.967  21.856  0.00  0.00    +0.000 N 
ATOM      2  C   UNL     1      -0.199   9.765  23.247  0.00  0.00    +0.000 C 
ATOM      3  C   UNL     1       0.292  11.302  21.392  0.00  0.00    +0.000 C 
ATOM      4  O   UNL     1       0.050  12.210  22.212  0.00  0.00    +0.000 OA
ENDROOT
BRANCH   1   6
ATOM      5  C   UNL     1       1.456   8.133  21.137  0.00  0.00    +0.000 C 
ATOM      6  N   UNL     1       0.346   8.786  21.122  0.00  0.00    +0.000 NA
BRANCH   5   9
ATOM      7  C   UNL     1       1.789   4.529  19.852  0.00  0.00    +0.000 A 
ATOM      8  C   UNL     1       1.414   5.622  20.691  0.00  0.00    +0.000 A 
ATOM      9  C   UNL     1       1.756   6.930  20.336  0.00  0.00    +0.000 A 
ATOM     10  C   UNL     1       2.478   7.174  19.171  0.00  0.00    +0.000 A 
ATOM     11  C   UNL     1       2.861   6.111  18.353  0.00  0.00    +0.000 A 
ATOM     12  C   UNL     1       2.547   4.780  18.684  0.00  0.00    +0.000 A 
BRANCH   7  14
ATOM     13  C   UNL     1       1.769   2.811  21.506  0.00  0.00    +0.000 C 
ATOM     14  O   UNL     1       1.477   3.231  20.176  0.00  0.00    +0.000 OA
ENDBRANCH   7  14
BRANCH  11  15
ATOM     15  O   UNL     1       3.603   6.545  17.273  0.00  0.00    +0.000 OA
ATOM     16  C   UNL     1       5.003   6.687  17.474  0.00  0.00    +0.000 C 
ENDBRANCH  11  15
BRANCH  12  17
ATOM     17  O   UNL     1       3.091   3.852  17.839  0.00  0.00    +0.000 OA
ATOM     18  C   UNL     1       4.138   2.986  18.219  0.00  0.00    +0.000 C 
ENDBRANCH  12  17
ENDBRANCH   5   9
ENDBRANCH   1   6
BRANCH   3  19
ATOM     19  C   UNL     1       0.772  11.780  19.995  0.00  0.00    +0.000 C 
BRANCH  19  20
ATOM     20  S   UNL     1      -0.250  11.612  18.409  0.00  0.00    +0.000 S 
BRANCH  20  21
ATOM     21  C   UNL     1      -1.941  10.922  18.912  0.00  0.00    +0.000 A 
ATOM     22  C   UNL     1      -2.223   9.875  18.044  0.00  0.00    +0.000 A 
ATOM     23  C   UNL     1      -3.159  10.243  17.104  0.00  0.00    +0.000 A 
ATOM     24  C   UNL     1      -2.683  11.161  15.975  0.00  0.00    +0.000 C 
ATOM     25  N   UNL     1      -4.325  10.700  17.551  0.00  0.00    +0.000 NA
ATOM     26  C   UNL     1      -4.244  11.595  18.546  0.00  0.00    +0.000 A 
ATOM     27  C   UNL     1      -5.361  12.404  18.648  0.00  0.00    +0.000 A 
ATOM     28  C   UNL     1      -5.465  13.385  19.619  0.00  0.00    +0.000 A 
ATOM     29  C   UNL     1      -4.434  13.509  20.536  0.00  0.00    +0.000 A 
ATOM     30  C   UNL     1      -3.240  12.755  20.381  0.00  0.00    +0.000 A 
ATOM     31  C   UNL     1      -3.075  11.788  19.317  0.00  0.00    +0.000 A 
ENDBRANCH  20  21
ENDBRANCH  19  20
ENDBRANCH   3  19
TORSDOF 8
ENDMDL
MODEL 4
REMARK VINA RESULT:      -7.2      1.521      2.908
REMARK  Name = 
REMARK  13 active torsions:
REMARK  status: ('A' for Active; 'I' for Inactive)
REMARK    1  A    between atoms: C_1  and  O_2
REMARK    2  A    between atoms: O_2  and  C_3
REMARK    3  A    between atoms: C_5  and  C_6
REMARK    4  A    between atoms: N_7  and  N_8
REMARK    5  A    between atoms: N_8  and  C_9
REMARK    6  A    between atoms: C_10  and  C_12
REMARK    7  A    between atoms: C_12  and  S_13
REMARK    8  A    between atoms: S_13  and  C_14
REMARK    9  A    between atoms: C_16  and  C_17
REMARK   10  A    between atoms: C_26  and  O_27
REMARK   11  A    between atoms: O_27  and  C_28
REMARK   12  A    between atoms: C_29  and  O_30
REMARK   13  A    between atoms: O_30  and  C_31
REMARK                            x       y       z     vdW  Elec       q    Type
REMARK                         _______ _______ _______ _____ _____    ______ ____
ROOT
ATOM      1  N   UNL     1       0.677   9.657  21.750  0.00  0.00    +0.000 N 
ATOM      2  C   UNL     1       0.138   9.354  23.092  0.00  0.00    +0.000 C 
ATOM      3  C   UNL     1       0.009  10.663  21.013  0.00  0.00    +0.000 C 
ATOM      4  O   UNL     1      -0.906  11.289  21.583  0.00  0.00    +0.000 OA
ENDROOT
BRANCH   1   6
ATOM      5  C   UNL     1       1.248   7.801  20.502  0.00  0.00    +0.000 C 
ATOM      6  N   UNL     1       1.622   8.734  21.307  0.00  0.00    +0.000 NA
BRANCH   5   9
ATOM      7  C   UNL     1       3.623   5.555  18.485  0.00  0.00    +0.000 A 
ATOM      8  C   UNL     1       2.872   6.708  18.866  0.00  0.00    +0.000 A 
ATOM      9  C   UNL     1       2.092   6.687  20.027  0.00  0.00    +0.000 A 
ATOM     10  C   UNL     1       2.029   5.537  20.808  0.00  0.00    +0.000 A 
ATOM     11  C   UNL     1       2.748   4.401  20.436  0.00  0.00    +0.000 A 
ATOM     12  C   UNL     1       3.532   4.380  19.268  0.00  0.00    +0.000 A 
BRANCH   7  14
ATOM     13  C   UNL     1       4.747   6.802  16.791  0.00  0.00    +0.000 C 
ATOM     14  O   UNL     1       4.391   5.539  17.347  0.00  0.00    +0.000 OA
ENDBRANCH   7  14
BRANCH  11  15
ATOM     15  O   UNL     1       2.526   3.353  21.306  0.00  0.00    +0.000 OA
ATOM     16  C   UNL     1       1.232   2.765  21.283  0.00  0.00    +0.000 C 
ENDBRANCH  11  15
BRANCH  12  17
ATOM     17  O   UNL     1       4.080   3.158  18.987  0.00  0.00    +0.000 OA
ATOM     18  C   UNL     1       3.448   2.204  18.162  0.00  0.00    +0.000 C 
ENDBRANCH  12  17
ENDBRANCH   5   9
ENDBRANCH   1   6
BRANCH   3  19
ATOM     19  C   UNL     1       0.405  11.194  19.609  0.00  0.00    +0.000 C 
BRANCH  19  20
ATOM     20  S   UNL     1      -0.826  11.926  18.369  0.00  0.00    +0.000 S 
BRANCH  20  21
ATOM     21  C   UNL     1      -2.478  11.040  18.640  0.00  0.00    +0.000 A 
ATOM     22  C   UNL     1      -2.498   9.954  17.774  0.00  0.00    +0.000 A 
ATOM     23  C   UNL     1      -3.320  10.191  16.695  0.00  0.00    +0.000 A 
ATOM     24  C   UNL     1      -2.794  11.144  15.619  0.00  0.00    +0.000 C 
ATOM     25  N   UNL     1      -4.586  10.506  16.950  0.00  0.00    +0.000 NA
ATOM     26  C   UNL     1      -4.764  11.418  17.918  0.00  0.00    +0.000 A 
ATOM     27  C   UNL     1      -5.972  12.084  17.828  0.00  0.00    +0.000 A 
ATOM     28  C   UNL     1      -6.338  13.058  18.741  0.00  0.00    +0.000 A 
ATOM     29  C   UNL     1      -5.478  13.322  19.795  0.00  0.00    +0.000 A 
ATOM     30  C   UNL     1      -4.193  12.718  19.842  0.00  0.00    +0.000 A 
ATOM     31  C   UNL     1      -3.755  11.765  18.845  0.00  0.00    +0.000 A 
ENDBRANCH  20  21
ENDBRANCH  19  20
ENDBRANCH   3  19
TORSDOF 8
ENDMDL
MODEL 5
REMARK VINA RESULT:      -7.2      4.367     10.023
REMARK  Name = 
REMARK  13 active torsions:
REMARK  status: ('A' for Active; 'I' for Inactive)
REMARK    1  A    between atoms: C_1  and  O_2
REMARK    2  A    between atoms: O_2  and  C_3
REMARK    3  A    between atoms: C_5  and  C_6
REMARK    4  A    between atoms: N_7  and  N_8
REMARK    5  A    between atoms: N_8  and  C_9
REMARK    6  A    between atoms: C_10  and  C_12
REMARK    7  A    between atoms: C_12  and  S_13
REMARK    8  A    between atoms: S_13  and  C_14
REMARK    9  A    between atoms: C_16  and  C_17
REMARK   10  A    between atoms: C_26  and  O_27
REMARK   11  A    between atoms: O_27  and  C_28
REMARK   12  A    between atoms: C_29  and  O_30
REMARK   13  A    between atoms: O_30  and  C_31
REMARK                            x       y       z     vdW  Elec       q    Type
REMARK                         _______ _______ _______ _____ _____    ______ ____
ROOT
ATOM      1  N   UNL     1       1.940   4.153  20.432  0.00  0.00    +0.000 N 
ATOM      2  C   UNL     1       1.430   3.199  21.439  0.00  0.00    +0.000 C 
ATOM      3  C   UNL     1       3.110   3.770  19.736  0.00  0.00    +0.000 C 
ATOM      4  O   UNL     1       3.559   2.625  19.940  0.00  0.00    +0.000 OA
ENDROOT
BRANCH   1   6
ATOM      5  C   UNL     1       2.059   6.443  20.689  0.00  0.00    +0.000 C 
ATOM      6  N   UNL     1       1.327   5.403  20.488  0.00  0.00    +0.000 NA
BRANCH   5   9
ATOM      7  C   UNL     1       0.562   9.670  22.138  0.00  0.00    +0.000 A 
ATOM      8  C   UNL     1       1.050   8.330  22.079  0.00  0.00    +0.000 A 
ATOM      9  C   UNL     1       1.560   7.820  20.881  0.00  0.00    +0.000 A 
ATOM     10  C   UNL     1       1.581   8.609  19.735  0.00  0.00    +0.000 A 
ATOM     11  C   UNL     1       1.092   9.916  19.780  0.00  0.00    +0.000 A 
ATOM     12  C   UNL     1       0.559  10.459  20.963  0.00  0.00    +0.000 A 
BRANCH   7  14
ATOM     13  C   UNL     1      -1.313  10.630  23.258  0.00  0.00    +0.000 C 
ATOM     14  O   UNL     1       0.045  10.199  23.296  0.00  0.00    +0.000 OA
ENDBRANCH   7  14
BRANCH  11  15
ATOM     15  O   UNL     1       1.156  10.523  18.543  0.00  0.00    +0.000 OA
ATOM     16  C   UNL     1       1.871   9.833  17.527  0.00  0.00    +0.000 C 
ENDBRANCH  11  15
BRANCH  12  17
ATOM     17  O   UNL     1       0.021  11.708  20.810  0.00  0.00    +0.000 OA
ATOM     18  C   UNL     1       0.748  12.892  21.055  0.00  0.00    +0.000 C 
ENDBRANCH  12  17
ENDBRANCH   5   9
ENDBRANCH   1   6
BRANCH   3  19
ATOM     19  C   UNL     1       3.813   4.569  18.605  0.00  0.00    +0.000 C 
BRANCH  19  20
ATOM     20  S   UNL     1       3.820   4.042  16.785  0.00  0.00    +0.000 S 
BRANCH  20  21
ATOM     21  C   UNL     1       5.633   3.845  16.273  0.00  0.00    +0.000 A 
ATOM     22  C   UNL     1       6.396   4.495  17.236  0.00  0.00    +0.000 A 
ATOM     23  C   UNL     1       6.867   5.701  16.768  0.00  0.00    +0.000 A 
ATOM     24  C   UNL     1       5.858   6.849  16.674  0.00  0.00    +0.000 C 
ATOM     25  N   UNL     1       7.587   5.684  15.651  0.00  0.00    +0.000 NA
ATOM     26  C   UNL     1       7.086   4.931  14.661  0.00  0.00    +0.000 A 
ATOM     27  C   UNL     1       7.535   5.305  13.408  0.00  0.00    +0.000 A 
ATOM     28  C   UNL     1       7.132   4.642  12.261  0.00  0.00    +0.000 A 
ATOM     29  C   UNL     1       6.297   3.545  12.399  0.00  0.00    +0.000 A 
ATOM     30  C   UNL     1       5.751   3.213  13.667  0.00  0.00    +0.000 A 
ATOM     31  C   UNL     1       6.087   3.952  14.865  0.00  0.00    +0.000 A 
ENDBRANCH  20  21
ENDBRANCH  19  20
ENDBRANCH   3  19
TORSDOF 8
ENDMDL
MODEL 6
REMARK VINA RESULT:      -6.8      4.502      9.999
REMARK  Name = 
REMARK  13 active torsions:
REMARK  status: ('A' for Active; 'I' for Inactive)
REMARK    1  A    between atoms: C_1  and  O_2
REMARK    2  A    between atoms: O_2  and  C_3
REMARK    3  A    between atoms: C_5  and  C_6
REMARK    4  A    between atoms: N_7  and  N_8
REMARK    5  A    between atoms: N_8  and  C_9
REMARK    6  A    between atoms: C_10  and  C_12
REMARK    7  A    between atoms: C_12  and  S_13
REMARK    8  A    between atoms: S_13  and  C_14
REMARK    9  A    between atoms: C_16  and  C_17
REMARK   10  A    between atoms: C_26  and  O_27
REMARK   11  A    between atoms: O_27  and  C_28
REMARK   12  A    between atoms: C_29  and  O_30
REMARK   13  A    between atoms: O_30  and  C_31
REMARK                            x       y       z     vdW  Elec       q    Type
REMARK                         _______ _______ _______ _____ _____    ______ ____
ROOT
ATOM      1  N   UNL     1       0.598  10.385  20.689  0.00  0.00    +0.000 N 
ATOM      2  C   UNL     1      -0.200  10.860  21.839  0.00  0.00    +0.000 C 
ATOM      3  C   UNL     1       1.017   9.035  20.726  0.00  0.00    +0.000 C 
ATOM      4  O   UNL     1       0.597   8.321  21.658  0.00  0.00    +0.000 OA
ENDROOT
BRANCH   1   6
ATOM      5  C   UNL     1       1.268  12.569  20.355  0.00  0.00    +0.000 C 
ATOM      6  N   UNL     1       1.027  11.409  19.848  0.00  0.00    +0.000 NA
BRANCH   5   9
ATOM      7  C   UNL     1       3.020  15.161  18.127  0.00  0.00    +0.000 A 
ATOM      8  C   UNL     1       2.759  13.923  18.790  0.00  0.00    +0.000 A 
ATOM      9  C   UNL     1       1.623  13.783  19.593  0.00  0.00    +0.000 A 
ATOM     10  C   UNL     1       0.749  14.851  19.765  0.00  0.00    +0.000 A 
ATOM     11  C   UNL     1       1.003  16.069  19.133  0.00  0.00    +0.000 A 
ATOM     12  C   UNL     1       2.143  16.253  18.328  0.00  0.00    +0.000 A 
BRANCH   7  14
ATOM     13  C   UNL     1       5.369  14.854  17.854  0.00  0.00    +0.000 C 
ATOM     14  O   UNL     1       4.131  15.336  17.339  0.00  0.00    +0.000 OA
ENDBRANCH   7  14
BRANCH  11  15
ATOM     15  O   UNL     1       0.054  17.016  19.456  0.00  0.00    +0.000 OA
ATOM     16  C   UNL     1      -1.227  16.533  19.840  0.00  0.00    +0.000 C 
ENDBRANCH  11  15
BRANCH  12  17
ATOM     17  O   UNL     1       2.304  17.534  17.874  0.00  0.00    +0.000 OA
ATOM     18  C   UNL     1       1.631  18.037  16.741  0.00  0.00    +0.000 C 
ENDBRANCH  12  17
ENDBRANCH   5   9
ENDBRANCH   1   6
BRANCH   3  19
ATOM     19  C   UNL     1       1.818   8.288  19.625  0.00  0.00    +0.000 C 
BRANCH  19  20
ATOM     20  S   UNL     1       2.441   6.507  19.795  0.00  0.00    +0.000 S 
BRANCH  20  21
ATOM     21  C   UNL     1       2.632   5.818  18.040  0.00  0.00    +0.000 A 
ATOM     22  C   UNL     1       1.738   4.761  17.923  0.00  0.00    +0.000 A 
ATOM     23  C   UNL     1       2.388   3.549  17.982  0.00  0.00    +0.000 A 
ATOM     24  C   UNL     1       2.877   3.091  19.359  0.00  0.00    +0.000 C 
ATOM     25  N   UNL     1       3.359   3.334  17.100  0.00  0.00    +0.000 NA
ATOM     26  C   UNL     1       4.220   4.350  16.939  0.00  0.00    +0.000 A 
ATOM     27  C   UNL     1       5.447   3.954  16.440  0.00  0.00    +0.000 A 
ATOM     28  C   UNL     1       6.464   4.862  16.202  0.00  0.00    +0.000 A 
ATOM     29  C   UNL     1       6.208   6.205  16.427  0.00  0.00    +0.000 A 
ATOM     30  C   UNL     1       4.989   6.612  17.033  0.00  0.00    +0.000 A 
ATOM     31  C   UNL     1       3.949   5.667  17.375  0.00  0.00    +0.000 A 
ENDBRANCH  20  21
ENDBRANCH  19  20
ENDBRANCH   3  19
TORSDOF 8
ENDMDL
MODEL 7
REMARK VINA RESULT:      -6.8      4.142      5.477
REMARK  Name = 
REMARK  13 active torsions:
REMARK  status: ('A' for Active; 'I' for Inactive)
REMARK    1  A    between atoms: C_1  and  O_2
REMARK    2  A    between atoms: O_2  and  C_3
REMARK    3  A    between atoms: C_5  and  C_6
REMARK    4  A    between atoms: N_7  and  N_8
REMARK    5  A    between atoms: N_8  and  C_9
REMARK    6  A    between atoms: C_10  and  C_12
REMARK    7  A    between atoms: C_12  and  S_13
REMARK    8  A    between atoms: S_13  and  C_14
REMARK    9  A    between atoms: C_16  and  C_17
REMARK   10  A    between atoms: C_26  and  O_27
REMARK   11  A    between atoms: O_27  and  C_28
REMARK   12  A    between atoms: C_29  and  O_30
REMARK   13  A    between atoms: O_30  and  C_31
REMARK                            x       y       z     vdW  Elec       q    Type
REMARK                         _______ _______ _______ _____ _____    ______ ____
ROOT
ATOM      1  N   UNL     1       0.431  10.589  19.142  0.00  0.00    +0.000 N 
ATOM      2  C   UNL     1      -0.577  10.280  18.107  0.00  0.00    +0.000 C 
ATOM      3  C   UNL     1       0.697  11.958  19.377  0.00  0.00    +0.000 C 
ATOM      4  O   UNL     1      -0.007  12.797  18.781  0.00  0.00    +0.000 OA
ENDROOT
BRANCH   1   6
ATOM      5  C   UNL     1       1.597   8.649  18.684  0.00  0.00    +0.000 C 
ATOM      6  N   UNL     1       1.152   9.475  19.567  0.00  0.00    +0.000 NA
BRANCH   5   9
ATOM      7  C   UNL     1       2.721   5.315  20.223  0.00  0.00    +0.000 A 
ATOM      8  C   UNL     1       1.965   6.509  20.023  0.00  0.00    +0.000 A 
ATOM      9  C   UNL     1       2.280   7.372  18.969  0.00  0.00    +0.000 A 
ATOM     10  C   UNL     1       3.343   7.081  18.118  0.00  0.00    +0.000 A 
ATOM     11  C   UNL     1       4.096   5.923  18.315  0.00  0.00    +0.000 A 
ATOM     12  C   UNL     1       3.818   5.038  19.373  0.00  0.00    +0.000 A 
BRANCH   7  14
ATOM     13  C   UNL     1       1.417   3.488  21.030  0.00  0.00    +0.000 C 
ATOM     14  O   UNL     1       2.444   4.450  21.254  0.00  0.00    +0.000 OA
ENDBRANCH   7  14
BRANCH  11  15
ATOM     15  O   UNL     1       5.128   5.829  17.404  0.00  0.00    +0.000 OA
ATOM     16  C   UNL     1       4.979   6.556  16.191  0.00  0.00    +0.000 C 
ENDBRANCH  11  15
BRANCH  12  17
ATOM     17  O   UNL     1       4.717   4.013  19.494  0.00  0.00    +0.000 OA
ATOM     18  C   UNL     1       4.444   2.698  19.064  0.00  0.00    +0.000 C 
ENDBRANCH  12  17
ENDBRANCH   5   9
ENDBRANCH   1   6
BRANCH   3  19
ATOM     19  C   UNL     1       1.671  12.540  20.437  0.00  0.00    +0.000 C 
BRANCH  19  20
ATOM     20  S   UNL     1       2.205  14.356  20.499  0.00  0.00    +0.000 S 
BRANCH  20  21
ATOM     21  C   UNL     1       2.028  15.046  18.744  0.00  0.00    +0.000 A 
ATOM     22  C   UNL     1       3.305  15.091  18.198  0.00  0.00    +0.000 A 
ATOM     23  C   UNL     1       3.789  16.379  18.168  0.00  0.00    +0.000 A 
ATOM     24  C   UNL     1       4.247  16.979  19.500  0.00  0.00    +0.000 C 
ATOM     25  N   UNL     1       3.062  17.289  17.527  0.00  0.00    +0.000 NA
ATOM     26  C   UNL     1       1.748  17.261  17.793  0.00  0.00    +0.000 A 
ATOM     27  C   UNL     1       1.112  18.463  17.541  0.00  0.00    +0.000 A 
ATOM     28  C   UNL     1      -0.246  18.626  17.750  0.00  0.00    +0.000 A 
ATOM     29  C   UNL     1      -0.980  17.529  18.172  0.00  0.00    +0.000 A 
ATOM     30  C   UNL     1      -0.324  16.321  18.529  0.00  0.00    +0.000 A 
ATOM     31  C   UNL     1       1.109  16.159  18.406  0.00  0.00    +0.000 A 
ENDBRANCH  20  21
ENDBRANCH  19  20
ENDBRANCH   3  19
TORSDOF 8
ENDMDL
MODEL 8
REMARK VINA RESULT:      -6.8      2.004      3.287
REMARK  Name = 
REMARK  13 active torsions:
REMARK  status: ('A' for Active; 'I' for Inactive)
REMARK    1  A    between atoms: C_1  and  O_2
REMARK    2  A    between atoms: O_2  and  C_3
REMARK    3  A    between atoms: C_5  and  C_6
REMARK    4  A    between atoms: N_7  and  N_8
REMARK    5  A    between atoms: N_8  and  C_9
REMARK    6  A    between atoms: C_10  and  C_12
REMARK    7  A    between atoms: C_12  and  S_13
REMARK    8  A    between atoms: S_13  and  C_14
REMARK    9  A    between atoms: C_16  and  C_17
REMARK   10  A    between atoms: C_26  and  O_27
REMARK   11  A    between atoms: O_27  and  C_28
REMARK   12  A    between atoms: C_29  and  O_30
REMARK   13  A    between atoms: O_30  and  C_31
REMARK                            x       y       z     vdW  Elec       q    Type
REMARK                         _______ _______ _______ _____ _____    ______ ____
ROOT
ATOM      1  N   UNL     1       1.269   9.997  19.054  0.00  0.00    +0.000 N 
ATOM      2  C   UNL     1       2.105  10.516  17.953  0.00  0.00    +0.000 C 
ATOM      3  C   UNL     1       0.605  10.958  19.851  0.00  0.00    +0.000 C 
ATOM      4  O   UNL     1       0.685  12.154  19.506  0.00  0.00    +0.000 OA
ENDROOT
BRANCH   1   6
ATOM      5  C   UNL     1       2.527   8.069  18.879  0.00  0.00    +0.000 C 
ATOM      6  N   UNL     1       1.448   8.637  19.296  0.00  0.00    +0.000 NA
BRANCH   5   9
ATOM      7  C   UNL     1       2.878   4.418  20.018  0.00  0.00    +0.000 A 
ATOM      8  C   UNL     1       2.508   5.797  20.038  0.00  0.00    +0.000 A 
ATOM      9  C   UNL     1       2.824   6.625  18.957  0.00  0.00    +0.000 A 
ATOM     10  C   UNL     1       3.514   6.116  17.861  0.00  0.00    +0.000 A 
ATOM     11  C   UNL     1       3.892   4.772  17.838  0.00  0.00    +0.000 A 
ATOM     12  C   UNL     1       3.604   3.912  18.914  0.00  0.00    +0.000 A 
BRANCH   7  14
ATOM     13  C   UNL     1       1.312   2.954  21.063  0.00  0.00    +0.000 C 
ATOM     14  O   UNL     1       2.592   3.580  21.068  0.00  0.00    +0.000 OA
ENDBRANCH   7  14
BRANCH  11  15
ATOM     15  O   UNL     1       4.601   4.464  16.696  0.00  0.00    +0.000 OA
ATOM     16  C   UNL     1       5.952   4.902  16.644  0.00  0.00    +0.000 C 
ENDBRANCH  11  15
BRANCH  12  17
ATOM     17  O   UNL     1       4.141   2.659  18.785  0.00  0.00    +0.000 OA
ATOM     18  C   UNL     1       3.411   1.560  18.286  0.00  0.00    +0.000 C 
ENDBRANCH  12  17
ENDBRANCH   5   9
ENDBRANCH   1   6
BRANCH   3  19
ATOM     19  C   UNL     1      -0.363  10.669  21.030  0.00  0.00    +0.000 C 
BRANCH  19  20
ATOM     20  S   UNL     1      -1.381  12.000  21.914  0.00  0.00    +0.000 S 
BRANCH  20  21
ATOM     21  C   UNL     1      -2.374  12.912  20.584  0.00  0.00    +0.000 A 
ATOM     22  C   UNL     1      -2.918  14.038  21.188  0.00  0.00    +0.000 A 
ATOM     23  C   UNL     1      -4.262  13.872  21.435  0.00  0.00    +0.000 A 
ATOM     24  C   UNL     1      -4.644  12.959  22.603  0.00  0.00    +0.000 C 
ATOM     25  N   UNL     1      -5.041  13.575  20.400  0.00  0.00    +0.000 NA
ATOM     26  C   UNL     1      -4.567  12.622  19.583  0.00  0.00    +0.000 A 
ATOM     27  C   UNL     1      -5.552  11.991  18.848  0.00  0.00    +0.000 A 
ATOM     28  C   UNL     1      -5.257  10.983  17.947  0.00  0.00    +0.000 A 
ATOM     29  C   UNL     1      -3.926  10.649  17.753  0.00  0.00    +0.000 A 
ATOM     30  C   UNL     1      -2.915  11.219  18.572  0.00  0.00    +0.000 A 
ATOM     31  C   UNL     1      -3.215  12.208  19.585  0.00  0.00    +0.000 A 
ENDBRANCH  20  21
ENDBRANCH  19  20
ENDBRANCH   3  19
TORSDOF 8
ENDMDL
MODEL 9
REMARK VINA RESULT:      -6.7      2.936      5.428
REMARK  Name = 
REMARK  13 active torsions:
REMARK  status: ('A' for Active; 'I' for Inactive)
REMARK    1  A    between atoms: C_1  and  O_2
REMARK    2  A    between atoms: O_2  and  C_3
REMARK    3  A    between atoms: C_5  and  C_6
REMARK    4  A    between atoms: N_7  and  N_8
REMARK    5  A    between atoms: N_8  and  C_9
REMARK    6  A    between atoms: C_10  and  C_12
REMARK    7  A    between atoms: C_12  and  S_13
REMARK    8  A    between atoms: S_13  and  C_14
REMARK    9  A    between atoms: C_16  and  C_17
REMARK   10  A    between atoms: C_26  and  O_27
REMARK   11  A    between atoms: O_27  and  C_28
REMARK   12  A    between atoms: C_29  and  O_30
REMARK   13  A    between atoms: O_30  and  C_31
REMARK                            x       y       z     vdW  Elec       q    Type
REMARK                         _______ _______ _______ _____ _____    ______ ____
ROOT
ATOM      1  N   UNL     1       1.191   9.072  19.993  0.00  0.00    +0.000 N 
ATOM      2  C   UNL     1       1.157   8.365  21.290  0.00  0.00    +0.000 C 
ATOM      3  C   UNL     1       0.231  10.094  19.806  0.00  0.00    +0.000 C 
ATOM      4  O   UNL     1      -0.493  10.395  20.775  0.00  0.00    +0.000 OA
ENDROOT
BRANCH   1   6
ATOM      5  C   UNL     1       2.363   7.237  19.228  0.00  0.00    +0.000 C 
ATOM      6  N   UNL     1       2.012   8.463  19.047  0.00  0.00    +0.000 NA
BRANCH   5   9
ATOM      7  C   UNL     1       5.345   6.161  17.059  0.00  0.00    +0.000 A 
ATOM      8  C   UNL     1       4.525   6.974  17.899  0.00  0.00    +0.000 A 
ATOM      9  C   UNL     1       3.310   6.480  18.385  0.00  0.00    +0.000 A 
ATOM     10  C   UNL     1       2.885   5.201  18.040  0.00  0.00    +0.000 A 
ATOM     11  C   UNL     1       3.673   4.405  17.208  0.00  0.00    +0.000 A 
ATOM     12  C   UNL     1       4.894   4.872  16.689  0.00  0.00    +0.000 A 
BRANCH   7  14
ATOM     13  C   UNL     1       7.241   7.581  17.339  0.00  0.00    +0.000 C 
ATOM     14  O   UNL     1       6.539   6.618  16.556  0.00  0.00    +0.000 OA
ENDBRANCH   7  14
BRANCH  11  15
ATOM     15  O   UNL     1       3.068   3.193  16.945  0.00  0.00    +0.000 OA
ATOM     16  C   UNL     1       3.154   2.201  17.961  0.00  0.00    +0.000 C 
ENDBRANCH  11  15
BRANCH  12  17
ATOM     17  O   UNL     1       5.487   4.014  15.802  0.00  0.00    +0.000 OA
ATOM     18  C   UNL     1       5.538   4.258  14.414  0.00  0.00    +0.000 C 
ENDBRANCH  12  17
ENDBRANCH   5   9
ENDBRANCH   1   6
BRANCH   3  19
ATOM     19  C   UNL     1       0.090  11.010  18.560  0.00  0.00    +0.000 C 
BRANCH  19  20
ATOM     20  S   UNL     1      -0.350  12.850  18.645  0.00  0.00    +0.000 S 
BRANCH  20  21
ATOM     21  C   UNL     1       0.960  13.684  19.730  0.00  0.00    +0.000 A 
ATOM     22  C   UNL     1       0.290  14.244  20.811  0.00  0.00    +0.000 A 
ATOM     23  C   UNL     1       0.184  15.610  20.678  0.00  0.00    +0.000 A 
ATOM     24  C   UNL     1      -0.841  16.131  19.667  0.00  0.00    +0.000 C 
ATOM     25  N   UNL     1       1.311  16.297  20.523  0.00  0.00    +0.000 NA
ATOM     26  C   UNL     1       2.179  15.781  19.640  0.00  0.00    +0.000 A 
ATOM     27  C   UNL     1       3.063  16.714  19.130  0.00  0.00    +0.000 A 
ATOM     28  C   UNL     1       4.036  16.368  18.208  0.00  0.00    +0.000 A 
ATOM     29  C   UNL     1       4.144  15.037  17.839  0.00  0.00    +0.000 A 
ATOM     30  C   UNL     1       3.181  14.089  18.278  0.00  0.00    +0.000 A 
ATOM     31  C   UNL     1       2.099  14.450  19.169  0.00  0.00    +0.000 A 
ENDBRANCH  20  21
ENDBRANCH  19  20
ENDBRANCH   3  19
TORSDOF 8
ENDMDL
