MODEL 1
REMARK VINA RESULT:      -9.0      0.000      0.000
REMARK  Name = 
REMARK  10 active torsions:
REMARK  status: ('A' for Active; 'I' for Inactive)
REMARK    1  A    between atoms: C_1  and  C_2
REMARK    2  A    between atoms: C_4  and  C_5
REMARK    3  A    between atoms: C_8  and  C_9
REMARK    4  A    between atoms: C_9  and  N_10
REMARK    5  A    between atoms: N_10  and  C_11
REMARK    6  A    between atoms: C_12  and  C_14
REMARK    7  A    between atoms: N_21  and  C_22
REMARK    8  A    between atoms: C_25  and  C_26
REMARK    9  A    between atoms: C_26  and  C_27
REMARK   10  A    between atoms: C_27  and  O_29
REMARK                            x       y       z     vdW  Elec       q    Type
REMARK                         _______ _______ _______ _____ _____    ______ ____
ROOT
ATOM      1  C   UNL     1       2.219   7.317  18.775  0.00  0.00    +0.000 A 
ATOM      2  C   UNL     1       2.798   8.300  17.997  0.00  0.00    +0.000 A 
ATOM      3  C   UNL     1       3.975   7.997  17.300  0.00  0.00    +0.000 A 
ATOM      4  C   UNL     1       4.423   6.678  17.197  0.00  0.00    +0.000 A 
ATOM      5  C   UNL     1       3.418   5.734  17.410  0.00  0.00    +0.000 A 
ATOM      6  C   UNL     1       2.366   6.026  18.300  0.00  0.00    +0.000 A 
ATOM      7  C   UNL     1       3.499   4.364  16.821  0.00  0.00    +0.000 C 
ATOM      8  N   UNL     1       4.578   3.651  17.437  0.00  0.00    +0.000 N 
ATOM      9  C   UNL     1       4.549   3.584  18.904  0.00  0.00    +0.000 C 
ATOM     10  C   UNL     1       5.712   3.893  16.700  0.00  0.00    +0.000 C 
ATOM     11  O   UNL     1       6.026   3.194  15.731  0.00  0.00    +0.000 OA
ATOM     12  C   UNL     1       6.550   5.115  17.016  0.00  0.00    +0.000 C 
ATOM     13  N   UNL     1       5.795   6.413  17.150  0.00  0.00    +0.000 N 
ATOM     14  H   UNL     1       6.305   7.188  16.728  0.00  0.00    +0.000 HD
ENDROOT
BRANCH   1  17
ATOM     15  N   UNL     1       1.410   8.798  20.671  0.00  0.00    +0.000 N 
ATOM     16  C   UNL     1       1.175   8.965  22.092  0.00  0.00    +0.000 C 
ATOM     17  C   UNL     1       1.691   7.503  20.171  0.00  0.00    +0.000 C 
ATOM     18  O   UNL     1       1.677   6.514  20.905  0.00  0.00    +0.000 OA
BRANCH  15  19
ATOM     19  C   UNL     1       1.287  10.022  19.866  0.00  0.00    +0.000 C 
BRANCH  19  27
ATOM     20  C   UNL     1      -4.023  10.435  14.838  0.00  0.00    +0.000 C 
ATOM     21  C   UNL     1      -3.289  10.597  16.139  0.00  0.00    +0.000 A 
ATOM     22  C   UNL     1      -3.844  11.273  17.182  0.00  0.00    +0.000 A 
ATOM     23  C   UNL     1      -3.122  11.416  18.453  0.00  0.00    +0.000 A 
ATOM     24  C   UNL     1      -3.741  12.216  19.553  0.00  0.00    +0.000 C 
ATOM     25  C   UNL     1      -1.923  10.840  18.593  0.00  0.00    +0.000 A 
ATOM     26  N   UNL     1      -1.031  10.815  19.623  0.00  0.00    +0.000 NA
ATOM     27  C   UNL     1      -0.031  10.155  19.105  0.00  0.00    +0.000 A 
ATOM     28  N   UNL     1      -0.176   9.672  17.794  0.00  0.00    +0.000 NA
ATOM     29  C   UNL     1      -1.351  10.107  17.446  0.00  0.00    +0.000 A 
ATOM     30  N   UNL     1      -2.038  10.012  16.270  0.00  0.00    +0.000 N 
ATOM     31  H   UNL     1      -1.620   9.543  15.477  0.00  0.00    +0.000 HD
ENDBRANCH  19  27
ENDBRANCH  15  19
ENDBRANCH   1  17
BRANCH  12  32
ATOM     32  C   UNL     1       7.569   4.727  18.095  0.00  0.00    +0.000 C 
BRANCH  32  33
ATOM     33  C   UNL     1       7.903   5.822  19.123  0.00  0.00    +0.000 C 
ATOM     34  O   UNL     1       8.169   6.968  18.772  0.00  0.00    +0.000 OA
BRANCH  33  35
ATOM     35  O   UNL     1       8.006   5.486  20.423  0.00  0.00    +0.000 OA
ATOM     36  H   UNL     1       7.251   5.647  21.034  0.00  0.00    +0.000 HD
ENDBRANCH  33  35
ENDBRANCH  32  33
ENDBRANCH  12  32
TORSDOF 6
ENDMDL
MODEL 2
REMARK VINA RESULT:      -8.9      0.745      1.720
REMARK  Name = 
REMARK  10 active torsions:
REMARK  status: ('A' for Active; 'I' for Inactive)
REMARK    1  A    between atoms: C_1  and  C_2
REMARK    2  A    between atoms: C_4  and  C_5
REMARK    3  A    between atoms: C_8  and  C_9
REMARK    4  A    between atoms: C_9  and  N_10
REMARK    5  A    between atoms: N_10  and  C_11
REMARK    6  A    between atoms: C_12  and  C_14
REMARK    7  A    between atoms: N_21  and  C_22
REMARK    8  A    between atoms: C_25  and  C_26
REMARK    9  A    between atoms: C_26  and  C_27
REMARK   10  A    between atoms: C_27  and  O_29
REMARK                            x       y       z     vdW  Elec       q    Type
REMARK                         _______ _______ _______ _____ _____    ______ ____
ROOT
ATOM      1  C   UNL     1       2.173   7.311  18.754  0.00  0.00    +0.000 A 
ATOM      2  C   UNL     1       2.725   8.275  17.934  0.00  0.00    +0.000 A 
ATOM      3  C   UNL     1       3.898   7.968  17.233  0.00  0.00    +0.000 A 
ATOM      4  C   UNL     1       4.367   6.653  17.170  0.00  0.00    +0.000 A 
ATOM      5  C   UNL     1       3.381   5.701  17.429  0.00  0.00    +0.000 A 
ATOM      6  C   UNL     1       2.336   6.007  18.322  0.00  0.00    +0.000 A 
ATOM      7  C   UNL     1       3.479   4.313  16.887  0.00  0.00    +0.000 C 
ATOM      8  N   UNL     1       4.577   3.640  17.513  0.00  0.00    +0.000 N 
ATOM      9  C   UNL     1       4.568   3.625  18.982  0.00  0.00    +0.000 C 
ATOM     10  C   UNL     1       5.697   3.875  16.754  0.00  0.00    +0.000 C 
ATOM     11  O   UNL     1       6.010   3.148  15.805  0.00  0.00    +0.000 OA
ATOM     12  C   UNL     1       6.518   5.121  17.015  0.00  0.00    +0.000 C 
ATOM     13  N   UNL     1       5.743   6.410  17.114  0.00  0.00    +0.000 N 
ATOM     14  H   UNL     1       6.234   7.178  16.658  0.00  0.00    +0.000 HD
ENDROOT
BRANCH   1  17
ATOM     15  N   UNL     1       1.520   8.850  20.664  0.00  0.00    +0.000 N 
ATOM     16  C   UNL     1       1.295   9.024  22.086  0.00  0.00    +0.000 C 
ATOM     17  C   UNL     1       1.660   7.537  20.150  0.00  0.00    +0.000 C 
ATOM     18  O   UNL     1       1.532   6.547  20.870  0.00  0.00    +0.000 OA
BRANCH  15  19
ATOM     19  C   UNL     1       1.538  10.089  19.874  0.00  0.00    +0.000 C 
BRANCH  19  27
ATOM     20  C   UNL     1      -5.268  12.766  19.472  0.00  0.00    +0.000 C 
ATOM     21  C   UNL     1      -4.013  12.025  19.104  0.00  0.00    +0.000 A 
ATOM     22  C   UNL     1      -3.941  11.285  17.963  0.00  0.00    +0.000 A 
ATOM     23  C   UNL     1      -2.705  10.573  17.608  0.00  0.00    +0.000 A 
ATOM     24  C   UNL     1      -2.686   9.724  16.379  0.00  0.00    +0.000 C 
ATOM     25  C   UNL     1      -1.633  10.690  18.398  0.00  0.00    +0.000 A 
ATOM     26  N   UNL     1      -0.384  10.147  18.337  0.00  0.00    +0.000 NA
ATOM     27  C   UNL     1       0.161  10.588  19.439  0.00  0.00    +0.000 A 
ATOM     28  N   UNL     1      -0.602  11.443  20.250  0.00  0.00    +0.000 NA
ATOM     29  C   UNL     1      -1.741  11.506  19.624  0.00  0.00    +0.000 A 
ATOM     30  N   UNL     1      -2.911  12.136  19.938  0.00  0.00    +0.000 N 
ATOM     31  H   UNL     1      -2.988  12.659  20.801  0.00  0.00    +0.000 HD
ENDBRANCH  19  27
ENDBRANCH  15  19
ENDBRANCH   1  17
BRANCH  12  32
ATOM     32  C   UNL     1       7.557   4.788  18.094  0.00  0.00    +0.000 C 
BRANCH  32  33
ATOM     33  C   UNL     1       7.857   5.911  19.102  0.00  0.00    +0.000 C 
ATOM     34  O   UNL     1       8.158   7.041  18.729  0.00  0.00    +0.000 OA
BRANCH  33  35
ATOM     35  O   UNL     1       7.890   5.616  20.415  0.00  0.00    +0.000 OA
ATOM     36  H   UNL     1       7.183   5.057  20.812  0.00  0.00    +0.000 HD
ENDBRANCH  33  35
ENDBRANCH  32  33
ENDBRANCH  12  32
TORSDOF 6
ENDMDL
MODEL 3
REMARK VINA RESULT:      -8.8      2.905      8.675
REMARK  Name = 
REMARK  10 active torsions:
REMARK  status: ('A' for Active; 'I' for Inactive)
REMARK    1  A    between atoms: C_1  and  C_2
REMARK    2  A    between atoms: C_4  and  C_5
REMARK    3  A    between atoms: C_8  and  C_9
REMARK    4  A    between atoms: C_9  and  N_10
REMARK    5  A    between atoms: N_10  and  C_11
REMARK    6  A    between atoms: C_12  and  C_14
REMARK    7  A    between atoms: N_21  and  C_22
REMARK    8  A    between atoms: C_25  and  C_26
REMARK    9  A    between atoms: C_26  and  C_27
REMARK   10  A    between atoms: C_27  and  O_29
REMARK                            x       y       z     vdW  Elec       q    Type
REMARK                         _______ _______ _______ _____ _____    ______ ____
ROOT
ATOM      1  C   UNL     1       2.147   5.805  19.853  0.00  0.00    +0.000 A 
ATOM      2  C   UNL     1       2.774   6.312  18.732  0.00  0.00    +0.000 A 
ATOM      3  C   UNL     1       2.476   7.621  18.332  0.00  0.00    +0.000 A 
ATOM      4  C   UNL     1       1.752   8.474  19.168  0.00  0.00    +0.000 A 
ATOM      5  C   UNL     1       1.786   8.094  20.509  0.00  0.00    +0.000 A 
ATOM      6  C   UNL     1       1.871   6.729  20.843  0.00  0.00    +0.000 A 
ATOM      7  C   UNL     1       1.596   9.091  21.605  0.00  0.00    +0.000 C 
ATOM      8  N   UNL     1       0.251   9.579  21.569  0.00  0.00    +0.000 N 
ATOM      9  C   UNL     1      -0.805   8.559  21.608  0.00  0.00    +0.000 C 
ATOM     10  C   UNL     1       0.228  10.678  20.744  0.00  0.00    +0.000 C 
ATOM     11  O   UNL     1       0.453  11.818  21.165  0.00  0.00    +0.000 OA
ATOM     12  C   UNL     1       0.028  10.479  19.256  0.00  0.00    +0.000 C 
ATOM     13  N   UNL     1       0.895   9.429  18.611  0.00  0.00    +0.000 N 
ATOM     14  H   UNL     1       1.223   9.727  17.693  0.00  0.00    +0.000 HD
ENDROOT
BRANCH   1  17
ATOM     15  N   UNL     1       2.329   3.272  19.860  0.00  0.00    +0.000 N 
ATOM     16  C   UNL     1       1.677   1.989  19.693  0.00  0.00    +0.000 C 
ATOM     17  C   UNL     1       1.530   4.437  19.966  0.00  0.00    +0.000 C 
ATOM     18  O   UNL     1       0.300   4.374  19.985  0.00  0.00    +0.000 OA
BRANCH  15  19
ATOM     19  C   UNL     1       3.796   3.225  19.944  0.00  0.00    +0.000 C 
BRANCH  19  27
ATOM     20  C   UNL     1       6.869   4.319  13.387  0.00  0.00    +0.000 C 
ATOM     21  C   UNL     1       6.566   4.467  14.851  0.00  0.00    +0.000 A 
ATOM     22  C   UNL     1       7.261   5.342  15.630  0.00  0.00    +0.000 A 
ATOM     23  C   UNL     1       6.947   5.487  17.058  0.00  0.00    +0.000 A 
ATOM     24  C   UNL     1       7.772   6.413  17.891  0.00  0.00    +0.000 C 
ATOM     25  C   UNL     1       5.942   4.777  17.582  0.00  0.00    +0.000 A 
ATOM     26  N   UNL     1       5.442   4.691  18.847  0.00  0.00    +0.000 NA
ATOM     27  C   UNL     1       4.523   3.773  18.717  0.00  0.00    +0.000 A 
ATOM     28  N   UNL     1       4.308   3.239  17.436  0.00  0.00    +0.000 NA
ATOM     29  C   UNL     1       5.203   3.843  16.710  0.00  0.00    +0.000 A 
ATOM     30  N   UNL     1       5.534   3.715  15.391  0.00  0.00    +0.000 N 
ATOM     31  H   UNL     1       5.049   3.043  14.811  0.00  0.00    +0.000 HD
ENDBRANCH  19  27
ENDBRANCH  15  19
ENDBRANCH   1  17
BRANCH  12  32
ATOM     32  C   UNL     1      -1.481  10.480  18.975  0.00  0.00    +0.000 C 
BRANCH  32  33
ATOM     33  C   UNL     1      -1.891  10.822  17.532  0.00  0.00    +0.000 C 
ATOM     34  O   UNL     1      -2.165   9.942  16.721  0.00  0.00    +0.000 OA
BRANCH  33  35
ATOM     35  O   UNL     1      -1.848  12.105  17.129  0.00  0.00    +0.000 OA
ATOM     36  H   UNL     1      -1.675  12.318  16.183  0.00  0.00    +0.000 HD
ENDBRANCH  33  35
ENDBRANCH  32  33
ENDBRANCH  12  32
TORSDOF 6
ENDMDL
MODEL 4
REMARK VINA RESULT:      -8.7      0.893      1.108
REMARK  Name = 
REMARK  10 active torsions:
REMARK  status: ('A' for Active; 'I' for Inactive)
REMARK    1  A    between atoms: C_1  and  C_2
REMARK    2  A    between atoms: C_4  and  C_5
REMARK    3  A    between atoms: C_8  and  C_9
REMARK    4  A    between atoms: C_9  and  N_10
REMARK    5  A    between atoms: N_10  and  C_11
REMARK    6  A    between atoms: C_12  and  C_14
REMARK    7  A    between atoms: N_21  and  C_22
REMARK    8  A    between atoms: C_25  and  C_26
REMARK    9  A    between atoms: C_26  and  C_27
REMARK   10  A    between atoms: C_27  and  O_29
REMARK                            x       y       z     vdW  Elec       q    Type
REMARK                         _______ _______ _______ _____ _____    ______ ____
ROOT
ATOM      1  C   UNL     1       2.203   7.242  18.793  0.00  0.00    +0.000 A 
ATOM      2  C   UNL     1       2.715   8.222  17.966  0.00  0.00    +0.000 A 
ATOM      3  C   UNL     1       3.877   7.944  17.236  0.00  0.00    +0.000 A 
ATOM      4  C   UNL     1       4.373   6.640  17.157  0.00  0.00    +0.000 A 
ATOM      5  C   UNL     1       3.415   5.666  17.433  0.00  0.00    +0.000 A 
ATOM      6  C   UNL     1       2.385   5.944  18.352  0.00  0.00    +0.000 A 
ATOM      7  C   UNL     1       3.531   4.282  16.883  0.00  0.00    +0.000 C 
ATOM      8  N   UNL     1       4.658   3.631  17.480  0.00  0.00    +0.000 N 
ATOM      9  C   UNL     1       4.683   3.609  18.949  0.00  0.00    +0.000 C 
ATOM     10  C   UNL     1       5.754   3.894  16.696  0.00  0.00    +0.000 C 
ATOM     11  O   UNL     1       6.062   3.178  15.737  0.00  0.00    +0.000 OA
ATOM     12  C   UNL     1       6.554   5.157  16.945  0.00  0.00    +0.000 C 
ATOM     13  N   UNL     1       5.753   6.427  17.068  0.00  0.00    +0.000 N 
ATOM     14  H   UNL     1       6.216   7.208  16.604  0.00  0.00    +0.000 HD
ENDROOT
BRANCH   1  17
ATOM     15  N   UNL     1       1.449   8.754  20.688  0.00  0.00    +0.000 N 
ATOM     16  C   UNL     1       1.257   8.945  22.112  0.00  0.00    +0.000 C 
ATOM     17  C   UNL     1       1.717   7.451  20.202  0.00  0.00    +0.000 C 
ATOM     18  O   UNL     1       1.727   6.475  20.952  0.00  0.00    +0.000 OA
BRANCH  15  19
ATOM     19  C   UNL     1       1.299   9.964  19.867  0.00  0.00    +0.000 C 
BRANCH  19  27
ATOM     20  C   UNL     1      -5.307  11.699  17.222  0.00  0.00    +0.000 C 
ATOM     21  C   UNL     1      -4.109  11.664  18.128  0.00  0.00    +0.000 A 
ATOM     22  C   UNL     1      -4.049  12.438  19.247  0.00  0.00    +0.000 A 
ATOM     23  C   UNL     1      -2.877  12.386  20.132  0.00  0.00    +0.000 A 
ATOM     24  C   UNL     1      -2.824  13.294  21.318  0.00  0.00    +0.000 C 
ATOM     25  C   UNL     1      -1.881  11.539  19.850  0.00  0.00    +0.000 A 
ATOM     26  N   UNL     1      -0.689  11.289  20.462  0.00  0.00    +0.000 NA
ATOM     27  C   UNL     1      -0.144  10.417  19.656  0.00  0.00    +0.000 A 
ATOM     28  N   UNL     1      -0.892  10.001  18.542  0.00  0.00    +0.000 NA
ATOM     29  C   UNL     1      -1.979  10.709  18.634  0.00  0.00    +0.000 A 
ATOM     30  N   UNL     1      -3.072  10.796  17.819  0.00  0.00    +0.000 N 
ATOM     31  H   UNL     1      -3.112  10.253  16.967  0.00  0.00    +0.000 HD
ENDBRANCH  19  27
ENDBRANCH  15  19
ENDBRANCH   1  17
BRANCH  12  32
ATOM     32  C   UNL     1       7.624   4.842  17.997  0.00  0.00    +0.000 C 
BRANCH  32  33
ATOM     33  C   UNL     1       7.874   5.940  19.046  0.00  0.00    +0.000 C 
ATOM     34  O   UNL     1       8.135   7.093  18.714  0.00  0.00    +0.000 OA
BRANCH  33  35
ATOM     35  O   UNL     1       7.907   5.602  20.348  0.00  0.00    +0.000 OA
ATOM     36  H   UNL     1       7.139   5.140  20.756  0.00  0.00    +0.000 HD
ENDBRANCH  33  35
ENDBRANCH  32  33
ENDBRANCH  12  32
TORSDOF 6
ENDMDL
MODEL 5
REMARK VINA RESULT:      -8.5      1.470      2.077
REMARK  Name = 
REMARK  10 active torsions:
REMARK  status: ('A' for Active; 'I' for Inactive)
REMARK    1  A    between atoms: C_1  and  C_2
REMARK    2  A    between atoms: C_4  and  C_5
REMARK    3  A    between atoms: C_8  and  C_9
REMARK    4  A    between atoms: C_9  and  N_10
REMARK    5  A    between atoms: N_10  and  C_11
REMARK    6  A    between atoms: C_12  and  C_14
REMARK    7  A    between atoms: N_21  and  C_22
REMARK    8  A    between atoms: C_25  and  C_26
REMARK    9  A    between atoms: C_26  and  C_27
REMARK   10  A    between atoms: C_27  and  O_29
REMARK                            x       y       z     vdW  Elec       q    Type
REMARK                         _______ _______ _______ _____ _____    ______ ____
ROOT
ATOM      1  C   UNL     1       1.579   8.276  18.975  0.00  0.00    +0.000 A 
ATOM      2  C   UNL     1       2.346   8.929  18.030  0.00  0.00    +0.000 A 
ATOM      3  C   UNL     1       3.447   8.259  17.481  0.00  0.00    +0.000 A 
ATOM      4  C   UNL     1       3.629   6.891  17.698  0.00  0.00    +0.000 A 
ATOM      5  C   UNL     1       2.457   6.227  18.060  0.00  0.00    +0.000 A 
ATOM      6  C   UNL     1       1.475   6.907  18.806  0.00  0.00    +0.000 A 
ATOM      7  C   UNL     1       2.275   4.769  17.795  0.00  0.00    +0.000 C 
ATOM      8  N   UNL     1       3.187   4.025  18.610  0.00  0.00    +0.000 N 
ATOM      9  C   UNL     1       3.133   4.301  20.052  0.00  0.00    +0.000 C 
ATOM     10  C   UNL     1       4.354   3.875  17.900  0.00  0.00    +0.000 C 
ATOM     11  O   UNL     1       4.533   2.927  17.127  0.00  0.00    +0.000 OA
ATOM     12  C   UNL     1       5.412   4.956  17.981  0.00  0.00    +0.000 C 
ATOM     13  N   UNL     1       4.923   6.368  17.784  0.00  0.00    +0.000 N 
ATOM     14  H   UNL     1       5.579   6.916  17.227  0.00  0.00    +0.000 HD
ENDROOT
BRANCH   1  17
ATOM     15  N   UNL     1       0.843  10.263  20.373  0.00  0.00    +0.000 N 
ATOM     16  C   UNL     1       0.642  10.839  21.688  0.00  0.00    +0.000 C 
ATOM     17  C   UNL     1       1.085   8.871  20.265  0.00  0.00    +0.000 C 
ATOM     18  O   UNL     1       1.064   8.136  21.253  0.00  0.00    +0.000 OA
BRANCH  15  19
ATOM     19  C   UNL     1       0.730  11.205  19.251  0.00  0.00    +0.000 C 
BRANCH  19  27
ATOM     20  C   UNL     1      -6.445  12.298  18.270  0.00  0.00    +0.000 C 
ATOM     21  C   UNL     1      -5.035  11.844  18.020  0.00  0.00    +0.000 A 
ATOM     22  C   UNL     1      -4.715  11.111  16.918  0.00  0.00    +0.000 A 
ATOM     23  C   UNL     1      -3.330  10.683  16.677  0.00  0.00    +0.000 A 
ATOM     24  C   UNL     1      -3.030   9.831  15.488  0.00  0.00    +0.000 C 
ATOM     25  C   UNL     1      -2.373  11.054  17.535  0.00  0.00    +0.000 A 
ATOM     26  N   UNL     1      -1.035  10.800  17.583  0.00  0.00    +0.000 NA
ATOM     27  C   UNL     1      -0.685  11.376  18.701  0.00  0.00    +0.000 A 
ATOM     28  N   UNL     1      -1.677  12.060  19.422  0.00  0.00    +0.000 NA
ATOM     29  C   UNL     1      -2.750  11.854  18.717  0.00  0.00    +0.000 A 
ATOM     30  N   UNL     1      -4.051  12.217  18.923  0.00  0.00    +0.000 N 
ATOM     31  H   UNL     1      -4.306  12.730  19.757  0.00  0.00    +0.000 HD
ENDBRANCH  19  27
ENDBRANCH  15  19
ENDBRANCH   1  17
BRANCH  12  32
ATOM     32  C   UNL     1       6.325   4.639  19.172  0.00  0.00    +0.000 C 
BRANCH  32  33
ATOM     33  C   UNL     1       7.477   5.631  19.413  0.00  0.00    +0.000 C 
ATOM     34  O   UNL     1       7.823   6.430  18.548  0.00  0.00    +0.000 OA
BRANCH  33  35
ATOM     35  O   UNL     1       8.181   5.545  20.557  0.00  0.00    +0.000 OA
ATOM     36  H   UNL     1       8.907   4.884  20.639  0.00  0.00    +0.000 HD
ENDBRANCH  33  35
ENDBRANCH  32  33
ENDBRANCH  12  32
TORSDOF 6
ENDMDL
MODEL 6
REMARK VINA RESULT:      -8.5      2.418      3.490
REMARK  Name = 
REMARK  10 active torsions:
REMARK  status: ('A' for Active; 'I' for Inactive)
REMARK    1  A    between atoms: C_1  and  C_2
REMARK    2  A    between atoms: C_4  and  C_5
REMARK    3  A    between atoms: C_8  and  C_9
REMARK    4  A    between atoms: C_9  and  N_10
REMARK    5  A    between atoms: N_10  and  C_11
REMARK    6  A    between atoms: C_12  and  C_14
REMARK    7  A    between atoms: N_21  and  C_22
REMARK    8  A    between atoms: C_25  and  C_26
REMARK    9  A    between atoms: C_26  and  C_27
REMARK   10  A    between atoms: C_27  and  O_29
REMARK                            x       y       z     vdW  Elec       q    Type
REMARK                         _______ _______ _______ _____ _____    ______ ____
ROOT
ATOM      1  C   UNL     1       2.229   7.319  18.870  0.00  0.00    +0.000 A 
ATOM      2  C   UNL     1       2.712   8.264  17.986  0.00  0.00    +0.000 A 
ATOM      3  C   UNL     1       3.839   7.946  17.216  0.00  0.00    +0.000 A 
ATOM      4  C   UNL     1       4.319   6.636  17.162  0.00  0.00    +0.000 A 
ATOM      5  C   UNL     1       3.365   5.682  17.516  0.00  0.00    +0.000 A 
ATOM      6  C   UNL     1       2.379   6.004  18.469  0.00  0.00    +0.000 A 
ATOM      7  C   UNL     1       3.443   4.279  17.012  0.00  0.00    +0.000 C 
ATOM      8  N   UNL     1       4.590   3.637  17.582  0.00  0.00    +0.000 N 
ATOM      9  C   UNL     1       4.680   3.667  19.048  0.00  0.00    +0.000 C 
ATOM     10  C   UNL     1       5.653   3.860  16.741  0.00  0.00    +0.000 C 
ATOM     11  O   UNL     1       5.910   3.106  15.796  0.00  0.00    +0.000 OA
ATOM     12  C   UNL     1       6.474   5.122  16.908  0.00  0.00    +0.000 C 
ATOM     13  N   UNL     1       5.690   6.405  17.020  0.00  0.00    +0.000 N 
ATOM     14  H   UNL     1       6.140   7.163  16.509  0.00  0.00    +0.000 HD
ENDROOT
BRANCH   1  17
ATOM     15  N   UNL     1       1.046   8.733  20.617  0.00  0.00    +0.000 N 
ATOM     16  C   UNL     1       0.900   9.103  22.010  0.00  0.00    +0.000 C 
ATOM     17  C   UNL     1       1.808   7.584  20.290  0.00  0.00    +0.000 C 
ATOM     18  O   UNL     1       2.291   6.863  21.164  0.00  0.00    +0.000 OA
BRANCH  15  19
ATOM     19  C   UNL     1       0.333   9.591  19.660  0.00  0.00    +0.000 C 
BRANCH  19  27
ATOM     20  C   UNL     1       4.390  15.368  17.708  0.00  0.00    +0.000 C 
ATOM     21  C   UNL     1       3.441  14.503  18.488  0.00  0.00    +0.000 A 
ATOM     22  C   UNL     1       2.895  14.933  19.659  0.00  0.00    +0.000 A 
ATOM     23  C   UNL     1       1.959  14.083  20.407  0.00  0.00    +0.000 A 
ATOM     24  C   UNL     1       1.428  14.567  21.717  0.00  0.00    +0.000 C 
ATOM     25  C   UNL     1       1.615  12.891  19.907  0.00  0.00    +0.000 A 
ATOM     26  N   UNL     1       0.802  11.901  20.372  0.00  0.00    +0.000 NA
ATOM     27  C   UNL     1       0.949  10.975  19.463  0.00  0.00    +0.000 A 
ATOM     28  N   UNL     1       1.774  11.263  18.363  0.00  0.00    +0.000 NA
ATOM     29  C   UNL     1       2.218  12.456  18.632  0.00  0.00    +0.000 A 
ATOM     30  N   UNL     1       3.103  13.261  17.972  0.00  0.00    +0.000 N 
ATOM     31  H   UNL     1       3.542  12.937  17.120  0.00  0.00    +0.000 HD
ENDBRANCH  19  27
ENDBRANCH  15  19
ENDBRANCH   1  17
BRANCH  12  32
ATOM     32  C   UNL     1       7.587   4.834  17.923  0.00  0.00    +0.000 C 
BRANCH  32  33
ATOM     33  C   UNL     1       7.819   5.921  18.987  0.00  0.00    +0.000 C 
ATOM     34  O   UNL     1       8.140   7.064  18.674  0.00  0.00    +0.000 OA
BRANCH  33  35
ATOM     35  O   UNL     1       7.770   5.580  20.288  0.00  0.00    +0.000 OA
ATOM     36  H   UNL     1       6.909   5.580  20.765  0.00  0.00    +0.000 HD
ENDBRANCH  33  35
ENDBRANCH  32  33
ENDBRANCH  12  32
TORSDOF 6
ENDMDL
MODEL 7
REMARK VINA RESULT:      -8.5      2.646      4.510
REMARK  Name = 
REMARK  10 active torsions:
REMARK  status: ('A' for Active; 'I' for Inactive)
REMARK    1  A    between atoms: C_1  and  C_2
REMARK    2  A    between atoms: C_4  and  C_5
REMARK    3  A    between atoms: C_8  and  C_9
REMARK    4  A    between atoms: C_9  and  N_10
REMARK    5  A    between atoms: N_10  and  C_11
REMARK    6  A    between atoms: C_12  and  C_14
REMARK    7  A    between atoms: N_21  and  C_22
REMARK    8  A    between atoms: C_25  and  C_26
REMARK    9  A    between atoms: C_26  and  C_27
REMARK   10  A    between atoms: C_27  and  O_29
REMARK                            x       y       z     vdW  Elec       q    Type
REMARK                         _______ _______ _______ _____ _____    ______ ____
ROOT
ATOM      1  C   UNL     1       2.745   6.996  18.502  0.00  0.00    +0.000 A 
ATOM      2  C   UNL     1       2.145   5.763  18.338  0.00  0.00    +0.000 A 
ATOM      3  C   UNL     1       2.911   4.709  17.822  0.00  0.00    +0.000 A 
ATOM      4  C   UNL     1       4.297   4.829  17.699  0.00  0.00    +0.000 A 
ATOM      5  C   UNL     1       4.842   5.812  18.524  0.00  0.00    +0.000 A 
ATOM      6  C   UNL     1       4.087   6.960  18.830  0.00  0.00    +0.000 A 
ATOM      7  C   UNL     1       6.262   5.744  18.981  0.00  0.00    +0.000 C 
ATOM      8  N   UNL     1       7.129   5.923  17.855  0.00  0.00    +0.000 N 
ATOM      9  C   UNL     1       6.899   7.132  17.054  0.00  0.00    +0.000 C 
ATOM     10  C   UNL     1       7.378   4.683  17.320  0.00  0.00    +0.000 C 
ATOM     11  O   UNL     1       8.313   3.975  17.714  0.00  0.00    +0.000 OA
ATOM     12  C   UNL     1       6.421   4.115  16.292  0.00  0.00    +0.000 C 
ATOM     13  N   UNL     1       4.958   4.184  16.650  0.00  0.00    +0.000 N 
ATOM     14  H   UNL     1       4.465   3.336  16.369  0.00  0.00    +0.000 HD
ENDROOT
BRANCH   1  17
ATOM     15  N   UNL     1       1.346   9.050  19.024  0.00  0.00    +0.000 N 
ATOM     16  C   UNL     1       0.563  10.166  18.532  0.00  0.00    +0.000 C 
ATOM     17  C   UNL     1       2.145   8.319  18.110  0.00  0.00    +0.000 C 
ATOM     18  O   UNL     1       2.235   8.651  16.927  0.00  0.00    +0.000 OA
BRANCH  15  19
ATOM     19  C   UNL     1       1.260   8.811  20.472  0.00  0.00    +0.000 C 
BRANCH  19  27
ATOM     20  C   UNL     1      -3.356  13.101  24.204  0.00  0.00    +0.000 C 
ATOM     21  C   UNL     1      -2.180  12.672  23.373  0.00  0.00    +0.000 A 
ATOM     22  C   UNL     1      -1.284  13.580  22.898  0.00  0.00    +0.000 A 
ATOM     23  C   UNL     1      -0.131  13.148  22.096  0.00  0.00    +0.000 A 
ATOM     24  C   UNL     1       0.796  14.181  21.543  0.00  0.00    +0.000 C 
ATOM     25  C   UNL     1       0.055  11.843  21.869  0.00  0.00    +0.000 A 
ATOM     26  N   UNL     1       1.000  11.160  21.164  0.00  0.00    +0.000 NA
ATOM     27  C   UNL     1       0.580   9.927  21.263  0.00  0.00    +0.000 A 
ATOM     28  N   UNL     1      -0.572   9.689  22.030  0.00  0.00    +0.000 NA
ATOM     29  C   UNL     1      -0.930  10.883  22.404  0.00  0.00    +0.000 A 
ATOM     30  N   UNL     1      -2.004  11.319  23.127  0.00  0.00    +0.000 N 
ATOM     31  H   UNL     1      -2.695  10.657  23.455  0.00  0.00    +0.000 HD
ENDBRANCH  19  27
ENDBRANCH  15  19
ENDBRANCH   1  17
BRANCH  12  32
ATOM     32  C   UNL     1       6.876   4.589  14.906  0.00  0.00    +0.000 C 
BRANCH  32  33
ATOM     33  C   UNL     1       6.123   3.979  13.711  0.00  0.00    +0.000 C 
ATOM     34  O   UNL     1       4.917   4.151  13.561  0.00  0.00    +0.000 OA
BRANCH  33  35
ATOM     35  O   UNL     1       6.785   3.158  12.875  0.00  0.00    +0.000 OA
ATOM     36  H   UNL     1       6.909   3.411  11.932  0.00  0.00    +0.000 HD
ENDBRANCH  33  35
ENDBRANCH  32  33
ENDBRANCH  12  32
TORSDOF 6
ENDMDL
MODEL 8
REMARK VINA RESULT:      -8.4      2.237      3.108
REMARK  Name = 
REMARK  10 active torsions:
REMARK  status: ('A' for Active; 'I' for Inactive)
REMARK    1  A    between atoms: C_1  and  C_2
REMARK    2  A    between atoms: C_4  and  C_5
REMARK    3  A    between atoms: C_8  and  C_9
REMARK    4  A    between atoms: C_9  and  N_10
REMARK    5  A    between atoms: N_10  and  C_11
REMARK    6  A    between atoms: C_12  and  C_14
REMARK    7  A    between atoms: N_21  and  C_22
REMARK    8  A    between atoms: C_25  and  C_26
REMARK    9  A    between atoms: C_26  and  C_27
REMARK   10  A    between atoms: C_27  and  O_29
REMARK                            x       y       z     vdW  Elec       q    Type
REMARK                         _______ _______ _______ _____ _____    ______ ____
ROOT
ATOM      1  C   UNL     1       2.235   7.479  18.763  0.00  0.00    +0.000 A 
ATOM      2  C   UNL     1       2.768   8.376  17.859  0.00  0.00    +0.000 A 
ATOM      3  C   UNL     1       3.902   7.997  17.128  0.00  0.00    +0.000 A 
ATOM      4  C   UNL     1       4.342   6.671  17.132  0.00  0.00    +0.000 A 
ATOM      5  C   UNL     1       3.350   5.760  17.496  0.00  0.00    +0.000 A 
ATOM      6  C   UNL     1       2.353   6.146  18.412  0.00  0.00    +0.000 A 
ATOM      7  C   UNL     1       3.397   4.338  17.043  0.00  0.00    +0.000 C 
ATOM      8  N   UNL     1       4.509   3.683  17.663  0.00  0.00    +0.000 N 
ATOM      9  C   UNL     1       4.566   3.763  19.128  0.00  0.00    +0.000 C 
ATOM     10  C   UNL     1       5.598   3.843  16.841  0.00  0.00    +0.000 C 
ATOM     11  O   UNL     1       5.854   3.049  15.929  0.00  0.00    +0.000 OA
ATOM     12  C   UNL     1       6.454   5.085  16.983  0.00  0.00    +0.000 C 
ATOM     13  N   UNL     1       5.709   6.394  17.031  0.00  0.00    +0.000 N 
ATOM     14  H   UNL     1       6.194   7.120  16.504  0.00  0.00    +0.000 HD
ENDROOT
BRANCH   1  17
ATOM     15  N   UNL     1       0.906   8.887  20.406  0.00  0.00    +0.000 N 
ATOM     16  C   UNL     1       0.722   9.347  21.768  0.00  0.00    +0.000 C 
ATOM     17  C   UNL     1       1.790   7.807  20.163  0.00  0.00    +0.000 C 
ATOM     18  O   UNL     1       2.351   7.214  21.085  0.00  0.00    +0.000 OA
BRANCH  15  19
ATOM     19  C   UNL     1       0.101   9.583  19.393  0.00  0.00    +0.000 C 
BRANCH  19  27
ATOM     20  C   UNL     1      -0.809  16.840  19.006  0.00  0.00    +0.000 C 
ATOM     21  C   UNL     1      -0.141  15.494  18.995  0.00  0.00    +0.000 A 
ATOM     22  C   UNL     1       1.188  15.369  18.728  0.00  0.00    +0.000 A 
ATOM     23  C   UNL     1       1.833  14.049  18.731  0.00  0.00    +0.000 A 
ATOM     24  C   UNL     1       3.280  13.948  18.374  0.00  0.00    +0.000 C 
ATOM     25  C   UNL     1       1.108  12.968  19.040  0.00  0.00    +0.000 A 
ATOM     26  N   UNL     1       1.419  11.643  19.106  0.00  0.00    +0.000 NA
ATOM     27  C   UNL     1       0.263  11.102  19.383  0.00  0.00    +0.000 A 
ATOM     28  N   UNL     1      -0.834  11.961  19.562  0.00  0.00    +0.000 NA
ATOM     29  C   UNL     1      -0.329  13.138  19.332  0.00  0.00    +0.000 A 
ATOM     30  N   UNL     1      -0.904  14.376  19.298  0.00  0.00    +0.000 N 
ATOM     31  H   UNL     1      -1.897  14.477  19.460  0.00  0.00    +0.000 HD
ENDBRANCH  19  27
ENDBRANCH  15  19
ENDBRANCH   1  17
BRANCH  12  32
ATOM     32  C   UNL     1       7.534   4.800  18.035  0.00  0.00    +0.000 C 
BRANCH  32  33
ATOM     33  C   UNL     1       7.805   5.933  19.039  0.00  0.00    +0.000 C 
ATOM     34  O   UNL     1       8.106   7.062  18.663  0.00  0.00    +0.000 OA
BRANCH  33  35
ATOM     35  O   UNL     1       7.812   5.650  20.355  0.00  0.00    +0.000 OA
ATOM     36  H   UNL     1       7.455   6.301  21.001  0.00  0.00    +0.000 HD
ENDBRANCH  33  35
ENDBRANCH  32  33
ENDBRANCH  12  32
TORSDOF 6
ENDMDL
MODEL 9
REMARK VINA RESULT:      -8.3      2.453      3.504
REMARK  Name = 
REMARK  10 active torsions:
REMARK  status: ('A' for Active; 'I' for Inactive)
REMARK    1  A    between atoms: C_1  and  C_2
REMARK    2  A    between atoms: C_4  and  C_5
REMARK    3  A    between atoms: C_8  and  C_9
REMARK    4  A    between atoms: C_9  and  N_10
REMARK    5  A    between atoms: N_10  and  C_11
REMARK    6  A    between atoms: C_12  and  C_14
REMARK    7  A    between atoms: N_21  and  C_22
REMARK    8  A    between atoms: C_25  and  C_26
REMARK    9  A    between atoms: C_26  and  C_27
REMARK   10  A    between atoms: C_27  and  O_29
REMARK                            x       y       z     vdW  Elec       q    Type
REMARK                         _______ _______ _______ _____ _____    ______ ____
ROOT
ATOM      1  C   UNL     1       2.257   7.221  18.858  0.00  0.00    +0.000 A 
ATOM      2  C   UNL     1       2.745   8.205  18.022  0.00  0.00    +0.000 A 
ATOM      3  C   UNL     1       3.884   7.929  17.255  0.00  0.00    +0.000 A 
ATOM      4  C   UNL     1       4.375   6.625  17.152  0.00  0.00    +0.000 A 
ATOM      5  C   UNL     1       3.423   5.651  17.451  0.00  0.00    +0.000 A 
ATOM      6  C   UNL     1       2.423   5.925  18.403  0.00  0.00    +0.000 A 
ATOM      7  C   UNL     1       3.519   4.271  16.889  0.00  0.00    +0.000 C 
ATOM      8  N   UNL     1       4.663   3.614  17.447  0.00  0.00    +0.000 N 
ATOM      9  C   UNL     1       4.734   3.582  18.914  0.00  0.00    +0.000 C 
ATOM     10  C   UNL     1       5.736   3.880  16.631  0.00  0.00    +0.000 C 
ATOM     11  O   UNL     1       6.012   3.169  15.658  0.00  0.00    +0.000 OA
ATOM     12  C   UNL     1       6.545   5.139  16.863  0.00  0.00    +0.000 C 
ATOM     13  N   UNL     1       5.750   6.410  17.019  0.00  0.00    +0.000 N 
ATOM     14  H   UNL     1       6.201   7.193  16.546  0.00  0.00    +0.000 HD
ENDROOT
BRANCH   1  17
ATOM     15  N   UNL     1       1.241   8.649  20.695  0.00  0.00    +0.000 N 
ATOM     16  C   UNL     1       1.088   8.909  22.113  0.00  0.00    +0.000 C 
ATOM     17  C   UNL     1       1.816   7.422  20.282  0.00  0.00    +0.000 C 
ATOM     18  O   UNL     1       2.126   6.551  21.096  0.00  0.00    +0.000 OA
BRANCH  15  19
ATOM     19  C   UNL     1       0.730   9.701  19.804  0.00  0.00    +0.000 C 
BRANCH  19  27
ATOM     20  C   UNL     1       0.192  16.186  23.165  0.00  0.00    +0.000 C 
ATOM     21  C   UNL     1      -0.143  14.792  22.715  0.00  0.00    +0.000 A 
ATOM     22  C   UNL     1      -1.261  14.157  23.163  0.00  0.00    +0.000 A 
ATOM     23  C   UNL     1      -1.585  12.798  22.707  0.00  0.00    +0.000 A 
ATOM     24  C   UNL     1      -2.788  12.113  23.268  0.00  0.00    +0.000 C 
ATOM     25  C   UNL     1      -0.789  12.201  21.813  0.00  0.00    +0.000 A 
ATOM     26  N   UNL     1      -0.824  10.969  21.232  0.00  0.00    +0.000 NA
ATOM     27  C   UNL     1       0.268  10.971  20.517  0.00  0.00    +0.000 A 
ATOM     28  N   UNL     1       1.048  12.139  20.517  0.00  0.00    +0.000 NA
ATOM     29  C   UNL     1       0.411  12.919  21.341  0.00  0.00    +0.000 A 
ATOM     30  N   UNL     1       0.696  14.173  21.801  0.00  0.00    +0.000 N 
ATOM     31  H   UNL     1       1.542  14.641  21.503  0.00  0.00    +0.000 HD
ENDBRANCH  19  27
ENDBRANCH  15  19
ENDBRANCH   1  17
BRANCH  12  32
ATOM     32  C   UNL     1       7.647   4.816  17.880  0.00  0.00    +0.000 C 
BRANCH  32  33
ATOM     33  C   UNL     1       7.785   5.803  19.052  0.00  0.00    +0.000 C 
ATOM     34  O   UNL     1       7.402   5.510  20.182  0.00  0.00    +0.000 OA
BRANCH  33  35
ATOM     35  O   UNL     1       8.238   7.046  18.807  0.00  0.00    +0.000 OA
ATOM     36  H   UNL     1       8.578   7.279  17.913  0.00  0.00    +0.000 HD
ENDBRANCH  33  35
ENDBRANCH  32  33
ENDBRANCH  12  32
TORSDOF 6
ENDMDL
