MODEL 1
REMARK VINA RESULT:      -7.8      0.000      0.000
REMARK  Name = 
REMARK  12 active torsions:
REMARK  status: ('A' for Active; 'I' for Inactive)
REMARK    1  A    between atoms: C_1  and  C_2
REMARK    2  A    between atoms: C_2  and  C_3
REMARK    3  A    between atoms: C_5  and  C_6
REMARK    4  A    between atoms: N_8  and  C_9
REMARK    5  A    between atoms: C_11  and  C_12
REMARK    6  A    between atoms: N_14  and  C_15
REMARK    7  A    between atoms: C_15  and  C_16
REMARK    8  A    between atoms: C_16  and  N_17
REMARK    9  A    between atoms: N_17  and  C_18
REMARK   10  A    between atoms: N_17  and  C_19
REMARK   11  A    between atoms: C_21  and  C_23
REMARK   12  A    between atoms: N_33  and  C_34
REMARK                            x       y       z     vdW  Elec       q    Type
REMARK                         _______ _______ _______ _____ _____    ______ ____
ROOT
ATOM      1  C   UNL     1       2.078   8.239  17.687  0.00  0.00    +0.000 C 
ATOM      2  C   UNL     1       1.411   7.122  18.480  0.00  0.00    +0.000 C 
ATOM      3  C   UNL     1       2.574   6.549  19.310  0.00  0.00    +0.000 C 
ATOM      4  N   UNL     1       3.620   6.485  18.281  0.00  0.00    +0.000 N 
ATOM      5  C   UNL     1       4.853   5.866  18.473  0.00  0.00    +0.000 C 
ATOM      6  O   UNL     1       5.139   5.304  19.530  0.00  0.00    +0.000 OA
ATOM      7  C   UNL     1       3.487   7.681  17.431  0.00  0.00    +0.000 C 
ENDROOT
BRANCH   5   8
ATOM      8  C   UNL     1       5.811   5.936  17.373  0.00  0.00    +0.000 A 
ATOM      9  C   UNL     1       6.980   6.678  17.331  0.00  0.00    +0.000 A 
ATOM     10  O   UNL     1       7.737   6.348  16.258  0.00  0.00    +0.000 OA
ATOM     11  C   UNL     1       7.003   5.478  15.519  0.00  0.00    +0.000 A 
ATOM     12  C   UNL     1       7.429   4.876  14.339  0.00  0.00    +0.000 A 
ATOM     13  C   UNL     1       6.496   4.071  13.682  0.00  0.00    +0.000 A 
ATOM     14  C   UNL     1       5.206   3.902  14.191  0.00  0.00    +0.000 A 
ATOM     15  C   UNL     1       4.824   4.484  15.410  0.00  0.00    +0.000 A 
ATOM     16  C   UNL     1       5.758   5.275  16.105  0.00  0.00    +0.000 A 
ENDBRANCH   5   8
BRANCH   1  19
ATOM     17  C   UNL     1       0.957  10.267  18.612  0.00  0.00    +0.000 C 
ATOM     18  O   UNL     1      -0.083  10.032  18.013  0.00  0.00    +0.000 OA
ATOM     19  N   UNL     1       2.073   9.469  18.456  0.00  0.00    +0.000 N 
ATOM     20  H   UNL     1       2.909   9.706  18.968  0.00  0.00    +0.000 HD
BRANCH  17  23
ATOM     21  C   UNL     1       1.633  13.356  20.442  0.00  0.00    +0.000 A 
ATOM     22  C   UNL     1       1.749  12.614  19.257  0.00  0.00    +0.000 A 
ATOM     23  C   UNL     1       1.163  11.376  19.515  0.00  0.00    +0.000 A 
ATOM     24  N   UNL     1       0.813  11.440  20.847  0.00  0.00    +0.000 N 
ATOM     25  C   UNL     1       0.164  10.453  21.676  0.00  0.00    +0.000 C 
ATOM     26  N   UNL     1       1.071  12.640  21.416  0.00  0.00    +0.000 NA
BRANCH  21  28
ATOM     27  C   UNL     1       1.671  15.629  19.436  0.00  0.00    +0.000 C 
ATOM     28  C   UNL     1       2.024  14.779  20.648  0.00  0.00    +0.000 C 
ENDBRANCH  21  28
ENDBRANCH  17  23
ENDBRANCH   1  19
BRANCH   3  29
ATOM     29  C   UNL     1       2.052   5.362  20.152  0.00  0.00    +0.000 C 
ATOM     30  O   UNL     1       2.418   5.169  21.312  0.00  0.00    +0.000 OA
ATOM     31  N   UNL     1       1.377   4.404  19.434  0.00  0.00    +0.000 N 
ATOM     32  H   UNL     1       0.848   4.718  18.616  0.00  0.00    +0.000 HD
BRANCH  31  33
ATOM     33  C   UNL     1       1.002   3.130  20.017  0.00  0.00    +0.000 C 
BRANCH  33  34
ATOM     34  C   UNL     1       1.958   1.993  19.620  0.00  0.00    +0.000 C 
BRANCH  34  35
ATOM     35  N   UNL     1       3.290   2.447  19.169  0.00  0.00    +0.000 NA
ATOM     36  C   UNL     1       4.351   2.071  20.106  0.00  0.00    +0.000 C 
ATOM     37  C   UNL     1       3.578   1.894  17.845  0.00  0.00    +0.000 C 
ENDBRANCH  34  35
ENDBRANCH  33  34
ENDBRANCH  31  33
ENDBRANCH   3  29
TORSDOF 8
ENDMDL
MODEL 2
REMARK VINA RESULT:      -7.3      0.971      1.442
REMARK  Name = 
REMARK  12 active torsions:
REMARK  status: ('A' for Active; 'I' for Inactive)
REMARK    1  A    between atoms: C_1  and  C_2
REMARK    2  A    between atoms: C_2  and  C_3
REMARK    3  A    between atoms: C_5  and  C_6
REMARK    4  A    between atoms: N_8  and  C_9
REMARK    5  A    between atoms: C_11  and  C_12
REMARK    6  A    between atoms: N_14  and  C_15
REMARK    7  A    between atoms: C_15  and  C_16
REMARK    8  A    between atoms: C_16  and  N_17
REMARK    9  A    between atoms: N_17  and  C_18
REMARK   10  A    between atoms: N_17  and  C_19
REMARK   11  A    between atoms: C_21  and  C_23
REMARK   12  A    between atoms: N_33  and  C_34
REMARK                            x       y       z     vdW  Elec       q    Type
REMARK                         _______ _______ _______ _____ _____    ______ ____
ROOT
ATOM      1  C   UNL     1       1.904   8.060  17.657  0.00  0.00    +0.000 C 
ATOM      2  C   UNL     1       1.294   6.934  18.482  0.00  0.00    +0.000 C 
ATOM      3  C   UNL     1       2.470   6.480  19.366  0.00  0.00    +0.000 C 
ATOM      4  N   UNL     1       3.548   6.447  18.369  0.00  0.00    +0.000 N 
ATOM      5  C   UNL     1       4.815   5.927  18.620  0.00  0.00    +0.000 C 
ATOM      6  O   UNL     1       5.109   5.432  19.708  0.00  0.00    +0.000 OA
ATOM      7  C   UNL     1       3.355   7.594  17.463  0.00  0.00    +0.000 C 
ENDROOT
BRANCH   5   8
ATOM      8  C   UNL     1       5.797   6.019  17.543  0.00  0.00    +0.000 A 
ATOM      9  C   UNL     1       6.957   6.775  17.535  0.00  0.00    +0.000 A 
ATOM     10  O   UNL     1       7.744   6.464  16.477  0.00  0.00    +0.000 OA
ATOM     11  C   UNL     1       7.037   5.591  15.714  0.00  0.00    +0.000 A 
ATOM     12  C   UNL     1       7.498   5.005  14.539  0.00  0.00    +0.000 A 
ATOM     13  C   UNL     1       6.591   4.195  13.854  0.00  0.00    +0.000 A 
ATOM     14  C   UNL     1       5.292   4.005  14.331  0.00  0.00    +0.000 A 
ATOM     15  C   UNL     1       4.874   4.572  15.545  0.00  0.00    +0.000 A 
ATOM     16  C   UNL     1       5.782   5.368  16.268  0.00  0.00    +0.000 A 
ENDBRANCH   5   8
BRANCH   1  19
ATOM     17  C   UNL     1       0.652  10.101  18.360  0.00  0.00    +0.000 C 
ATOM     18  O   UNL     1      -0.305   9.824  17.651  0.00  0.00    +0.000 OA
ATOM     19  N   UNL     1       1.790   9.319  18.371  0.00  0.00    +0.000 N 
ATOM     20  H   UNL     1       2.556   9.590  18.969  0.00  0.00    +0.000 HD
BRANCH  17  23
ATOM     21  C   UNL     1       0.512  12.719  20.905  0.00  0.00    +0.000 A 
ATOM     22  C   UNL     1      -0.011  11.527  20.380  0.00  0.00    +0.000 A 
ATOM     23  C   UNL     1       0.734  11.247  19.236  0.00  0.00    +0.000 A 
ATOM     24  N   UNL     1       1.588  12.324  19.118  0.00  0.00    +0.000 N 
ATOM     25  C   UNL     1       2.601  12.591  18.125  0.00  0.00    +0.000 C 
ATOM     26  N   UNL     1       1.480  13.212  20.133  0.00  0.00    +0.000 NA
BRANCH  21  28
ATOM     27  C   UNL     1      -1.256  12.916  22.642  0.00  0.00    +0.000 C 
ATOM     28  C   UNL     1       0.116  13.383  22.178  0.00  0.00    +0.000 C 
ENDBRANCH  21  28
ENDBRANCH  17  23
ENDBRANCH   1  19
BRANCH   3  29
ATOM     29  C   UNL     1       2.009   5.296  20.246  0.00  0.00    +0.000 C 
ATOM     30  O   UNL     1       2.425   5.128  21.393  0.00  0.00    +0.000 OA
ATOM     31  N   UNL     1       1.325   4.313  19.570  0.00  0.00    +0.000 N 
ATOM     32  H   UNL     1       0.756   4.604  18.771  0.00  0.00    +0.000 HD
BRANCH  31  33
ATOM     33  C   UNL     1       1.001   3.041  20.187  0.00  0.00    +0.000 C 
BRANCH  33  34
ATOM     34  C   UNL     1       2.004   1.934  19.822  0.00  0.00    +0.000 C 
BRANCH  34  35
ATOM     35  N   UNL     1       3.269   2.427  19.238  0.00  0.00    +0.000 NA
ATOM     36  C   UNL     1       4.423   2.140  20.093  0.00  0.00    +0.000 C 
ATOM     37  C   UNL     1       3.470   1.829  17.918  0.00  0.00    +0.000 C 
ENDBRANCH  34  35
ENDBRANCH  33  34
ENDBRANCH  31  33
ENDBRANCH   3  29
TORSDOF 8
ENDMDL
MODEL 3
REMARK VINA RESULT:      -7.3      2.510      8.240
REMARK  Name = 
REMARK  12 active torsions:
REMARK  status: ('A' for Active; 'I' for Inactive)
REMARK    1  A    between atoms: C_1  and  C_2
REMARK    2  A    between atoms: C_2  and  C_3
REMARK    3  A    between atoms: C_5  and  C_6
REMARK    4  A    between atoms: N_8  and  C_9
REMARK    5  A    between atoms: C_11  and  C_12
REMARK    6  A    between atoms: N_14  and  C_15
REMARK    7  A    between atoms: C_15  and  C_16
REMARK    8  A    between atoms: C_16  and  N_17
REMARK    9  A    between atoms: N_17  and  C_18
REMARK   10  A    between atoms: N_17  and  C_19
REMARK   11  A    between atoms: C_21  and  C_23
REMARK   12  A    between atoms: N_33  and  C_34
REMARK                            x       y       z     vdW  Elec       q    Type
REMARK                         _______ _______ _______ _____ _____    ______ ____
ROOT
ATOM      1  C   UNL     1       6.041   6.662  17.170  0.00  0.00    +0.000 C 
ATOM      2  C   UNL     1       6.113   5.591  18.251  0.00  0.00    +0.000 C 
ATOM      3  C   UNL     1       4.640   5.175  18.420  0.00  0.00    +0.000 C 
ATOM      4  N   UNL     1       3.997   6.494  18.436  0.00  0.00    +0.000 N 
ATOM      5  C   UNL     1       2.653   6.692  18.742  0.00  0.00    +0.000 C 
ATOM      6  O   UNL     1       1.912   5.758  19.045  0.00  0.00    +0.000 OA
ATOM      7  C   UNL     1       4.694   7.345  17.456  0.00  0.00    +0.000 C 
ENDROOT
BRANCH   5   8
ATOM      8  C   UNL     1       2.146   8.060  18.660  0.00  0.00    +0.000 A 
ATOM      9  C   UNL     1       2.231   8.916  17.574  0.00  0.00    +0.000 A 
ATOM     10  O   UNL     1       1.474  10.024  17.757  0.00  0.00    +0.000 OA
ATOM     11  C   UNL     1       0.992   9.958  19.025  0.00  0.00    +0.000 A 
ATOM     12  C   UNL     1       0.145  10.896  19.606  0.00  0.00    +0.000 A 
ATOM     13  C   UNL     1      -0.176  10.692  20.949  0.00  0.00    +0.000 A 
ATOM     14  C   UNL     1       0.343   9.605  21.657  0.00  0.00    +0.000 A 
ATOM     15  C   UNL     1       1.155   8.650  21.027  0.00  0.00    +0.000 A 
ATOM     16  C   UNL     1       1.469   8.819  19.666  0.00  0.00    +0.000 A 
ENDBRANCH   5   8
BRANCH   1  19
ATOM     17  C   UNL     1       6.997   5.040  15.533  0.00  0.00    +0.000 C 
ATOM     18  O   UNL     1       7.856   4.669  16.321  0.00  0.00    +0.000 OA
ATOM     19  N   UNL     1       6.113   6.051  15.856  0.00  0.00    +0.000 N 
ATOM     20  H   UNL     1       5.425   6.325  15.172  0.00  0.00    +0.000 HD
BRANCH  17  23
ATOM     21  C   UNL     1       6.064   3.447  12.380  0.00  0.00    +0.000 A 
ATOM     22  C   UNL     1       5.903   3.541  13.771  0.00  0.00    +0.000 A 
ATOM     23  C   UNL     1       6.805   4.511  14.202  0.00  0.00    +0.000 A 
ATOM     24  N   UNL     1       7.489   4.867  13.059  0.00  0.00    +0.000 N 
ATOM     25  C   UNL     1       8.545   5.835  12.883  0.00  0.00    +0.000 C 
ATOM     26  N   UNL     1       7.036   4.248  11.944  0.00  0.00    +0.000 NA
BRANCH  21  28
ATOM     27  C   UNL     1       3.909   3.255  11.155  0.00  0.00    +0.000 C 
ATOM     28  C   UNL     1       5.260   2.616  11.441  0.00  0.00    +0.000 C 
ENDBRANCH  21  28
ENDBRANCH  17  23
ENDBRANCH   1  19
BRANCH   3  29
ATOM     29  C   UNL     1       4.547   4.103  19.530  0.00  0.00    +0.000 C 
ATOM     30  O   UNL     1       5.307   3.134  19.574  0.00  0.00    +0.000 OA
ATOM     31  N   UNL     1       3.403   4.163  20.290  0.00  0.00    +0.000 N 
ATOM     32  H   UNL     1       2.989   5.088  20.440  0.00  0.00    +0.000 HD
BRANCH  31  33
ATOM     33  C   UNL     1       3.051   3.118  21.232  0.00  0.00    +0.000 C 
BRANCH  33  34
ATOM     34  C   UNL     1       1.986   2.157  20.679  0.00  0.00    +0.000 C 
BRANCH  34  35
ATOM     35  N   UNL     1       1.721   2.309  19.233  0.00  0.00    +0.000 NA
ATOM     36  C   UNL     1       2.547   1.413  18.420  0.00  0.00    +0.000 C 
ATOM     37  C   UNL     1       0.305   2.060  18.961  0.00  0.00    +0.000 C 
ENDBRANCH  34  35
ENDBRANCH  33  34
ENDBRANCH  31  33
ENDBRANCH   3  29
TORSDOF 8
ENDMDL
MODEL 4
REMARK VINA RESULT:      -6.8      4.425      8.293
REMARK  Name = 
REMARK  12 active torsions:
REMARK  status: ('A' for Active; 'I' for Inactive)
REMARK    1  A    between atoms: C_1  and  C_2
REMARK    2  A    between atoms: C_2  and  C_3
REMARK    3  A    between atoms: C_5  and  C_6
REMARK    4  A    between atoms: N_8  and  C_9
REMARK    5  A    between atoms: C_11  and  C_12
REMARK    6  A    between atoms: N_14  and  C_15
REMARK    7  A    between atoms: C_15  and  C_16
REMARK    8  A    between atoms: C_16  and  N_17
REMARK    9  A    between atoms: N_17  and  C_18
REMARK   10  A    between atoms: N_17  and  C_19
REMARK   11  A    between atoms: C_21  and  C_23
REMARK   12  A    between atoms: N_33  and  C_34
REMARK                            x       y       z     vdW  Elec       q    Type
REMARK                         _______ _______ _______ _____ _____    ______ ____
ROOT
ATOM      1  C   UNL     1      -1.948  11.600  18.000  0.00  0.00    +0.000 C 
ATOM      2  C   UNL     1      -1.465  10.256  18.532  0.00  0.00    +0.000 C 
ATOM      3  C   UNL     1      -0.676  10.650  19.794  0.00  0.00    +0.000 C 
ATOM      4  N   UNL     1       0.088  11.793  19.277  0.00  0.00    +0.000 N 
ATOM      5  C   UNL     1       1.106  12.424  19.987  0.00  0.00    +0.000 C 
ATOM      6  O   UNL     1       1.451  12.041  21.104  0.00  0.00    +0.000 OA
ATOM      7  C   UNL     1      -0.794  12.546  18.368  0.00  0.00    +0.000 C 
ENDROOT
BRANCH   5   8
ATOM      8  C   UNL     1       1.733  13.585  19.360  0.00  0.00    +0.000 A 
ATOM      9  C   UNL     1       2.766  13.577  18.437  0.00  0.00    +0.000 A 
ATOM     10  O   UNL     1       2.959  14.806  17.901  0.00  0.00    +0.000 OA
ATOM     11  C   UNL     1       2.136  15.653  18.570  0.00  0.00    +0.000 A 
ATOM     12  C   UNL     1       2.011  17.014  18.310  0.00  0.00    +0.000 A 
ATOM     13  C   UNL     1       1.171  17.733  19.163  0.00  0.00    +0.000 A 
ATOM     14  C   UNL     1       0.509  17.104  20.220  0.00  0.00    +0.000 A 
ATOM     15  C   UNL     1       0.619  15.720  20.425  0.00  0.00    +0.000 A 
ATOM     16  C   UNL     1       1.438  14.970  19.560  0.00  0.00    +0.000 A 
ENDBRANCH   5   8
BRANCH   1  19
ATOM     17  C   UNL     1      -4.441  11.587  18.115  0.00  0.00    +0.000 C 
ATOM     18  O   UNL     1      -4.541  11.013  17.039  0.00  0.00    +0.000 OA
ATOM     19  N   UNL     1      -3.210  11.958  18.620  0.00  0.00    +0.000 N 
ATOM     20  H   UNL     1      -3.179  12.433  19.510  0.00  0.00    +0.000 HD
BRANCH  17  23
ATOM     21  C   UNL     1      -7.066  13.049  20.193  0.00  0.00    +0.000 A 
ATOM     22  C   UNL     1      -5.846  13.203  19.516  0.00  0.00    +0.000 A 
ATOM     23  C   UNL     1      -5.548  11.958  18.965  0.00  0.00    +0.000 A 
ATOM     24  N   UNL     1      -6.562  11.139  19.415  0.00  0.00    +0.000 N 
ATOM     25  C   UNL     1      -6.790   9.736  19.167  0.00  0.00    +0.000 C 
ATOM     26  N   UNL     1      -7.500  11.790  20.141  0.00  0.00    +0.000 NA
BRANCH  21  28
ATOM     27  C   UNL     1      -7.098  14.697  22.054  0.00  0.00    +0.000 C 
ATOM     28  C   UNL     1      -7.854  14.118  20.867  0.00  0.00    +0.000 C 
ENDBRANCH  21  28
ENDBRANCH  17  23
ENDBRANCH   1  19
BRANCH   3  29
ATOM     29  C   UNL     1      -0.082   9.373  20.432  0.00  0.00    +0.000 C 
ATOM     30  O   UNL     1      -0.427   8.975  21.546  0.00  0.00    +0.000 OA
ATOM     31  N   UNL     1       1.033   8.881  19.798  0.00  0.00    +0.000 N 
ATOM     32  H   UNL     1       1.094   9.019  18.785  0.00  0.00    +0.000 HD
BRANCH  31  33
ATOM     33  C   UNL     1       1.839   7.822  20.373  0.00  0.00    +0.000 C 
BRANCH  33  34
ATOM     34  C   UNL     1       2.583   6.999  19.309  0.00  0.00    +0.000 C 
BRANCH  34  35
ATOM     35  N   UNL     1       2.705   5.561  19.628  0.00  0.00    +0.000 NA
ATOM     36  C   UNL     1       1.830   5.162  20.732  0.00  0.00    +0.000 C 
ATOM     37  C   UNL     1       2.399   4.764  18.439  0.00  0.00    +0.000 C 
ENDBRANCH  34  35
ENDBRANCH  33  34
ENDBRANCH  31  33
ENDBRANCH   3  29
TORSDOF 8
ENDMDL
MODEL 5
REMARK VINA RESULT:      -6.8      4.457      8.433
REMARK  Name = 
REMARK  12 active torsions:
REMARK  status: ('A' for Active; 'I' for Inactive)
REMARK    1  A    between atoms: C_1  and  C_2
REMARK    2  A    between atoms: C_2  and  C_3
REMARK    3  A    between atoms: C_5  and  C_6
REMARK    4  A    between atoms: N_8  and  C_9
REMARK    5  A    between atoms: C_11  and  C_12
REMARK    6  A    between atoms: N_14  and  C_15
REMARK    7  A    between atoms: C_15  and  C_16
REMARK    8  A    between atoms: C_16  and  N_17
REMARK    9  A    between atoms: N_17  and  C_18
REMARK   10  A    between atoms: N_17  and  C_19
REMARK   11  A    between atoms: C_21  and  C_23
REMARK   12  A    between atoms: N_33  and  C_34
REMARK                            x       y       z     vdW  Elec       q    Type
REMARK                         _______ _______ _______ _____ _____    ______ ____
ROOT
ATOM      1  C   UNL     1      -1.889  11.646  17.820  0.00  0.00    +0.000 C 
ATOM      2  C   UNL     1      -1.410  10.320  18.398  0.00  0.00    +0.000 C 
ATOM      3  C   UNL     1      -0.680  10.749  19.683  0.00  0.00    +0.000 C 
ATOM      4  N   UNL     1       0.089  11.893  19.176  0.00  0.00    +0.000 N 
ATOM      5  C   UNL     1       1.068  12.552  19.915  0.00  0.00    +0.000 C 
ATOM      6  O   UNL     1       1.372  12.195  21.053  0.00  0.00    +0.000 OA
ATOM      7  C   UNL     1      -0.764  12.616  18.216  0.00  0.00    +0.000 C 
ENDROOT
BRANCH   5   8
ATOM      8  C   UNL     1       1.705  13.710  19.292  0.00  0.00    +0.000 A 
ATOM      9  C   UNL     1       2.834  13.709  18.489  0.00  0.00    +0.000 A 
ATOM     10  O   UNL     1       3.026  14.915  17.905  0.00  0.00    +0.000 OA
ATOM     11  C   UNL     1       2.094  15.752  18.429  0.00  0.00    +0.000 A 
ATOM     12  C   UNL     1       1.932  17.087  18.075  0.00  0.00    +0.000 A 
ATOM     13  C   UNL     1       0.968  17.804  18.785  0.00  0.00    +0.000 A 
ATOM     14  C   UNL     1       0.223  17.198  19.800  0.00  0.00    +0.000 A 
ATOM     15  C   UNL     1       0.376  15.835  20.099  0.00  0.00    +0.000 A 
ATOM     16  C   UNL     1       1.322  15.086  19.375  0.00  0.00    +0.000 A 
ENDBRANCH   5   8
BRANCH   1  19
ATOM     17  C   UNL     1      -4.381  11.542  17.871  0.00  0.00    +0.000 C 
ATOM     18  O   UNL     1      -4.429  10.890  16.838  0.00  0.00    +0.000 OA
ATOM     19  N   UNL     1      -3.180  11.997  18.380  0.00  0.00    +0.000 N 
ATOM     20  H   UNL     1      -3.192  12.535  19.233  0.00  0.00    +0.000 HD
BRANCH  17  23
ATOM     21  C   UNL     1      -7.025  12.251  20.291  0.00  0.00    +0.000 A 
ATOM     22  C   UNL     1      -5.873  11.525  19.951  0.00  0.00    +0.000 A 
ATOM     23  C   UNL     1      -5.525  11.930  18.664  0.00  0.00    +0.000 A 
ATOM     24  N   UNL     1      -6.531  12.801  18.301  0.00  0.00    +0.000 N 
ATOM     25  C   UNL     1      -6.709  13.541  17.076  0.00  0.00    +0.000 C 
ATOM     26  N   UNL     1      -7.434  13.022  19.284  0.00  0.00    +0.000 NA
BRANCH  21  28
ATOM     27  C   UNL     1      -7.917  13.657  22.137  0.00  0.00    +0.000 C 
ATOM     28  C   UNL     1      -7.730  12.245  21.604  0.00  0.00    +0.000 C 
ENDBRANCH  21  28
ENDBRANCH  17  23
ENDBRANCH   1  19
BRANCH   3  29
ATOM     29  C   UNL     1      -0.095   9.493  20.371  0.00  0.00    +0.000 C 
ATOM     30  O   UNL     1      -0.430   9.151  21.505  0.00  0.00    +0.000 OA
ATOM     31  N   UNL     1       1.004   8.956  19.744  0.00  0.00    +0.000 N 
ATOM     32  H   UNL     1       1.052   9.047  18.726  0.00  0.00    +0.000 HD
BRANCH  31  33
ATOM     33  C   UNL     1       1.802   7.912  20.356  0.00  0.00    +0.000 C 
BRANCH  33  34
ATOM     34  C   UNL     1       2.523   7.033  19.321  0.00  0.00    +0.000 C 
BRANCH  34  35
ATOM     35  N   UNL     1       2.223   5.591  19.433  0.00  0.00    +0.000 NA
ATOM     36  C   UNL     1       3.387   4.757  19.130  0.00  0.00    +0.000 C 
ATOM     37  C   UNL     1       1.735   5.291  20.780  0.00  0.00    +0.000 C 
ENDBRANCH  34  35
ENDBRANCH  33  34
ENDBRANCH  31  33
ENDBRANCH   3  29
TORSDOF 8
ENDMDL
MODEL 6
REMARK VINA RESULT:      -6.7      3.378      9.461
REMARK  Name = 
REMARK  12 active torsions:
REMARK  status: ('A' for Active; 'I' for Inactive)
REMARK    1  A    between atoms: C_1  and  C_2
REMARK    2  A    between atoms: C_2  and  C_3
REMARK    3  A    between atoms: C_5  and  C_6
REMARK    4  A    between atoms: N_8  and  C_9
REMARK    5  A    between atoms: C_11  and  C_12
REMARK    6  A    between atoms: N_14  and  C_15
REMARK    7  A    between atoms: C_15  and  C_16
REMARK    8  A    between atoms: C_16  and  N_17
REMARK    9  A    between atoms: N_17  and  C_18
REMARK   10  A    between atoms: N_17  and  C_19
REMARK   11  A    between atoms: C_21  and  C_23
REMARK   12  A    between atoms: N_33  and  C_34
REMARK                            x       y       z     vdW  Elec       q    Type
REMARK                         _______ _______ _______ _____ _____    ______ ____
ROOT
ATOM      1  C   UNL     1       0.753   9.864  20.401  0.00  0.00    +0.000 C 
ATOM      2  C   UNL     1      -0.697   9.750  19.948  0.00  0.00    +0.000 C 
ATOM      3  C   UNL     1      -0.782  10.778  18.806  0.00  0.00    +0.000 C 
ATOM      4  N   UNL     1      -0.068  11.906  19.418  0.00  0.00    +0.000 N 
ATOM      5  C   UNL     1      -0.007  13.177  18.852  0.00  0.00    +0.000 C 
ATOM      6  O   UNL     1      -0.577  13.445  17.795  0.00  0.00    +0.000 OA
ATOM      7  C   UNL     1       1.059  11.356  20.192  0.00  0.00    +0.000 C 
ENDROOT
BRANCH   5   8
ATOM      8  C   UNL     1       0.792  14.179  19.553  0.00  0.00    +0.000 A 
ATOM      9  C   UNL     1       0.469  14.824  20.736  0.00  0.00    +0.000 A 
ATOM     10  O   UNL     1       1.521  15.527  21.219  0.00  0.00    +0.000 OA
ATOM     11  C   UNL     1       2.501  15.450  20.283  0.00  0.00    +0.000 A 
ATOM     12  C   UNL     1       3.764  16.021  20.402  0.00  0.00    +0.000 A 
ATOM     13  C   UNL     1       4.605  15.898  19.295  0.00  0.00    +0.000 A 
ATOM     14  C   UNL     1       4.180  15.244  18.136  0.00  0.00    +0.000 A 
ATOM     15  C   UNL     1       2.917  14.636  18.067  0.00  0.00    +0.000 A 
ATOM     16  C   UNL     1       2.063  14.721  19.182  0.00  0.00    +0.000 A 
ENDBRANCH   5   8
BRANCH   1  19
ATOM     17  C   UNL     1       1.840   7.666  19.940  0.00  0.00    +0.000 C 
ATOM     18  O   UNL     1       1.440   7.187  20.992  0.00  0.00    +0.000 OA
ATOM     19  N   UNL     1       1.593   8.984  19.611  0.00  0.00    +0.000 N 
ATOM     20  H   UNL     1       1.947   9.336  18.734  0.00  0.00    +0.000 HD
BRANCH  17  23
ATOM     21  C   UNL     1       3.995   6.374  17.287  0.00  0.00    +0.000 A 
ATOM     22  C   UNL     1       3.405   7.477  17.924  0.00  0.00    +0.000 A 
ATOM     23  C   UNL     1       2.609   6.958  18.943  0.00  0.00    +0.000 A 
ATOM     24  N   UNL     1       2.718   5.592  18.793  0.00  0.00    +0.000 N 
ATOM     25  C   UNL     1       2.118   4.530  19.565  0.00  0.00    +0.000 C 
ATOM     26  N   UNL     1       3.571   5.223  17.809  0.00  0.00    +0.000 NA
BRANCH  21  28
ATOM     27  C   UNL     1       5.476   5.007  15.832  0.00  0.00    +0.000 C 
ATOM     28  C   UNL     1       5.005   6.408  16.194  0.00  0.00    +0.000 C 
ENDBRANCH  21  28
ENDBRANCH  17  23
ENDBRANCH   1  19
BRANCH   3  29
ATOM     29  C   UNL     1      -2.229  10.805  18.262  0.00  0.00    +0.000 C 
ATOM     30  O   UNL     1      -2.535  10.297  17.183  0.00  0.00    +0.000 OA
ATOM     31  N   UNL     1      -3.076  11.659  18.928  0.00  0.00    +0.000 N 
ATOM     32  H   UNL     1      -2.906  11.801  19.928  0.00  0.00    +0.000 HD
BRANCH  31  33
ATOM     33  C   UNL     1      -4.402  11.968  18.431  0.00  0.00    +0.000 C 
BRANCH  33  34
ATOM     34  C   UNL     1      -5.381  12.353  19.552  0.00  0.00    +0.000 C 
BRANCH  34  35
ATOM     35  N   UNL     1      -6.326  11.281  19.930  0.00  0.00    +0.000 NA
ATOM     36  C   UNL     1      -7.478  11.794  20.674  0.00  0.00    +0.000 C 
ATOM     37  C   UNL     1      -6.784  10.581  18.729  0.00  0.00    +0.000 C 
ENDBRANCH  34  35
ENDBRANCH  33  34
ENDBRANCH  31  33
ENDBRANCH   3  29
TORSDOF 8
ENDMDL
MODEL 7
REMARK VINA RESULT:      -6.6      2.770      5.989
REMARK  Name = 
REMARK  12 active torsions:
REMARK  status: ('A' for Active; 'I' for Inactive)
REMARK    1  A    between atoms: C_1  and  C_2
REMARK    2  A    between atoms: C_2  and  C_3
REMARK    3  A    between atoms: C_5  and  C_6
REMARK    4  A    between atoms: N_8  and  C_9
REMARK    5  A    between atoms: C_11  and  C_12
REMARK    6  A    between atoms: N_14  and  C_15
REMARK    7  A    between atoms: C_15  and  C_16
REMARK    8  A    between atoms: C_16  and  N_17
REMARK    9  A    between atoms: N_17  and  C_18
REMARK   10  A    between atoms: N_17  and  C_19
REMARK   11  A    between atoms: C_21  and  C_23
REMARK   12  A    between atoms: N_33  and  C_34
REMARK                            x       y       z     vdW  Elec       q    Type
REMARK                         _______ _______ _______ _____ _____    ______ ____
ROOT
ATOM      1  C   UNL     1       1.108  10.725  17.945  0.00  0.00    +0.000 C 
ATOM      2  C   UNL     1       0.130  10.582  19.105  0.00  0.00    +0.000 C 
ATOM      3  C   UNL     1       0.923   9.739  20.120  0.00  0.00    +0.000 C 
ATOM      4  N   UNL     1       1.487   8.719  19.227  0.00  0.00    +0.000 N 
ATOM      5  C   UNL     1       2.165   7.590  19.678  0.00  0.00    +0.000 C 
ATOM      6  O   UNL     1       2.317   7.360  20.877  0.00  0.00    +0.000 OA
ATOM      7  C   UNL     1       1.859   9.385  17.966  0.00  0.00    +0.000 C 
ENDROOT
BRANCH   5   8
ATOM      8  C   UNL     1       2.718   6.697  18.663  0.00  0.00    +0.000 A 
ATOM      9  C   UNL     1       3.699   6.999  17.732  0.00  0.00    +0.000 A 
ATOM     10  O   UNL     1       4.129   5.887  17.089  0.00  0.00    +0.000 OA
ATOM     11  C   UNL     1       3.337   4.867  17.507  0.00  0.00    +0.000 A 
ATOM     12  C   UNL     1       3.462   3.542  17.101  0.00  0.00    +0.000 A 
ATOM     13  C   UNL     1       2.499   2.654  17.582  0.00  0.00    +0.000 A 
ATOM     14  C   UNL     1       1.466   3.092  18.414  0.00  0.00    +0.000 A 
ATOM     15  C   UNL     1       1.396   4.426  18.844  0.00  0.00    +0.000 A 
ATOM     16  C   UNL     1       2.374   5.334  18.396  0.00  0.00    +0.000 A 
ENDBRANCH   5   8
BRANCH   1  19
ATOM     17  C   UNL     1       1.501  13.172  18.239  0.00  0.00    +0.000 C 
ATOM     18  O   UNL     1       0.325  13.440  18.032  0.00  0.00    +0.000 OA
ATOM     19  N   UNL     1       1.968  11.874  18.156  0.00  0.00    +0.000 N 
ATOM     20  H   UNL     1       2.946  11.703  18.331  0.00  0.00    +0.000 HD
BRANCH  17  23
ATOM     21  C   UNL     1       4.427  15.301  18.740  0.00  0.00    +0.000 A 
ATOM     22  C   UNL     1       3.888  14.094  18.269  0.00  0.00    +0.000 A 
ATOM     23  C   UNL     1       2.528  14.133  18.568  0.00  0.00    +0.000 A 
ATOM     24  N   UNL     1       2.368  15.315  19.261  0.00  0.00    +0.000 N 
ATOM     25  C   UNL     1       1.175  15.898  19.824  0.00  0.00    +0.000 C 
ATOM     26  N   UNL     1       3.505  16.043  19.353  0.00  0.00    +0.000 NA
BRANCH  21  28
ATOM     27  C   UNL     1       6.652  14.799  17.752  0.00  0.00    +0.000 C 
ATOM     28  C   UNL     1       5.828  15.779  18.575  0.00  0.00    +0.000 C 
ENDBRANCH  21  28
ENDBRANCH  17  23
ENDBRANCH   1  19
BRANCH   3  29
ATOM     29  C   UNL     1       0.032   9.474  21.355  0.00  0.00    +0.000 C 
ATOM     30  O   UNL     1      -0.658   8.459  21.462  0.00  0.00    +0.000 OA
ATOM     31  N   UNL     1      -0.141  10.559  22.181  0.00  0.00    +0.000 N 
ATOM     32  H   UNL     1       0.635  11.225  22.246  0.00  0.00    +0.000 HD
BRANCH  31  33
ATOM     33  C   UNL     1      -1.105  10.555  23.264  0.00  0.00    +0.000 C 
BRANCH  33  34
ATOM     34  C   UNL     1      -2.184  11.637  23.101  0.00  0.00    +0.000 C 
BRANCH  34  35
ATOM     35  N   UNL     1      -1.698  12.895  22.496  0.00  0.00    +0.000 NA
ATOM     36  C   UNL     1      -2.711  13.532  21.651  0.00  0.00    +0.000 C 
ATOM     37  C   UNL     1      -1.278  13.820  23.549  0.00  0.00    +0.000 C 
ENDBRANCH  34  35
ENDBRANCH  33  34
ENDBRANCH  31  33
ENDBRANCH   3  29
TORSDOF 8
ENDMDL
MODEL 8
REMARK VINA RESULT:      -6.5      3.299      9.448
REMARK  Name = 
REMARK  12 active torsions:
REMARK  status: ('A' for Active; 'I' for Inactive)
REMARK    1  A    between atoms: C_1  and  C_2
REMARK    2  A    between atoms: C_2  and  C_3
REMARK    3  A    between atoms: C_5  and  C_6
REMARK    4  A    between atoms: N_8  and  C_9
REMARK    5  A    between atoms: C_11  and  C_12
REMARK    6  A    between atoms: N_14  and  C_15
REMARK    7  A    between atoms: C_15  and  C_16
REMARK    8  A    between atoms: C_16  and  N_17
REMARK    9  A    between atoms: N_17  and  C_18
REMARK   10  A    between atoms: N_17  and  C_19
REMARK   11  A    between atoms: C_21  and  C_23
REMARK   12  A    between atoms: N_33  and  C_34
REMARK                            x       y       z     vdW  Elec       q    Type
REMARK                         _______ _______ _______ _____ _____    ______ ____
ROOT
ATOM      1  C   UNL     1       0.769   9.339  20.400  0.00  0.00    +0.000 C 
ATOM      2  C   UNL     1      -0.626   9.372  19.788  0.00  0.00    +0.000 C 
ATOM      3  C   UNL     1      -0.560  10.591  18.849  0.00  0.00    +0.000 C 
ATOM      4  N   UNL     1       0.112  11.558  19.726  0.00  0.00    +0.000 N 
ATOM      5  C   UNL     1       0.267  12.905  19.410  0.00  0.00    +0.000 C 
ATOM      6  O   UNL     1      -0.178  13.383  18.367  0.00  0.00    +0.000 OA
ATOM      7  C   UNL     1       1.134  10.828  20.498  0.00  0.00    +0.000 C 
ENDROOT
BRANCH   5   8
ATOM      8  C   UNL     1       1.011  13.729  20.360  0.00  0.00    +0.000 A 
ATOM      9  C   UNL     1       0.575  14.175  21.597  0.00  0.00    +0.000 A 
ATOM     10  O   UNL     1       1.585  14.730  22.307  0.00  0.00    +0.000 OA
ATOM     11  C   UNL     1       2.663  14.767  21.483  0.00  0.00    +0.000 A 
ATOM     12  C   UNL     1       3.921  15.246  21.835  0.00  0.00    +0.000 A 
ATOM     13  C   UNL     1       4.879  15.276  20.821  0.00  0.00    +0.000 A 
ATOM     14  C   UNL     1       4.569  14.855  19.525  0.00  0.00    +0.000 A 
ATOM     15  C   UNL     1       3.304  14.332  19.214  0.00  0.00    +0.000 A 
ATOM     16  C   UNL     1       2.331  14.264  20.229  0.00  0.00    +0.000 A 
ENDBRANCH   5   8
BRANCH   1  19
ATOM     17  C   UNL     1       1.995   7.255  19.782  0.00  0.00    +0.000 C 
ATOM     18  O   UNL     1       1.621   6.672  20.790  0.00  0.00    +0.000 OA
ATOM     19  N   UNL     1       1.667   8.577  19.552  0.00  0.00    +0.000 N 
ATOM     20  H   UNL     1       2.002   9.017  18.708  0.00  0.00    +0.000 HD
BRANCH  17  23
ATOM     21  C   UNL     1       4.348   6.268  17.167  0.00  0.00    +0.000 A 
ATOM     22  C   UNL     1       3.809   7.280  17.976  0.00  0.00    +0.000 A 
ATOM     23  C   UNL     1       2.813   6.676  18.741  0.00  0.00    +0.000 A 
ATOM     24  N   UNL     1       2.776   5.377  18.281  0.00  0.00    +0.000 N 
ATOM     25  C   UNL     1       1.942   4.276  18.701  0.00  0.00    +0.000 C 
ATOM     26  N   UNL     1       3.714   5.109  17.344  0.00  0.00    +0.000 NA
BRANCH  21  28
ATOM     27  C   UNL     1       5.393   5.406  15.082  0.00  0.00    +0.000 C 
ATOM     28  C   UNL     1       5.507   6.388  16.239  0.00  0.00    +0.000 C 
ENDBRANCH  21  28
ENDBRANCH  17  23
ENDBRANCH   1  19
BRANCH   3  29
ATOM     29  C   UNL     1      -1.939  10.779  18.175  0.00  0.00    +0.000 C 
ATOM     30  O   UNL     1      -2.129  10.518  16.986  0.00  0.00    +0.000 OA
ATOM     31  N   UNL     1      -2.844  11.503  18.914  0.00  0.00    +0.000 N 
ATOM     32  H   UNL     1      -2.783  11.427  19.933  0.00  0.00    +0.000 HD
BRANCH  31  33
ATOM     33  C   UNL     1      -4.104  11.953  18.356  0.00  0.00    +0.000 C 
BRANCH  33  34
ATOM     34  C   UNL     1      -5.077  12.467  19.430  0.00  0.00    +0.000 C 
BRANCH  34  35
ATOM     35  N   UNL     1      -6.448  11.925  19.318  0.00  0.00    +0.000 NA
ATOM     36  C   UNL     1      -6.524  10.798  18.387  0.00  0.00    +0.000 C 
ATOM     37  C   UNL     1      -6.924  11.510  20.638  0.00  0.00    +0.000 C 
ENDBRANCH  34  35
ENDBRANCH  33  34
ENDBRANCH  31  33
ENDBRANCH   3  29
TORSDOF 8
ENDMDL
MODEL 9
REMARK VINA RESULT:      -6.4      3.108      9.426
REMARK  Name = 
REMARK  12 active torsions:
REMARK  status: ('A' for Active; 'I' for Inactive)
REMARK    1  A    between atoms: C_1  and  C_2
REMARK    2  A    between atoms: C_2  and  C_3
REMARK    3  A    between atoms: C_5  and  C_6
REMARK    4  A    between atoms: N_8  and  C_9
REMARK    5  A    between atoms: C_11  and  C_12
REMARK    6  A    between atoms: N_14  and  C_15
REMARK    7  A    between atoms: C_15  and  C_16
REMARK    8  A    between atoms: C_16  and  N_17
REMARK    9  A    between atoms: N_17  and  C_18
REMARK   10  A    between atoms: N_17  and  C_19
REMARK   11  A    between atoms: C_21  and  C_23
REMARK   12  A    between atoms: N_33  and  C_34
REMARK                            x       y       z     vdW  Elec       q    Type
REMARK                         _______ _______ _______ _____ _____    ______ ____
ROOT
ATOM      1  C   UNL     1       0.799   9.803  20.381  0.00  0.00    +0.000 C 
ATOM      2  C   UNL     1      -0.669   9.683  19.992  0.00  0.00    +0.000 C 
ATOM      3  C   UNL     1      -0.802  10.694  18.839  0.00  0.00    +0.000 C 
ATOM      4  N   UNL     1      -0.061  11.830  19.401  0.00  0.00    +0.000 N 
ATOM      5  C   UNL     1      -0.023  13.092  18.814  0.00  0.00    +0.000 C 
ATOM      6  O   UNL     1      -0.639  13.344  17.778  0.00  0.00    +0.000 OA
ATOM      7  C   UNL     1       1.097  11.290  20.135  0.00  0.00    +0.000 C 
ENDROOT
BRANCH   5   8
ATOM      8  C   UNL     1       0.805  14.104  19.465  0.00  0.00    +0.000 A 
ATOM      9  C   UNL     1       0.475  14.863  20.575  0.00  0.00    +0.000 A 
ATOM     10  O   UNL     1       1.547  15.544  21.045  0.00  0.00    +0.000 OA
ATOM     11  C   UNL     1       2.556  15.335  20.161  0.00  0.00    +0.000 A 
ATOM     12  C   UNL     1       3.845  15.843  20.287  0.00  0.00    +0.000 A 
ATOM     13  C   UNL     1       4.720  15.581  19.231  0.00  0.00    +0.000 A 
ATOM     14  C   UNL     1       4.302  14.856  18.112  0.00  0.00    +0.000 A 
ATOM     15  C   UNL     1       3.009  14.316  18.039  0.00  0.00    +0.000 A 
ATOM     16  C   UNL     1       2.119  14.542  19.105  0.00  0.00    +0.000 A 
ENDBRANCH   5   8
BRANCH   1  19
ATOM     17  C   UNL     1       1.887   7.604  19.921  0.00  0.00    +0.000 C 
ATOM     18  O   UNL     1       1.554   7.152  21.008  0.00  0.00    +0.000 OA
ATOM     19  N   UNL     1       1.605   8.909  19.569  0.00  0.00    +0.000 N 
ATOM     20  H   UNL     1       1.903   9.239  18.663  0.00  0.00    +0.000 HD
BRANCH  17  23
ATOM     21  C   UNL     1       4.004   6.229  17.280  0.00  0.00    +0.000 A 
ATOM     22  C   UNL     1       3.552   7.349  17.994  0.00  0.00    +0.000 A 
ATOM     23  C   UNL     1       2.607   6.876  18.903  0.00  0.00    +0.000 A 
ATOM     24  N   UNL     1       2.506   5.531  18.614  0.00  0.00    +0.000 N 
ATOM     25  C   UNL     1       1.686   4.517  19.231  0.00  0.00    +0.000 C 
ATOM     26  N   UNL     1       3.362   5.121  17.649  0.00  0.00    +0.000 NA
BRANCH  21  28
ATOM     27  C   UNL     1       6.454   6.409  16.897  0.00  0.00    +0.000 C 
ATOM     28  C   UNL     1       5.088   6.198  16.260  0.00  0.00    +0.000 C 
ENDBRANCH  21  28
ENDBRANCH  17  23
ENDBRANCH   1  19
BRANCH   3  29
ATOM     29  C   UNL     1      -2.271  10.714  18.357  0.00  0.00    +0.000 C 
ATOM     30  O   UNL     1      -2.633  10.138  17.330  0.00  0.00    +0.000 OA
ATOM     31  N   UNL     1      -3.071  11.630  18.997  0.00  0.00    +0.000 N 
ATOM     32  H   UNL     1      -2.854  11.838  19.976  0.00  0.00    +0.000 HD
BRANCH  31  33
ATOM     33  C   UNL     1      -4.412  11.933  18.536  0.00  0.00    +0.000 C 
BRANCH  33  34
ATOM     34  C   UNL     1      -5.305  12.509  19.648  0.00  0.00    +0.000 C 
BRANCH  34  35
ATOM     35  N   UNL     1      -4.566  13.198  20.725  0.00  0.00    +0.000 NA
ATOM     36  C   UNL     1      -4.662  14.656  20.620  0.00  0.00    +0.000 C 
ATOM     37  C   UNL     1      -5.069  12.761  22.028  0.00  0.00    +0.000 C 
ENDBRANCH  34  35
ENDBRANCH  33  34
ENDBRANCH  31  33
ENDBRANCH   3  29
TORSDOF 8
ENDMDL
