MODEL 1
REMARK VINA RESULT:      -5.1      0.000      0.000
REMARK  Name = 
REMARK  0 active torsions:
REMARK  status: ('A' for Active; 'I' for Inactive)
REMARK                            x       y       z     vdW  Elec       q    Type
REMARK                         _______ _______ _______ _____ _____    ______ ____
ROOT
ATOM      1  N   UNL     1       8.383   5.245  20.456  0.00  0.00    +0.000 N 
ATOM      2  C   UNL     1       7.995   5.513  19.119  0.00  0.00    +0.000 C 
ATOM      3  N   UNL     1       7.936   6.729  18.707  0.00  0.00    +0.000 NA
ATOM      4  C   UNL     1       7.564   7.040  17.376  0.00  0.00    +0.000 C 
ATOM      5  O   UNL     1       7.519   8.208  17.022  0.00  0.00    +0.000 OA
ATOM      6  N   UNL     1       7.259   6.052  16.496  0.00  0.00    +0.000 N 
ATOM      7  C   UNL     1       7.296   4.646  16.857  0.00  0.00    +0.000 C 
ATOM      8  N   UNL     1       7.687   4.438  18.239  0.00  0.00    +0.000 N 
ATOM      9  H   UNL     1       8.621   6.017  21.095  0.00  0.00    +0.000 HD
ATOM     10  H   UNL     1       8.446   4.275  20.796  0.00  0.00    +0.000 HD
ATOM     11  H   UNL     1       6.990   6.300  15.531  0.00  0.00    +0.000 HD
ATOM     12  H   UNL     1       7.745   3.470  18.590  0.00  0.00    +0.000 HD
ENDROOT
TORSDOF 0
ENDMDL
MODEL 2
REMARK VINA RESULT:      -4.8      1.492      2.262
REMARK  Name = 
REMARK  0 active torsions:
REMARK  status: ('A' for Active; 'I' for Inactive)
REMARK                            x       y       z     vdW  Elec       q    Type
REMARK                         _______ _______ _______ _____ _____    ______ ____
ROOT
ATOM      1  N   UNL     1       8.386   5.255  20.511  0.00  0.00    +0.000 N 
ATOM      2  C   UNL     1       8.030   5.635  19.192  0.00  0.00    +0.000 C 
ATOM      3  N   UNL     1       7.634   4.740  18.359  0.00  0.00    +0.000 NA
ATOM      4  C   UNL     1       7.258   5.078  17.036  0.00  0.00    +0.000 C 
ATOM      5  O   UNL     1       6.887   4.199  16.273  0.00  0.00    +0.000 OA
ATOM      6  N   UNL     1       7.307   6.367  16.613  0.00  0.00    +0.000 N 
ATOM      7  C   UNL     1       7.737   7.455  17.473  0.00  0.00    +0.000 C 
ATOM      8  N   UNL     1       8.099   7.002  18.803  0.00  0.00    +0.000 N 
ATOM      9  H   UNL     1       8.325   4.269  20.804  0.00  0.00    +0.000 HD
ATOM     10  H   UNL     1       8.693   5.963  21.192  0.00  0.00    +0.000 HD
ATOM     11  H   UNL     1       7.029   6.592  15.645  0.00  0.00    +0.000 HD
ATOM     12  H   UNL     1       8.416   7.703  19.489  0.00  0.00    +0.000 HD
ENDROOT
TORSDOF 0
ENDMDL
MODEL 3
REMARK VINA RESULT:      -4.7      1.814      2.853
REMARK  Name = 
REMARK  0 active torsions:
REMARK  status: ('A' for Active; 'I' for Inactive)
REMARK                            x       y       z     vdW  Elec       q    Type
REMARK                         _______ _______ _______ _____ _____    ______ ____
ROOT
ATOM      1  N   UNL     1       7.743   8.474  17.139  0.00  0.00    +0.000 N 
ATOM      2  C   UNL     1       7.656   7.114  17.530  0.00  0.00    +0.000 C 
ATOM      3  N   UNL     1       7.836   6.795  18.762  0.00  0.00    +0.000 NA
ATOM      4  C   UNL     1       7.747   5.449  19.196  0.00  0.00    +0.000 C 
ATOM      5  O   UNL     1       7.924   5.186  20.375  0.00  0.00    +0.000 OA
ATOM      6  N   UNL     1       7.466   4.457  18.313  0.00  0.00    +0.000 N 
ATOM      7  C   UNL     1       7.244   4.708  16.901  0.00  0.00    +0.000 C 
ATOM      8  N   UNL     1       7.358   6.114  16.562  0.00  0.00    +0.000 N 
ATOM      9  H   UNL     1       7.945   9.206  17.836  0.00  0.00    +0.000 HD
ATOM     10  H   UNL     1       7.589   8.745  16.158  0.00  0.00    +0.000 HD
ATOM     11  H   UNL     1       7.406   3.483  18.650  0.00  0.00    +0.000 HD
ATOM     12  H   UNL     1       7.214   6.394  15.580  0.00  0.00    +0.000 HD
ENDROOT
TORSDOF 0
ENDMDL
MODEL 4
REMARK VINA RESULT:      -4.7      2.668      3.822
REMARK  Name = 
REMARK  0 active torsions:
REMARK  status: ('A' for Active; 'I' for Inactive)
REMARK                            x       y       z     vdW  Elec       q    Type
REMARK                         _______ _______ _______ _____ _____    ______ ____
ROOT
ATOM      1  N   UNL     1       7.509   5.349  13.987  0.00  0.00    +0.000 N 
ATOM      2  C   UNL     1       6.962   4.901  15.216  0.00  0.00    +0.000 C 
ATOM      3  N   UNL     1       7.679   4.937  16.281  0.00  0.00    +0.000 NA
ATOM      4  C   UNL     1       7.167   4.510  17.531  0.00  0.00    +0.000 C 
ATOM      5  O   UNL     1       7.880   4.559  18.521  0.00  0.00    +0.000 OA
ATOM      6  N   UNL     1       5.894   4.050  17.633  0.00  0.00    +0.000 N 
ATOM      7  C   UNL     1       4.998   3.969  16.493  0.00  0.00    +0.000 C 
ATOM      8  N   UNL     1       5.620   4.429  15.265  0.00  0.00    +0.000 N 
ATOM      9  H   UNL     1       8.476   5.705  13.945  0.00  0.00    +0.000 HD
ATOM     10  H   UNL     1       6.942   5.337  13.128  0.00  0.00    +0.000 HD
ATOM     11  H   UNL     1       5.540   3.743  18.553  0.00  0.00    +0.000 HD
ATOM     12  H   UNL     1       5.061   4.413  14.399  0.00  0.00    +0.000 HD
ENDROOT
TORSDOF 0
ENDMDL
MODEL 5
REMARK VINA RESULT:      -4.7      1.751      1.901
REMARK  Name = 
REMARK  0 active torsions:
REMARK  status: ('A' for Active; 'I' for Inactive)
REMARK                            x       y       z     vdW  Elec       q    Type
REMARK                         _______ _______ _______ _____ _____    ______ ____
ROOT
ATOM      1  N   UNL     1       5.649   3.820  18.964  0.00  0.00    +0.000 N 
ATOM      2  C   UNL     1       6.218   4.529  17.876  0.00  0.00    +0.000 C 
ATOM      3  N   UNL     1       6.614   5.739  18.045  0.00  0.00    +0.000 NA
ATOM      4  C   UNL     1       7.198   6.479  16.986  0.00  0.00    +0.000 C 
ATOM      5  O   UNL     1       7.563   7.627  17.186  0.00  0.00    +0.000 OA
ATOM      6  N   UNL     1       7.354   5.920  15.759  0.00  0.00    +0.000 N 
ATOM      7  C   UNL     1       6.942   4.560  15.461  0.00  0.00    +0.000 C 
ATOM      8  N   UNL     1       6.358   3.893  16.610  0.00  0.00    +0.000 N 
ATOM      9  H   UNL     1       5.557   4.268  19.887  0.00  0.00    +0.000 HD
ATOM     10  H   UNL     1       5.338   2.846  18.846  0.00  0.00    +0.000 HD
ATOM     11  H   UNL     1       7.782   6.476  15.002  0.00  0.00    +0.000 HD
ATOM     12  H   UNL     1       6.036   2.920  16.499  0.00  0.00    +0.000 HD
ENDROOT
TORSDOF 0
ENDMDL
MODEL 6
REMARK VINA RESULT:      -4.6      6.652      7.229
REMARK  Name = 
REMARK  0 active torsions:
REMARK  status: ('A' for Active; 'I' for Inactive)
REMARK                            x       y       z     vdW  Elec       q    Type
REMARK                         _______ _______ _______ _____ _____    ______ ____
ROOT
ATOM      1  N   UNL     1       4.131   1.378  18.406  0.00  0.00    +0.000 N 
ATOM      2  C   UNL     1       3.005   1.931  19.066  0.00  0.00    +0.000 C 
ATOM      3  N   UNL     1       3.130   2.383  20.263  0.00  0.00    +0.000 NA
ATOM      4  C   UNL     1       2.033   2.954  20.954  0.00  0.00    +0.000 C 
ATOM      5  O   UNL     1       2.191   3.372  22.090  0.00  0.00    +0.000 OA
ATOM      6  N   UNL     1       0.814   3.039  20.362  0.00  0.00    +0.000 N 
ATOM      7  C   UNL     1       0.564   2.561  19.015  0.00  0.00    +0.000 C 
ATOM      8  N   UNL     1       1.750   1.996  18.398  0.00  0.00    +0.000 N 
ATOM      9  H   UNL     1       5.046   1.340  18.878  0.00  0.00    +0.000 HD
ATOM     10  H   UNL     1       4.049   1.024  17.443  0.00  0.00    +0.000 HD
ATOM     11  H   UNL     1       0.028   3.458  20.884  0.00  0.00    +0.000 HD
ATOM     12  H   UNL     1       1.675   1.631  17.436  0.00  0.00    +0.000 HD
ENDROOT
TORSDOF 0
ENDMDL
MODEL 7
REMARK VINA RESULT:      -4.6      2.161      2.640
REMARK  Name = 
REMARK  0 active torsions:
REMARK  status: ('A' for Active; 'I' for Inactive)
REMARK                            x       y       z     vdW  Elec       q    Type
REMARK                         _______ _______ _______ _____ _____    ______ ____
ROOT
ATOM      1  N   UNL     1       7.811   4.851  18.861  0.00  0.00    +0.000 N 
ATOM      2  C   UNL     1       7.115   4.683  17.637  0.00  0.00    +0.000 C 
ATOM      3  N   UNL     1       7.655   5.078  16.540  0.00  0.00    +0.000 NA
ATOM      4  C   UNL     1       6.998   4.919  15.295  0.00  0.00    +0.000 C 
ATOM      5  O   UNL     1       7.544   5.306  14.274  0.00  0.00    +0.000 OA
ATOM      6  N   UNL     1       5.772   4.340  15.231  0.00  0.00    +0.000 N 
ATOM      7  C   UNL     1       5.073   3.857  16.409  0.00  0.00    +0.000 C 
ATOM      8  N   UNL     1       5.831   4.068  17.629  0.00  0.00    +0.000 N 
ATOM      9  H   UNL     1       8.747   5.282  18.874  0.00  0.00    +0.000 HD
ATOM     10  H   UNL     1       7.396   4.528  19.745  0.00  0.00    +0.000 HD
ATOM     11  H   UNL     1       5.310   4.233  14.314  0.00  0.00    +0.000 HD
ATOM     12  H   UNL     1       5.419   3.756  18.520  0.00  0.00    +0.000 HD
ENDROOT
TORSDOF 0
ENDMDL
MODEL 8
REMARK VINA RESULT:      -4.6      6.520      6.986
REMARK  Name = 
REMARK  0 active torsions:
REMARK  status: ('A' for Active; 'I' for Inactive)
REMARK                            x       y       z     vdW  Elec       q    Type
REMARK                         _______ _______ _______ _____ _____    ______ ____
ROOT
ATOM      1  N   UNL     1       4.959   2.761  19.426  0.00  0.00    +0.000 N 
ATOM      2  C   UNL     1       3.568   2.829  19.690  0.00  0.00    +0.000 C 
ATOM      3  N   UNL     1       3.139   2.634  20.886  0.00  0.00    +0.000 NA
ATOM      4  C   UNL     1       1.758   2.705  21.194  0.00  0.00    +0.000 C 
ATOM      5  O   UNL     1       1.388   2.513  22.343  0.00  0.00    +0.000 OA
ATOM      6  N   UNL     1       0.848   2.982  20.226  0.00  0.00    +0.000 N 
ATOM      7  C   UNL     1       1.225   3.221  18.844  0.00  0.00    +0.000 C 
ATOM      8  N   UNL     1       2.658   3.125  18.636  0.00  0.00    +0.000 N 
ATOM      9  H   UNL     1       5.625   2.561  20.186  0.00  0.00    +0.000 HD
ATOM     10  H   UNL     1       5.318   2.927  18.476  0.00  0.00    +0.000 HD
ATOM     11  H   UNL     1      -0.153   3.029  20.472  0.00  0.00    +0.000 HD
ATOM     12  H   UNL     1       3.026   3.282  17.686  0.00  0.00    +0.000 HD
ENDROOT
TORSDOF 0
ENDMDL
MODEL 9
REMARK VINA RESULT:      -4.6      6.404      6.882
REMARK  Name = 
REMARK  0 active torsions:
REMARK  status: ('A' for Active; 'I' for Inactive)
REMARK                            x       y       z     vdW  Elec       q    Type
REMARK                         _______ _______ _______ _____ _____    ______ ____
ROOT
ATOM      1  N   UNL     1       4.919   2.228  20.009  0.00  0.00    +0.000 N 
ATOM      2  C   UNL     1       3.533   2.517  20.094  0.00  0.00    +0.000 C 
ATOM      3  N   UNL     1       2.863   2.732  19.019  0.00  0.00    +0.000 NA
ATOM      4  C   UNL     1       1.475   3.013  19.059  0.00  0.00    +0.000 C 
ATOM      5  O   UNL     1       0.872   3.212  18.016  0.00  0.00    +0.000 OA
ATOM      6  N   UNL     1       0.815   3.061  20.244  0.00  0.00    +0.000 N 
ATOM      7  C   UNL     1       1.475   2.831  21.516  0.00  0.00    +0.000 C 
ATOM      8  N   UNL     1       2.892   2.553  21.364  0.00  0.00    +0.000 N 
ATOM      9  H   UNL     1       5.388   2.186  19.093  0.00  0.00    +0.000 HD
ATOM     10  H   UNL     1       5.466   2.041  20.861  0.00  0.00    +0.000 HD
ATOM     11  H   UNL     1      -0.196   3.267  20.251  0.00  0.00    +0.000 HD
ATOM     12  H   UNL     1       3.449   2.374  22.213  0.00  0.00    +0.000 HD
ENDROOT
TORSDOF 0
ENDMDL
