MODEL 1
REMARK VINA RESULT:      -7.0      0.000      0.000
REMARK  Name = 
REMARK  6 active torsions:
REMARK  status: ('A' for Active; 'I' for Inactive)
REMARK    1  A    between atoms: C_2  and  C_3
REMARK    2  A    between atoms: C_3  and  O_4
REMARK    3  A    between atoms: O_4  and  C_5
REMARK    4  A    between atoms: C_7  and  O_8
REMARK    5  A    between atoms: O_8  and  C_9
REMARK    6  A    between atoms: N_19  and  C_20
REMARK                            x       y       z     vdW  Elec       q    Type
REMARK                         _______ _______ _______ _____ _____    ______ ____
ROOT
ATOM      1  C   UNL     1       1.727   6.536  20.578  0.00  0.00    +0.000 A 
ATOM      2  C   UNL     1       1.684   5.183  20.888  0.00  0.00    +0.000 A 
ATOM      3  C   UNL     1       2.382   4.258  20.102  0.00  0.00    +0.000 A 
ATOM      4  C   UNL     1       3.124   4.706  18.984  0.00  0.00    +0.000 A 
ATOM      5  C   UNL     1       3.932   3.766  18.159  0.00  0.00    +0.000 A 
ATOM      6  O   UNL     1       4.034   2.573  18.427  0.00  0.00    +0.000 OA
ATOM      7  C   UNL     1       4.675   4.286  16.986  0.00  0.00    +0.000 A 
ATOM      8  C   UNL     1       5.411   3.377  16.206  0.00  0.00    +0.000 A 
ATOM      9  C   UNL     1       6.134   3.822  15.106  0.00  0.00    +0.000 A 
ATOM     10  C   UNL     1       6.126   5.172  14.793  0.00  0.00    +0.000 A 
ATOM     11  C   UNL     1       5.393   6.076  15.573  0.00  0.00    +0.000 A 
ATOM     12  C   UNL     1       4.644   5.662  16.691  0.00  0.00    +0.000 A 
ATOM     13  N   UNL     1       3.889   6.528  17.505  0.00  0.00    +0.000 N 
ATOM     14  C   UNL     1       3.861   7.972  17.233  0.00  0.00    +0.000 C 
ATOM     15  C   UNL     1       3.144   6.072  18.628  0.00  0.00    +0.000 A 
ATOM     16  C   UNL     1       2.412   6.959  19.439  0.00  0.00    +0.000 A 
ENDROOT
BRANCH   3  17
ATOM     17  O   UNL     1       2.306   2.912  20.351  0.00  0.00    +0.000 OA
ATOM     18  C   UNL     1       1.675   2.515  21.564  0.00  0.00    +0.000 C 
ENDBRANCH   3  17
BRANCH   1  19
ATOM     19  O   UNL     1       1.067   7.376  21.438  0.00  0.00    +0.000 OA
BRANCH  19  20
ATOM     20  C   UNL     1       0.968   8.733  20.990  0.00  0.00    +0.000 C 
BRANCH  20  22
ATOM     21  C   UNL     1      -0.339   9.499  22.986  0.00  0.00    +0.000 C 
ATOM     22  C   UNL     1       0.718   9.616  22.170  0.00  0.00    +0.000 C 
ENDBRANCH  20  22
ENDBRANCH  19  20
ENDBRANCH   1  19
TORSDOF 4
ENDMDL
MODEL 2
REMARK VINA RESULT:      -6.9      2.881      5.770
REMARK  Name = 
REMARK  6 active torsions:
REMARK  status: ('A' for Active; 'I' for Inactive)
REMARK    1  A    between atoms: C_2  and  C_3
REMARK    2  A    between atoms: C_3  and  O_4
REMARK    3  A    between atoms: O_4  and  C_5
REMARK    4  A    between atoms: C_7  and  O_8
REMARK    5  A    between atoms: O_8  and  C_9
REMARK    6  A    between atoms: N_19  and  C_20
REMARK                            x       y       z     vdW  Elec       q    Type
REMARK                         _______ _______ _______ _____ _____    ______ ____
ROOT
ATOM      1  C   UNL     1       6.342   6.992  17.190  0.00  0.00    +0.000 A 
ATOM      2  C   UNL     1       6.705   5.913  16.395  0.00  0.00    +0.000 A 
ATOM      3  C   UNL     1       5.945   4.738  16.414  0.00  0.00    +0.000 A 
ATOM      4  C   UNL     1       4.810   4.649  17.254  0.00  0.00    +0.000 A 
ATOM      5  C   UNL     1       3.937   3.443  17.258  0.00  0.00    +0.000 A 
ATOM      6  O   UNL     1       4.125   2.489  16.510  0.00  0.00    +0.000 OA
ATOM      7  C   UNL     1       2.771   3.396  18.173  0.00  0.00    +0.000 A 
ATOM      8  C   UNL     1       1.975   2.236  18.179  0.00  0.00    +0.000 A 
ATOM      9  C   UNL     1       0.864   2.154  19.010  0.00  0.00    +0.000 A 
ATOM     10  C   UNL     1       0.548   3.228  19.826  0.00  0.00    +0.000 A 
ATOM     11  C   UNL     1       1.343   4.383  19.816  0.00  0.00    +0.000 A 
ATOM     12  C   UNL     1       2.478   4.502  18.993  0.00  0.00    +0.000 A 
ATOM     13  N   UNL     1       3.310   5.637  18.948  0.00  0.00    +0.000 N 
ATOM     14  C   UNL     1       3.011   6.814  19.774  0.00  0.00    +0.000 C 
ATOM     15  C   UNL     1       4.450   5.720  18.101  0.00  0.00    +0.000 A 
ATOM     16  C   UNL     1       5.257   6.872  18.058  0.00  0.00    +0.000 A 
ENDROOT
BRANCH   3  17
ATOM     17  O   UNL     1       6.317   3.638  15.684  0.00  0.00    +0.000 OA
ATOM     18  C   UNL     1       6.335   3.780  14.268  0.00  0.00    +0.000 C 
ENDBRANCH   3  17
BRANCH   1  19
ATOM     19  O   UNL     1       7.106   8.125  17.061  0.00  0.00    +0.000 OA
BRANCH  19  20
ATOM     20  C   UNL     1       8.156   8.251  18.025  0.00  0.00    +0.000 C 
BRANCH  20  22
ATOM     21  C   UNL     1       9.264  10.183  19.171  0.00  0.00    +0.000 C 
ATOM     22  C   UNL     1       8.493   9.698  18.189  0.00  0.00    +0.000 C 
ENDBRANCH  20  22
ENDBRANCH  19  20
ENDBRANCH   1  19
TORSDOF 4
ENDMDL
MODEL 3
REMARK VINA RESULT:      -6.6      2.544      6.871
REMARK  Name = 
REMARK  6 active torsions:
REMARK  status: ('A' for Active; 'I' for Inactive)
REMARK    1  A    between atoms: C_2  and  C_3
REMARK    2  A    between atoms: C_3  and  O_4
REMARK    3  A    between atoms: O_4  and  C_5
REMARK    4  A    between atoms: C_7  and  O_8
REMARK    5  A    between atoms: O_8  and  C_9
REMARK    6  A    between atoms: N_19  and  C_20
REMARK                            x       y       z     vdW  Elec       q    Type
REMARK                         _______ _______ _______ _____ _____    ______ ____
ROOT
ATOM      1  C   UNL     1       5.237   5.706  15.777  0.00  0.00    +0.000 A 
ATOM      2  C   UNL     1       4.829   6.924  16.304  0.00  0.00    +0.000 A 
ATOM      3  C   UNL     1       4.048   6.962  17.464  0.00  0.00    +0.000 A 
ATOM      4  C   UNL     1       3.665   5.754  18.093  0.00  0.00    +0.000 A 
ATOM      5  C   UNL     1       2.888   5.749  19.363  0.00  0.00    +0.000 A 
ATOM      6  O   UNL     1       2.580   6.780  19.952  0.00  0.00    +0.000 OA
ATOM      7  C   UNL     1       2.497   4.453  19.969  0.00  0.00    +0.000 A 
ATOM      8  C   UNL     1       1.742   4.473  21.155  0.00  0.00    +0.000 A 
ATOM      9  C   UNL     1       1.366   3.283  21.766  0.00  0.00    +0.000 A 
ATOM     10  C   UNL     1       1.749   2.079  21.196  0.00  0.00    +0.000 A 
ATOM     11  C   UNL     1       2.503   2.063  20.014  0.00  0.00    +0.000 A 
ATOM     12  C   UNL     1       2.898   3.248  19.364  0.00  0.00    +0.000 A 
ATOM     13  N   UNL     1       3.653   3.286  18.176  0.00  0.00    +0.000 N 
ATOM     14  C   UNL     1       4.106   2.042  17.539  0.00  0.00    +0.000 C 
ATOM     15  C   UNL     1       4.034   4.505  17.548  0.00  0.00    +0.000 A 
ATOM     16  C   UNL     1       4.805   4.520  16.370  0.00  0.00    +0.000 A 
ENDROOT
BRANCH   3  17
ATOM     17  O   UNL     1       3.582   8.148  17.971  0.00  0.00    +0.000 OA
ATOM     18  C   UNL     1       2.344   8.627  17.456  0.00  0.00    +0.000 C 
ENDBRANCH   3  17
BRANCH   1  19
ATOM     19  O   UNL     1       6.054   5.764  14.675  0.00  0.00    +0.000 OA
BRANCH  19  20
ATOM     20  C   UNL     1       6.770   4.556  14.398  0.00  0.00    +0.000 C 
BRANCH  20  22
ATOM     21  C   UNL     1       6.569   3.514  12.129  0.00  0.00    +0.000 C 
ATOM     22  C   UNL     1       6.049   3.799  13.331  0.00  0.00    +0.000 C 
ENDBRANCH  20  22
ENDBRANCH  19  20
ENDBRANCH   1  19
TORSDOF 4
ENDMDL
MODEL 4
REMARK VINA RESULT:      -6.6      2.436      4.317
REMARK  Name = 
REMARK  6 active torsions:
REMARK  status: ('A' for Active; 'I' for Inactive)
REMARK    1  A    between atoms: C_2  and  C_3
REMARK    2  A    between atoms: C_3  and  O_4
REMARK    3  A    between atoms: O_4  and  C_5
REMARK    4  A    between atoms: C_7  and  O_8
REMARK    5  A    between atoms: O_8  and  C_9
REMARK    6  A    between atoms: N_19  and  C_20
REMARK                            x       y       z     vdW  Elec       q    Type
REMARK                         _______ _______ _______ _____ _____    ______ ____
ROOT
ATOM      1  C   UNL     1       0.266   8.554  21.396  0.00  0.00    +0.000 A 
ATOM      2  C   UNL     1       0.446   9.576  20.473  0.00  0.00    +0.000 A 
ATOM      3  C   UNL     1       1.282   9.386  19.367  0.00  0.00    +0.000 A 
ATOM      4  C   UNL     1       1.953   8.152  19.197  0.00  0.00    +0.000 A 
ATOM      5  C   UNL     1       2.801   7.885  18.003  0.00  0.00    +0.000 A 
ATOM      6  O   UNL     1       2.927   8.693  17.089  0.00  0.00    +0.000 OA
ATOM      7  C   UNL     1       3.497   6.581  17.886  0.00  0.00    +0.000 A 
ATOM      8  C   UNL     1       4.313   6.360  16.762  0.00  0.00    +0.000 A 
ATOM      9  C   UNL     1       4.973   5.147  16.604  0.00  0.00    +0.000 A 
ATOM     10  C   UNL     1       4.811   4.158  17.561  0.00  0.00    +0.000 A 
ATOM     11  C   UNL     1       3.996   4.382  18.679  0.00  0.00    +0.000 A 
ATOM     12  C   UNL     1       3.316   5.599  18.877  0.00  0.00    +0.000 A 
ATOM     13  N   UNL     1       2.488   5.874  19.982  0.00  0.00    +0.000 N 
ATOM     14  C   UNL     1       2.262   4.855  21.017  0.00  0.00    +0.000 C 
ATOM     15  C   UNL     1       1.816   7.117  20.147  0.00  0.00    +0.000 A 
ATOM     16  C   UNL     1       0.978   7.364  21.251  0.00  0.00    +0.000 A 
ENDROOT
BRANCH   3  17
ATOM     17  O   UNL     1       1.523  10.399  18.475  0.00  0.00    +0.000 OA
ATOM     18  C   UNL     1       1.130  11.711  18.867  0.00  0.00    +0.000 C 
ENDBRANCH   3  17
BRANCH   1  19
ATOM     19  O   UNL     1      -0.621   8.804  22.413  0.00  0.00    +0.000 OA
BRANCH  19  20
ATOM     20  C   UNL     1      -0.295   9.938  23.224  0.00  0.00    +0.000 C 
BRANCH  20  22
ATOM     21  C   UNL     1      -1.213  12.248  22.908  0.00  0.00    +0.000 C 
ATOM     22  C   UNL     1      -1.401  10.939  23.125  0.00  0.00    +0.000 C 
ENDBRANCH  20  22
ENDBRANCH  19  20
ENDBRANCH   1  19
TORSDOF 4
ENDMDL
MODEL 5
REMARK VINA RESULT:      -6.6      2.592      7.381
REMARK  Name = 
REMARK  6 active torsions:
REMARK  status: ('A' for Active; 'I' for Inactive)
REMARK    1  A    between atoms: C_2  and  C_3
REMARK    2  A    between atoms: C_3  and  O_4
REMARK    3  A    between atoms: O_4  and  C_5
REMARK    4  A    between atoms: C_7  and  O_8
REMARK    5  A    between atoms: O_8  and  C_9
REMARK    6  A    between atoms: N_19  and  C_20
REMARK                            x       y       z     vdW  Elec       q    Type
REMARK                         _______ _______ _______ _____ _____    ______ ____
ROOT
ATOM      1  C   UNL     1       5.965   4.058  15.039  0.00  0.00    +0.000 A 
ATOM      2  C   UNL     1       6.323   5.366  15.340  0.00  0.00    +0.000 A 
ATOM      3  C   UNL     1       5.685   6.047  16.383  0.00  0.00    +0.000 A 
ATOM      4  C   UNL     1       4.665   5.403  17.123  0.00  0.00    +0.000 A 
ATOM      5  C   UNL     1       4.004   6.068  18.280  0.00  0.00    +0.000 A 
ATOM      6  O   UNL     1       4.334   7.180  18.679  0.00  0.00    +0.000 OA
ATOM      7  C   UNL     1       2.929   5.353  19.008  0.00  0.00    +0.000 A 
ATOM      8  C   UNL     1       2.301   6.010  20.082  0.00  0.00    +0.000 A 
ATOM      9  C   UNL     1       1.297   5.373  20.802  0.00  0.00    +0.000 A 
ATOM     10  C   UNL     1       0.929   4.083  20.454  0.00  0.00    +0.000 A 
ATOM     11  C   UNL     1       1.558   3.431  19.384  0.00  0.00    +0.000 A 
ATOM     12  C   UNL     1       2.574   4.045  18.628  0.00  0.00    +0.000 A 
ATOM     13  N   UNL     1       3.235   3.436  17.545  0.00  0.00    +0.000 N 
ATOM     14  C   UNL     1       2.901   2.062  17.145  0.00  0.00    +0.000 C 
ATOM     15  C   UNL     1       4.259   4.089  16.804  0.00  0.00    +0.000 A 
ATOM     16  C   UNL     1       4.919   3.453  15.736  0.00  0.00    +0.000 A 
ENDROOT
BRANCH   3  17
ATOM     17  O   UNL     1       5.977   7.358  16.660  0.00  0.00    +0.000 OA
ATOM     18  C   UNL     1       7.262   7.629  17.211  0.00  0.00    +0.000 C 
ENDBRANCH   3  17
BRANCH   1  19
ATOM     19  O   UNL     1       6.687   3.445  14.046  0.00  0.00    +0.000 OA
BRANCH  19  20
ATOM     20  C   UNL     1       6.467   3.975  12.734  0.00  0.00    +0.000 C 
BRANCH  20  22
ATOM     21  C   UNL     1       5.677   1.993  11.421  0.00  0.00    +0.000 C 
ATOM     22  C   UNL     1       5.427   3.152  12.047  0.00  0.00    +0.000 C 
ENDBRANCH  20  22
ENDBRANCH  19  20
ENDBRANCH   1  19
TORSDOF 4
ENDMDL
MODEL 6
REMARK VINA RESULT:      -6.5      1.403      6.214
REMARK  Name = 
REMARK  6 active torsions:
REMARK  status: ('A' for Active; 'I' for Inactive)
REMARK    1  A    between atoms: C_2  and  C_3
REMARK    2  A    between atoms: C_3  and  O_4
REMARK    3  A    between atoms: O_4  and  C_5
REMARK    4  A    between atoms: C_7  and  O_8
REMARK    5  A    between atoms: O_8  and  C_9
REMARK    6  A    between atoms: N_19  and  C_20
REMARK                            x       y       z     vdW  Elec       q    Type
REMARK                         _______ _______ _______ _____ _____    ______ ____
ROOT
ATOM      1  C   UNL     1       4.794   4.203  17.051  0.00  0.00    +0.000 A 
ATOM      2  C   UNL     1       4.522   3.314  18.082  0.00  0.00    +0.000 A 
ATOM      3  C   UNL     1       3.720   3.709  19.159  0.00  0.00    +0.000 A 
ATOM      4  C   UNL     1       3.196   5.023  19.199  0.00  0.00    +0.000 A 
ATOM      5  C   UNL     1       2.288   5.466  20.292  0.00  0.00    +0.000 A 
ATOM      6  O   UNL     1       1.912   4.712  21.184  0.00  0.00    +0.000 OA
ATOM      7  C   UNL     1       1.783   6.860  20.295  0.00  0.00    +0.000 A 
ATOM      8  C   UNL     1       0.947   7.265  21.351  0.00  0.00    +0.000 A 
ATOM      9  C   UNL     1       0.439   8.557  21.387  0.00  0.00    +0.000 A 
ATOM     10  C   UNL     1       0.761   9.439  20.367  0.00  0.00    +0.000 A 
ATOM     11  C   UNL     1       1.593   9.032  19.315  0.00  0.00    +0.000 A 
ATOM     12  C   UNL     1       2.131   7.733  19.247  0.00  0.00    +0.000 A 
ATOM     13  N   UNL     1       2.973   7.276  18.215  0.00  0.00    +0.000 N 
ATOM     14  C   UNL     1       3.330   8.160  17.097  0.00  0.00    +0.000 C 
ATOM     15  C   UNL     1       3.497   5.954  18.181  0.00  0.00    +0.000 A 
ATOM     16  C   UNL     1       4.322   5.513  17.130  0.00  0.00    +0.000 A 
ENDROOT
BRANCH   3  17
ATOM     17  O   UNL     1       3.486   2.871  20.218  0.00  0.00    +0.000 OA
ATOM     18  C   UNL     1       4.503   1.923  20.527  0.00  0.00    +0.000 C 
ENDBRANCH   3  17
BRANCH   1  19
ATOM     19  O   UNL     1       5.534   3.711  16.005  0.00  0.00    +0.000 OA
BRANCH  19  20
ATOM     20  C   UNL     1       6.619   4.550  15.594  0.00  0.00    +0.000 C 
BRANCH  20  22
ATOM     21  C   UNL     1       5.958   3.751  13.313  0.00  0.00    +0.000 C 
ATOM     22  C   UNL     1       6.699   4.542  14.102  0.00  0.00    +0.000 C 
ENDBRANCH  20  22
ENDBRANCH  19  20
ENDBRANCH   1  19
TORSDOF 4
ENDMDL
MODEL 7
REMARK VINA RESULT:      -6.4      1.672      6.523
REMARK  Name = 
REMARK  6 active torsions:
REMARK  status: ('A' for Active; 'I' for Inactive)
REMARK    1  A    between atoms: C_2  and  C_3
REMARK    2  A    between atoms: C_3  and  O_4
REMARK    3  A    between atoms: O_4  and  C_5
REMARK    4  A    between atoms: C_7  and  O_8
REMARK    5  A    between atoms: O_8  and  C_9
REMARK    6  A    between atoms: N_19  and  C_20
REMARK                            x       y       z     vdW  Elec       q    Type
REMARK                         _______ _______ _______ _____ _____    ______ ____
ROOT
ATOM      1  C   UNL     1       4.494   5.940  16.922  0.00  0.00    +0.000 A 
ATOM      2  C   UNL     1       4.421   4.888  17.824  0.00  0.00    +0.000 A 
ATOM      3  C   UNL     1       3.627   4.998  18.972  0.00  0.00    +0.000 A 
ATOM      4  C   UNL     1       2.906   6.191  19.215  0.00  0.00    +0.000 A 
ATOM      5  C   UNL     1       2.001   6.327  20.389  0.00  0.00    +0.000 A 
ATOM      6  O   UNL     1       1.797   5.409  21.176  0.00  0.00    +0.000 OA
ATOM      7  C   UNL     1       1.284   7.607  20.606  0.00  0.00    +0.000 A 
ATOM      8  C   UNL     1       0.454   7.723  21.735  0.00  0.00    +0.000 A 
ATOM      9  C   UNL     1      -0.248   8.899  21.971  0.00  0.00    +0.000 A 
ATOM     10  C   UNL     1      -0.126   9.951  21.077  0.00  0.00    +0.000 A 
ATOM     11  C   UNL     1       0.702   9.831  19.952  0.00  0.00    +0.000 A 
ATOM     12  C   UNL     1       1.433   8.659  19.683  0.00  0.00    +0.000 A 
ATOM     13  N   UNL     1       2.278   8.489  18.570  0.00  0.00    +0.000 N 
ATOM     14  C   UNL     1       2.430   9.562  17.577  0.00  0.00    +0.000 C 
ATOM     15  C   UNL     1       3.001   7.287  18.331  0.00  0.00    +0.000 A 
ATOM     16  C   UNL     1       3.826   7.133  17.201  0.00  0.00    +0.000 A 
ENDROOT
BRANCH   3  17
ATOM     17  O   UNL     1       3.586   3.997  19.908  0.00  0.00    +0.000 OA
ATOM     18  C   UNL     1       4.205   2.762  19.559  0.00  0.00    +0.000 C 
ENDBRANCH   3  17
BRANCH   1  19
ATOM     19  O   UNL     1       5.243   5.722  15.794  0.00  0.00    +0.000 OA
BRANCH  19  20
ATOM     20  C   UNL     1       5.758   4.391  15.667  0.00  0.00    +0.000 C 
BRANCH  20  22
ATOM     21  C   UNL     1       6.074   3.727  13.272  0.00  0.00    +0.000 C 
ATOM     22  C   UNL     1       6.537   4.292  14.396  0.00  0.00    +0.000 C 
ENDBRANCH  20  22
ENDBRANCH  19  20
ENDBRANCH   1  19
TORSDOF 4
ENDMDL
MODEL 8
REMARK VINA RESULT:      -6.3      3.065      7.163
REMARK  Name = 
REMARK  6 active torsions:
REMARK  status: ('A' for Active; 'I' for Inactive)
REMARK    1  A    between atoms: C_2  and  C_3
REMARK    2  A    between atoms: C_3  and  O_4
REMARK    3  A    between atoms: O_4  and  C_5
REMARK    4  A    between atoms: C_7  and  O_8
REMARK    5  A    between atoms: O_8  and  C_9
REMARK    6  A    between atoms: N_19  and  C_20
REMARK                            x       y       z     vdW  Elec       q    Type
REMARK                         _______ _______ _______ _____ _____    ______ ____
ROOT
ATOM      1  C   UNL     1       6.240   4.454  14.942  0.00  0.00    +0.000 A 
ATOM      2  C   UNL     1       7.049   5.182  15.804  0.00  0.00    +0.000 A 
ATOM      3  C   UNL     1       6.656   5.391  17.131  0.00  0.00    +0.000 A 
ATOM      4  C   UNL     1       5.424   4.866  17.589  0.00  0.00    +0.000 A 
ATOM      5  C   UNL     1       4.997   5.009  19.007  0.00  0.00    +0.000 A 
ATOM      6  O   UNL     1       5.700   5.544  19.858  0.00  0.00    +0.000 OA
ATOM      7  C   UNL     1       3.687   4.456  19.428  0.00  0.00    +0.000 A 
ATOM      8  C   UNL     1       3.292   4.625  20.768  0.00  0.00    +0.000 A 
ATOM      9  C   UNL     1       2.079   4.112  21.210  0.00  0.00    +0.000 A 
ATOM     10  C   UNL     1       1.269   3.425  20.319  0.00  0.00    +0.000 A 
ATOM     11  C   UNL     1       1.667   3.258  18.985  0.00  0.00    +0.000 A 
ATOM     12  C   UNL     1       2.885   3.769  18.499  0.00  0.00    +0.000 A 
ATOM     13  N   UNL     1       3.329   3.629  17.170  0.00  0.00    +0.000 N 
ATOM     14  C   UNL     1       2.523   2.893  16.187  0.00  0.00    +0.000 C 
ATOM     15  C   UNL     1       4.569   4.160  16.715  0.00  0.00    +0.000 A 
ATOM     16  C   UNL     1       5.001   3.993  15.387  0.00  0.00    +0.000 A 
ENDROOT
BRANCH   3  17
ATOM     17  O   UNL     1       7.408   6.156  17.984  0.00  0.00    +0.000 OA
ATOM     18  C   UNL     1       7.605   7.519  17.623  0.00  0.00    +0.000 C 
ENDBRANCH   3  17
BRANCH   1  19
ATOM     19  O   UNL     1       6.733   4.244  13.679  0.00  0.00    +0.000 OA
BRANCH  19  20
ATOM     20  C   UNL     1       6.091   3.189  12.954  0.00  0.00    +0.000 C 
BRANCH  20  22
ATOM     21  C   UNL     1       4.218   3.097  11.294  0.00  0.00    +0.000 C 
ATOM     22  C   UNL     1       5.159   3.788  11.951  0.00  0.00    +0.000 C 
ENDBRANCH  20  22
ENDBRANCH  19  20
ENDBRANCH   1  19
TORSDOF 4
ENDMDL
MODEL 9
REMARK VINA RESULT:      -6.2      1.870      6.107
REMARK  Name = 
REMARK  6 active torsions:
REMARK  status: ('A' for Active; 'I' for Inactive)
REMARK    1  A    between atoms: C_2  and  C_3
REMARK    2  A    between atoms: C_3  and  O_4
REMARK    3  A    between atoms: O_4  and  C_5
REMARK    4  A    between atoms: C_7  and  O_8
REMARK    5  A    between atoms: O_8  and  C_9
REMARK    6  A    between atoms: N_19  and  C_20
REMARK                            x       y       z     vdW  Elec       q    Type
REMARK                         _______ _______ _______ _____ _____    ______ ____
ROOT
ATOM      1  C   UNL     1       4.479   5.962  17.064  0.00  0.00    +0.000 A 
ATOM      2  C   UNL     1       4.349   4.900  17.949  0.00  0.00    +0.000 A 
ATOM      3  C   UNL     1       3.513   5.011  19.065  0.00  0.00    +0.000 A 
ATOM      4  C   UNL     1       2.807   6.216  19.297  0.00  0.00    +0.000 A 
ATOM      5  C   UNL     1       1.859   6.356  20.436  0.00  0.00    +0.000 A 
ATOM      6  O   UNL     1       1.606   5.431  21.201  0.00  0.00    +0.000 OA
ATOM      7  C   UNL     1       1.161   7.647  20.642  0.00  0.00    +0.000 A 
ATOM      8  C   UNL     1       0.289   7.766  21.739  0.00  0.00    +0.000 A 
ATOM      9  C   UNL     1      -0.398   8.953  21.963  0.00  0.00    +0.000 A 
ATOM     10  C   UNL     1      -0.219  10.014  21.090  0.00  0.00    +0.000 A 
ATOM     11  C   UNL     1       0.650   9.891  19.996  0.00  0.00    +0.000 A 
ATOM     12  C   UNL     1       1.367   8.708  19.740  0.00  0.00    +0.000 A 
ATOM     13  N   UNL     1       2.252   8.535  18.659  0.00  0.00    +0.000 N 
ATOM     14  C   UNL     1       2.465   9.617  17.688  0.00  0.00    +0.000 C 
ATOM     15  C   UNL     1       2.959   7.321  18.432  0.00  0.00    +0.000 A 
ATOM     16  C   UNL     1       3.825   7.165  17.334  0.00  0.00    +0.000 A 
ENDROOT
BRANCH   3  17
ATOM     17  O   UNL     1       3.415   3.999  19.985  0.00  0.00    +0.000 OA
ATOM     18  C   UNL     1       4.147   2.808  19.714  0.00  0.00    +0.000 C 
ENDBRANCH   3  17
BRANCH   1  19
ATOM     19  O   UNL     1       5.268   5.743  15.963  0.00  0.00    +0.000 OA
BRANCH  19  20
ATOM     20  C   UNL     1       6.640   5.459  16.259  0.00  0.00    +0.000 C 
BRANCH  20  22
ATOM     21  C   UNL     1       7.706   6.532  18.257  0.00  0.00    +0.000 C 
ATOM     22  C   UNL     1       7.222   6.613  17.009  0.00  0.00    +0.000 C 
ENDBRANCH  20  22
ENDBRANCH  19  20
ENDBRANCH   1  19
TORSDOF 4
ENDMDL
