MODEL 1
REMARK VINA RESULT:      -7.8      0.000      0.000
REMARK  Name = 
REMARK  9 active torsions:
REMARK  status: ('A' for Active; 'I' for Inactive)
REMARK    1  A    between atoms: C_1  and  C_2
REMARK    2  A    between atoms: C_2  and  C_3
REMARK    3  A    between atoms: C_2  and  N_4
REMARK    4  A    between atoms: N_4  and  C_5
REMARK    5  A    between atoms: C_5  and  C_6
REMARK    6  A    between atoms: C_6  and  C_7
REMARK    7  A    between atoms: C_7  and  N_8
REMARK    8  A    between atoms: C_9  and  S_10
REMARK    9  A    between atoms: S_10  and  C_11
REMARK                            x       y       z     vdW  Elec       q    Type
REMARK                         _______ _______ _______ _____ _____    ______ ____
ROOT
ATOM      1  N   UNL     1       3.369   5.644  17.951  0.00  0.00    +0.000 N 
ATOM      2  C   UNL     1       2.513   6.368  18.774  0.00  0.00    +0.000 A 
ATOM      3  N   UNL     1       1.810   5.566  19.546  0.00  0.00    +0.000 NA
ATOM      4  C   UNL     1       2.192   4.276  19.218  0.00  0.00    +0.000 A 
ATOM      5  C   UNL     1       1.786   3.027  19.755  0.00  0.00    +0.000 A 
ATOM      6  N   UNL     1       0.906   2.892  20.817  0.00  0.00    +0.000 N 
ATOM      7  N   UNL     1       2.263   1.880  19.208  0.00  0.00    +0.000 NA
ATOM      8  C   UNL     1       3.129   1.945  18.176  0.00  0.00    +0.000 A 
ATOM      9  C   UNL     1       3.612   3.121  17.609  0.00  0.00    +0.000 A 
ATOM     10  C   UNL     1       3.117   4.297  18.176  0.00  0.00    +0.000 A 
ATOM     11  H   UNL     1       0.276   3.679  20.906  0.00  0.00    +0.000 HD
ATOM     12  H   UNL     1       0.501   1.963  20.823  0.00  0.00    +0.000 HD
ENDROOT
BRANCH   1  13
ATOM     13  C   UNL     1       4.460   6.121  17.081  0.00  0.00    +0.000 C 
BRANCH  13  14
ATOM     14  C   UNL     1       5.820   5.925  17.770  0.00  0.00    +0.000 C 
BRANCH  14  15
ATOM     15  C   UNL     1       7.003   5.413  16.925  0.00  0.00    +0.000 C 
BRANCH  15  16
ATOM     16  N   UNL     1       7.153   5.830  15.521  0.00  0.00    +0.000 NA
ATOM     17  H   UNL     1       6.314   6.380  15.307  0.00  0.00    +0.000 HD
BRANCH  16  19
ATOM     18  C   UNL     1       5.714   4.221  14.317  0.00  0.00    +0.000 C 
ATOM     19  C   UNL     1       7.157   4.722  14.536  0.00  0.00    +0.000 C 
ATOM     20  C   UNL     1       7.702   5.157  13.180  0.00  0.00    +0.000 C 
ENDBRANCH  16  19
ENDBRANCH  15  16
ENDBRANCH  14  15
ENDBRANCH  13  14
ENDBRANCH   1  13
BRANCH   2  21
ATOM     21  S   UNL     1       2.332   8.089  18.635  0.00  0.00    +0.000 S 
BRANCH  21  22
ATOM     22  C   UNL     1       1.310   8.757  19.968  0.00  0.00    +0.000 A 
ATOM     23  C   UNL     1       1.469   8.474  21.331  0.00  0.00    +0.000 A 
ATOM     24  C   UNL     1       0.700   9.125  22.316  0.00  0.00    +0.000 A 
ATOM     25  C   UNL     1      -0.256  10.069  21.958  0.00  0.00    +0.000 A 
ATOM     26 CL   UNL     1      -1.127  10.929  23.169  0.00  0.00    +0.000 Cl
ATOM     27  C   UNL     1      -0.496  10.323  20.621  0.00  0.00    +0.000 A 
ATOM     28  C   UNL     1       0.269   9.669  19.638  0.00  0.00    +0.000 A 
ATOM     29 CL   UNL     1      -0.158  10.055  17.997  0.00  0.00    +0.000 Cl
ENDBRANCH  21  22
ENDBRANCH   2  21
TORSDOF 7
ENDMDL
MODEL 2
REMARK VINA RESULT:      -7.6      1.009      1.813
REMARK  Name = 
REMARK  9 active torsions:
REMARK  status: ('A' for Active; 'I' for Inactive)
REMARK    1  A    between atoms: C_1  and  C_2
REMARK    2  A    between atoms: C_2  and  C_3
REMARK    3  A    between atoms: C_2  and  N_4
REMARK    4  A    between atoms: N_4  and  C_5
REMARK    5  A    between atoms: C_5  and  C_6
REMARK    6  A    between atoms: C_6  and  C_7
REMARK    7  A    between atoms: C_7  and  N_8
REMARK    8  A    between atoms: C_9  and  S_10
REMARK    9  A    between atoms: S_10  and  C_11
REMARK                            x       y       z     vdW  Elec       q    Type
REMARK                         _______ _______ _______ _____ _____    ______ ____
ROOT
ATOM      1  N   UNL     1       3.126   5.548  17.936  0.00  0.00    +0.000 N 
ATOM      2  C   UNL     1       2.441   6.317  18.870  0.00  0.00    +0.000 A 
ATOM      3  N   UNL     1       1.800   5.555  19.731  0.00  0.00    +0.000 NA
ATOM      4  C   UNL     1       2.047   4.246  19.350  0.00  0.00    +0.000 A 
ATOM      5  C   UNL     1       1.636   3.020  19.937  0.00  0.00    +0.000 A 
ATOM      6  N   UNL     1       0.905   2.931  21.110  0.00  0.00    +0.000 N 
ATOM      7  N   UNL     1       1.956   1.851  19.326  0.00  0.00    +0.000 NA
ATOM      8  C   UNL     1       2.674   1.871  18.184  0.00  0.00    +0.000 A 
ATOM      9  C   UNL     1       3.151   3.019  17.558  0.00  0.00    +0.000 A 
ATOM     10  C   UNL     1       2.818   4.218  18.191  0.00  0.00    +0.000 A 
ATOM     11  H   UNL     1       0.346   3.757  21.287  0.00  0.00    +0.000 HD
ATOM     12  H   UNL     1       0.444   2.031  21.170  0.00  0.00    +0.000 HD
ENDROOT
BRANCH   1  13
ATOM     13  C   UNL     1       4.115   5.962  16.924  0.00  0.00    +0.000 C 
BRANCH  13  14
ATOM     14  C   UNL     1       5.434   5.197  17.119  0.00  0.00    +0.000 C 
BRANCH  14  15
ATOM     15  C   UNL     1       6.597   5.482  16.148  0.00  0.00    +0.000 C 
BRANCH  15  16
ATOM     16  N   UNL     1       7.600   6.512  16.466  0.00  0.00    +0.000 NA
ATOM     17  H   UNL     1       8.489   6.009  16.561  0.00  0.00    +0.000 HD
BRANCH  16  19
ATOM     18  C   UNL     1       8.063   6.384  18.891  0.00  0.00    +0.000 C 
ATOM     19  C   UNL     1       7.399   7.202  17.763  0.00  0.00    +0.000 C 
ATOM     20  C   UNL     1       8.022   8.593  17.779  0.00  0.00    +0.000 C 
ENDBRANCH  16  19
ENDBRANCH  15  16
ENDBRANCH  14  15
ENDBRANCH  13  14
ENDBRANCH   1  13
BRANCH   2  21
ATOM     21  S   UNL     1       2.358   8.048  18.762  0.00  0.00    +0.000 S 
BRANCH  21  22
ATOM     22  C   UNL     1       1.312   8.743  20.062  0.00  0.00    +0.000 A 
ATOM     23  C   UNL     1       1.436   8.475  21.432  0.00  0.00    +0.000 A 
ATOM     24  C   UNL     1       0.651   9.146  22.391  0.00  0.00    +0.000 A 
ATOM     25  C   UNL     1      -0.285  10.097  21.999  0.00  0.00    +0.000 A 
ATOM     26 CL   UNL     1      -1.173  10.981  23.179  0.00  0.00    +0.000 Cl
ATOM     27  C   UNL     1      -0.490  10.338  20.654  0.00  0.00    +0.000 A 
ATOM     28  C   UNL     1       0.291   9.663  19.697  0.00  0.00    +0.000 A 
ATOM     29 CL   UNL     1      -0.092  10.036  18.043  0.00  0.00    +0.000 Cl
ENDBRANCH  21  22
ENDBRANCH   2  21
TORSDOF 7
ENDMDL
MODEL 3
REMARK VINA RESULT:      -7.5      1.268      1.557
REMARK  Name = 
REMARK  9 active torsions:
REMARK  status: ('A' for Active; 'I' for Inactive)
REMARK    1  A    between atoms: C_1  and  C_2
REMARK    2  A    between atoms: C_2  and  C_3
REMARK    3  A    between atoms: C_2  and  N_4
REMARK    4  A    between atoms: N_4  and  C_5
REMARK    5  A    between atoms: C_5  and  C_6
REMARK    6  A    between atoms: C_6  and  C_7
REMARK    7  A    between atoms: C_7  and  N_8
REMARK    8  A    between atoms: C_9  and  S_10
REMARK    9  A    between atoms: S_10  and  C_11
REMARK                            x       y       z     vdW  Elec       q    Type
REMARK                         _______ _______ _______ _____ _____    ______ ____
ROOT
ATOM      1  N   UNL     1       3.739   5.950  18.944  0.00  0.00    +0.000 N 
ATOM      2  C   UNL     1       2.609   6.543  19.495  0.00  0.00    +0.000 A 
ATOM      3  N   UNL     1       2.005   5.725  20.331  0.00  0.00    +0.000 NA
ATOM      4  C   UNL     1       2.738   4.550  20.322  0.00  0.00    +0.000 A 
ATOM      5  C   UNL     1       2.564   3.347  21.056  0.00  0.00    +0.000 A 
ATOM      6  N   UNL     1       1.582   3.162  22.015  0.00  0.00    +0.000 N 
ATOM      7  N   UNL     1       3.389   2.297  20.816  0.00  0.00    +0.000 NA
ATOM      8  C   UNL     1       4.371   2.417  19.899  0.00  0.00    +0.000 A 
ATOM      9  C   UNL     1       4.641   3.566  19.160  0.00  0.00    +0.000 A 
ATOM     10  C   UNL     1       3.788   4.643  19.412  0.00  0.00    +0.000 A 
ATOM     11  H   UNL     1       0.773   3.753  21.867  0.00  0.00    +0.000 HD
ATOM     12  H   UNL     1       1.419   2.174  22.167  0.00  0.00    +0.000 HD
ENDROOT
BRANCH   1  13
ATOM     13  C   UNL     1       4.808   6.548  18.125  0.00  0.00    +0.000 C 
BRANCH  13  14
ATOM     14  C   UNL     1       4.373   6.634  16.653  0.00  0.00    +0.000 C 
BRANCH  14  15
ATOM     15  C   UNL     1       5.395   6.257  15.562  0.00  0.00    +0.000 C 
BRANCH  15  16
ATOM     16  N   UNL     1       6.817   6.083  15.901  0.00  0.00    +0.000 NA
ATOM     17  H   UNL     1       7.337   6.439  15.091  0.00  0.00    +0.000 HD
BRANCH  16  19
ATOM     18  C   UNL     1       7.685   4.433  17.523  0.00  0.00    +0.000 C 
ATOM     19  C   UNL     1       7.256   4.676  16.061  0.00  0.00    +0.000 C 
ATOM     20  C   UNL     1       6.143   3.685  15.739  0.00  0.00    +0.000 C 
ENDBRANCH  16  19
ENDBRANCH  15  16
ENDBRANCH  14  15
ENDBRANCH  13  14
ENDBRANCH   1  13
BRANCH   2  21
ATOM     21  S   UNL     1       2.041   8.103  18.984  0.00  0.00    +0.000 S 
BRANCH  21  22
ATOM     22  C   UNL     1       1.037   8.893  20.263  0.00  0.00    +0.000 A 
ATOM     23  C   UNL     1       1.166   8.680  21.642  0.00  0.00    +0.000 A 
ATOM     24  C   UNL     1       0.418   9.422  22.578  0.00  0.00    +0.000 A 
ATOM     25  C   UNL     1      -0.486  10.390  22.154  0.00  0.00    +0.000 A 
ATOM     26 CL   UNL     1      -1.326  11.359  23.302  0.00  0.00    +0.000 Cl
ATOM     27  C   UNL     1      -0.697  10.581  20.801  0.00  0.00    +0.000 A 
ATOM     28  C   UNL     1       0.047   9.835  19.868  0.00  0.00    +0.000 A 
ATOM     29 CL   UNL     1      -0.340  10.150  18.202  0.00  0.00    +0.000 Cl
ENDBRANCH  21  22
ENDBRANCH   2  21
TORSDOF 7
ENDMDL
MODEL 4
REMARK VINA RESULT:      -7.5      1.749      5.171
REMARK  Name = 
REMARK  9 active torsions:
REMARK  status: ('A' for Active; 'I' for Inactive)
REMARK    1  A    between atoms: C_1  and  C_2
REMARK    2  A    between atoms: C_2  and  C_3
REMARK    3  A    between atoms: C_2  and  N_4
REMARK    4  A    between atoms: N_4  and  C_5
REMARK    5  A    between atoms: C_5  and  C_6
REMARK    6  A    between atoms: C_6  and  C_7
REMARK    7  A    between atoms: C_7  and  N_8
REMARK    8  A    between atoms: C_9  and  S_10
REMARK    9  A    between atoms: S_10  and  C_11
REMARK                            x       y       z     vdW  Elec       q    Type
REMARK                         _______ _______ _______ _____ _____    ______ ____
ROOT
ATOM      1  N   UNL     1       3.767   4.848  17.365  0.00  0.00    +0.000 N 
ATOM      2  C   UNL     1       3.841   5.982  18.165  0.00  0.00    +0.000 A 
ATOM      3  N   UNL     1       4.984   6.610  17.989  0.00  0.00    +0.000 NA
ATOM      4  C   UNL     1       5.698   5.868  17.063  0.00  0.00    +0.000 A 
ATOM      5  C   UNL     1       6.972   6.095  16.480  0.00  0.00    +0.000 A 
ATOM      6  N   UNL     1       7.746   7.217  16.729  0.00  0.00    +0.000 N 
ATOM      7  N   UNL     1       7.492   5.170  15.635  0.00  0.00    +0.000 NA
ATOM      8  C   UNL     1       6.783   4.059  15.346  0.00  0.00    +0.000 A 
ATOM      9  C   UNL     1       5.513   3.769  15.838  0.00  0.00    +0.000 A 
ATOM     10  C   UNL     1       4.985   4.725  16.709  0.00  0.00    +0.000 A 
ATOM     11  H   UNL     1       7.550   7.638  17.629  0.00  0.00    +0.000 HD
ATOM     12  H   UNL     1       8.716   7.034  16.498  0.00  0.00    +0.000 HD
ENDROOT
BRANCH   1  13
ATOM     13  C   UNL     1       2.618   3.965  17.093  0.00  0.00    +0.000 C 
BRANCH  13  14
ATOM     14  C   UNL     1       3.039   2.490  17.193  0.00  0.00    +0.000 C 
BRANCH  14  15
ATOM     15  C   UNL     1       3.018   1.813  18.577  0.00  0.00    +0.000 C 
BRANCH  15  16
ATOM     16  N   UNL     1       3.147   2.617  19.803  0.00  0.00    +0.000 NA
ATOM     17  H   UNL     1       3.893   2.169  20.348  0.00  0.00    +0.000 HD
BRANCH  16  19
ATOM     18  C   UNL     1       2.189   3.567  21.874  0.00  0.00    +0.000 C 
ATOM     19  C   UNL     1       1.957   2.609  20.687  0.00  0.00    +0.000 C 
ATOM     20  C   UNL     1       0.698   3.072  19.963  0.00  0.00    +0.000 C 
ENDBRANCH  16  19
ENDBRANCH  15  16
ENDBRANCH  14  15
ENDBRANCH  13  14
ENDBRANCH   1  13
BRANCH   2  21
ATOM     21  S   UNL     1       2.619   6.369  19.336  0.00  0.00    +0.000 S 
BRANCH  21  22
ATOM     22  C   UNL     1       2.013   8.060  19.125  0.00  0.00    +0.000 A 
ATOM     23  C   UNL     1       2.184   8.845  17.977  0.00  0.00    +0.000 A 
ATOM     24  C   UNL     1       1.583  10.113  17.853  0.00  0.00    +0.000 A 
ATOM     25  C   UNL     1       0.803  10.631  18.881  0.00  0.00    +0.000 A 
ATOM     26 CL   UNL     1      -0.006  12.138  18.686  0.00  0.00    +0.000 Cl
ATOM     27  C   UNL     1       0.669   9.921  20.059  0.00  0.00    +0.000 A 
ATOM     28  C   UNL     1       1.275   8.657  20.184  0.00  0.00    +0.000 A 
ATOM     29 CL   UNL     1       1.056   7.887  21.728  0.00  0.00    +0.000 Cl
ENDBRANCH  21  22
ENDBRANCH   2  21
TORSDOF 7
ENDMDL
MODEL 5
REMARK VINA RESULT:      -7.2      0.936      1.047
REMARK  Name = 
REMARK  9 active torsions:
REMARK  status: ('A' for Active; 'I' for Inactive)
REMARK    1  A    between atoms: C_1  and  C_2
REMARK    2  A    between atoms: C_2  and  C_3
REMARK    3  A    between atoms: C_2  and  N_4
REMARK    4  A    between atoms: N_4  and  C_5
REMARK    5  A    between atoms: C_5  and  C_6
REMARK    6  A    between atoms: C_6  and  C_7
REMARK    7  A    between atoms: C_7  and  N_8
REMARK    8  A    between atoms: C_9  and  S_10
REMARK    9  A    between atoms: S_10  and  C_11
REMARK                            x       y       z     vdW  Elec       q    Type
REMARK                         _______ _______ _______ _____ _____    ______ ____
ROOT
ATOM      1  N   UNL     1       3.700   5.764  18.738  0.00  0.00    +0.000 N 
ATOM      2  C   UNL     1       2.586   6.412  19.260  0.00  0.00    +0.000 A 
ATOM      3  N   UNL     1       1.830   5.578  19.942  0.00  0.00    +0.000 NA
ATOM      4  C   UNL     1       2.445   4.340  19.858  0.00  0.00    +0.000 A 
ATOM      5  C   UNL     1       2.088   3.090  20.431  0.00  0.00    +0.000 A 
ATOM      6  N   UNL     1       1.007   2.909  21.278  0.00  0.00    +0.000 N 
ATOM      7  N   UNL     1       2.827   1.990  20.140  0.00  0.00    +0.000 NA
ATOM      8  C   UNL     1       3.898   2.103  19.327  0.00  0.00    +0.000 A 
ATOM      9  C   UNL     1       4.345   3.289  18.751  0.00  0.00    +0.000 A 
ATOM     10  C   UNL     1       3.579   4.417  19.054  0.00  0.00    +0.000 A 
ATOM     11  H   UNL     1       0.276   3.595  21.133  0.00  0.00    +0.000 HD
ATOM     12  H   UNL     1       0.737   1.933  21.300  0.00  0.00    +0.000 HD
ENDROOT
BRANCH   1  13
ATOM     13  C   UNL     1       4.894   6.330  18.085  0.00  0.00    +0.000 C 
BRANCH  13  14
ATOM     14  C   UNL     1       4.572   6.741  16.639  0.00  0.00    +0.000 C 
BRANCH  14  15
ATOM     15  C   UNL     1       5.293   6.009  15.490  0.00  0.00    +0.000 C 
BRANCH  15  16
ATOM     16  N   UNL     1       5.284   4.538  15.420  0.00  0.00    +0.000 NA
ATOM     17  H   UNL     1       5.626   4.218  16.334  0.00  0.00    +0.000 HD
BRANCH  16  19
ATOM     18  C   UNL     1       5.448   3.639  13.124  0.00  0.00    +0.000 C 
ATOM     19  C   UNL     1       6.215   3.952  14.426  0.00  0.00    +0.000 C 
ATOM     20  C   UNL     1       7.353   4.903  14.071  0.00  0.00    +0.000 C 
ENDBRANCH  16  19
ENDBRANCH  15  16
ENDBRANCH  14  15
ENDBRANCH  13  14
ENDBRANCH   1  13
BRANCH   2  21
ATOM     21  S   UNL     1       2.221   8.068  18.887  0.00  0.00    +0.000 S 
BRANCH  21  22
ATOM     22  C   UNL     1       1.182   8.819  20.161  0.00  0.00    +0.000 A 
ATOM     23  C   UNL     1       1.298   8.593  21.540  0.00  0.00    +0.000 A 
ATOM     24  C   UNL     1       0.521   9.306  22.474  0.00  0.00    +0.000 A 
ATOM     25  C   UNL     1      -0.400  10.258  22.050  0.00  0.00    +0.000 A 
ATOM     26 CL   UNL     1      -1.279  11.192  23.198  0.00  0.00    +0.000 Cl
ATOM     27  C   UNL     1      -0.598  10.459  20.697  0.00  0.00    +0.000 A 
ATOM     28  C   UNL     1       0.175   9.743  19.764  0.00  0.00    +0.000 A 
ATOM     29 CL   UNL     1      -0.198  10.068  18.097  0.00  0.00    +0.000 Cl
ENDBRANCH  21  22
ENDBRANCH   2  21
TORSDOF 7
ENDMDL
MODEL 6
REMARK VINA RESULT:      -7.0      1.034      1.839
REMARK  Name = 
REMARK  9 active torsions:
REMARK  status: ('A' for Active; 'I' for Inactive)
REMARK    1  A    between atoms: C_1  and  C_2
REMARK    2  A    between atoms: C_2  and  C_3
REMARK    3  A    between atoms: C_2  and  N_4
REMARK    4  A    between atoms: N_4  and  C_5
REMARK    5  A    between atoms: C_5  and  C_6
REMARK    6  A    between atoms: C_6  and  C_7
REMARK    7  A    between atoms: C_7  and  N_8
REMARK    8  A    between atoms: C_9  and  S_10
REMARK    9  A    between atoms: S_10  and  C_11
REMARK                            x       y       z     vdW  Elec       q    Type
REMARK                         _______ _______ _______ _____ _____    ______ ____
ROOT
ATOM      1  N   UNL     1       3.309   5.886  17.987  0.00  0.00    +0.000 N 
ATOM      2  C   UNL     1       2.414   6.572  18.801  0.00  0.00    +0.000 A 
ATOM      3  N   UNL     1       1.737   5.741  19.564  0.00  0.00    +0.000 NA
ATOM      4  C   UNL     1       2.177   4.469  19.240  0.00  0.00    +0.000 A 
ATOM      5  C   UNL     1       1.817   3.202  19.772  0.00  0.00    +0.000 A 
ATOM      6  N   UNL     1       0.932   3.030  20.823  0.00  0.00    +0.000 N 
ATOM      7  N   UNL     1       2.348   2.078  19.229  0.00  0.00    +0.000 NA
ATOM      8  C   UNL     1       3.222   2.180  18.207  0.00  0.00    +0.000 A 
ATOM      9  C   UNL     1       3.662   3.376  17.645  0.00  0.00    +0.000 A 
ATOM     10  C   UNL     1       3.111   4.529  18.208  0.00  0.00    +0.000 A 
ATOM     11  H   UNL     1       0.268   3.789  20.907  0.00  0.00    +0.000 HD
ATOM     12  H   UNL     1       0.567   2.085  20.824  0.00  0.00    +0.000 HD
ENDROOT
BRANCH   1  13
ATOM     13  C   UNL     1       4.388   6.409  17.130  0.00  0.00    +0.000 C 
BRANCH  13  14
ATOM     14  C   UNL     1       4.893   5.315  16.174  0.00  0.00    +0.000 C 
BRANCH  14  15
ATOM     15  C   UNL     1       6.407   5.036  16.114  0.00  0.00    +0.000 C 
BRANCH  15  16
ATOM     16  N   UNL     1       7.091   4.380  17.241  0.00  0.00    +0.000 NA
ATOM     17  H   UNL     1       6.363   3.849  17.732  0.00  0.00    +0.000 HD
BRANCH  16  19
ATOM     18  C   UNL     1       7.775   6.719  17.652  0.00  0.00    +0.000 C 
ATOM     19  C   UNL     1       7.655   5.303  18.255  0.00  0.00    +0.000 C 
ATOM     20  C   UNL     1       6.774   5.406  19.495  0.00  0.00    +0.000 C 
ENDBRANCH  16  19
ENDBRANCH  15  16
ENDBRANCH  14  15
ENDBRANCH  13  14
ENDBRANCH   1  13
BRANCH   2  21
ATOM     21  S   UNL     1       2.163   8.284  18.661  0.00  0.00    +0.000 S 
BRANCH  21  22
ATOM     22  C   UNL     1       1.141   8.915  20.012  0.00  0.00    +0.000 A 
ATOM     23  C   UNL     1       1.294   8.587  21.366  0.00  0.00    +0.000 A 
ATOM     24  C   UNL     1       0.526   9.211  22.369  0.00  0.00    +0.000 A 
ATOM     25  C   UNL     1      -0.422  10.174  22.040  0.00  0.00    +0.000 A 
ATOM     26 CL   UNL     1      -1.290  11.000  23.275  0.00  0.00    +0.000 Cl
ATOM     27  C   UNL     1      -0.656  10.473  20.711  0.00  0.00    +0.000 A 
ATOM     28  C   UNL     1       0.108   9.846  19.710  0.00  0.00    +0.000 A 
ATOM     29 CL   UNL     1      -0.310  10.289  18.081  0.00  0.00    +0.000 Cl
ENDBRANCH  21  22
ENDBRANCH   2  21
TORSDOF 7
ENDMDL
MODEL 7
REMARK VINA RESULT:      -6.9      1.760      5.154
REMARK  Name = 
REMARK  9 active torsions:
REMARK  status: ('A' for Active; 'I' for Inactive)
REMARK    1  A    between atoms: C_1  and  C_2
REMARK    2  A    between atoms: C_2  and  C_3
REMARK    3  A    between atoms: C_2  and  N_4
REMARK    4  A    between atoms: N_4  and  C_5
REMARK    5  A    between atoms: C_5  and  C_6
REMARK    6  A    between atoms: C_6  and  C_7
REMARK    7  A    between atoms: C_7  and  N_8
REMARK    8  A    between atoms: C_9  and  S_10
REMARK    9  A    between atoms: S_10  and  C_11
REMARK                            x       y       z     vdW  Elec       q    Type
REMARK                         _______ _______ _______ _____ _____    ______ ____
ROOT
ATOM      1  N   UNL     1       3.789   4.850  17.359  0.00  0.00    +0.000 N 
ATOM      2  C   UNL     1       3.831   5.997  18.142  0.00  0.00    +0.000 A 
ATOM      3  N   UNL     1       4.965   6.644  17.973  0.00  0.00    +0.000 NA
ATOM      4  C   UNL     1       5.705   5.901  17.069  0.00  0.00    +0.000 A 
ATOM      5  C   UNL     1       6.984   6.143  16.501  0.00  0.00    +0.000 A 
ATOM      6  N   UNL     1       7.733   7.282  16.743  0.00  0.00    +0.000 N 
ATOM      7  N   UNL     1       7.532   5.214  15.678  0.00  0.00    +0.000 NA
ATOM      8  C   UNL     1       6.848   4.086  15.397  0.00  0.00    +0.000 A 
ATOM      9  C   UNL     1       5.577   3.779  15.875  0.00  0.00    +0.000 A 
ATOM     10  C   UNL     1       5.019   4.739  16.723  0.00  0.00    +0.000 A 
ATOM     11  H   UNL     1       7.516   7.713  17.633  0.00  0.00    +0.000 HD
ATOM     12  H   UNL     1       8.709   7.114  16.529  0.00  0.00    +0.000 HD
ENDROOT
BRANCH   1  13
ATOM     13  C   UNL     1       2.661   3.942  17.085  0.00  0.00    +0.000 C 
BRANCH  13  14
ATOM     14  C   UNL     1       1.477   4.260  18.014  0.00  0.00    +0.000 C 
BRANCH  14  15
ATOM     15  C   UNL     1       1.028   3.186  19.024  0.00  0.00    +0.000 C 
BRANCH  15  16
ATOM     16  N   UNL     1       1.909   2.052  19.350  0.00  0.00    +0.000 NA
ATOM     17  H   UNL     1       1.281   1.265  19.547  0.00  0.00    +0.000 HD
BRANCH  16  19
ATOM     18  C   UNL     1       4.157   2.641  20.191  0.00  0.00    +0.000 C 
ATOM     19  C   UNL     1       2.723   2.224  20.577  0.00  0.00    +0.000 C 
ATOM     20  C   UNL     1       2.162   3.304  21.495  0.00  0.00    +0.000 C 
ENDBRANCH  16  19
ENDBRANCH  15  16
ENDBRANCH  14  15
ENDBRANCH  13  14
ENDBRANCH   1  13
BRANCH   2  21
ATOM     21  S   UNL     1       2.585   6.380  19.289  0.00  0.00    +0.000 S 
BRANCH  21  22
ATOM     22  C   UNL     1       2.007   8.082  19.094  0.00  0.00    +0.000 A 
ATOM     23  C   UNL     1       2.187   8.874  17.952  0.00  0.00    +0.000 A 
ATOM     24  C   UNL     1       1.607  10.153  17.840  0.00  0.00    +0.000 A 
ATOM     25  C   UNL     1       0.838  10.675  18.875  0.00  0.00    +0.000 A 
ATOM     26 CL   UNL     1       0.054  12.197  18.695  0.00  0.00    +0.000 Cl
ATOM     27  C   UNL     1       0.696   9.957  20.047  0.00  0.00    +0.000 A 
ATOM     28  C   UNL     1       1.281   8.682  20.160  0.00  0.00    +0.000 A 
ATOM     29 CL   UNL     1       1.053   7.904  21.698  0.00  0.00    +0.000 Cl
ENDBRANCH  21  22
ENDBRANCH   2  21
TORSDOF 7
ENDMDL
MODEL 8
REMARK VINA RESULT:      -6.9      4.274      8.762
REMARK  Name = 
REMARK  9 active torsions:
REMARK  status: ('A' for Active; 'I' for Inactive)
REMARK    1  A    between atoms: C_1  and  C_2
REMARK    2  A    between atoms: C_2  and  C_3
REMARK    3  A    between atoms: C_2  and  N_4
REMARK    4  A    between atoms: N_4  and  C_5
REMARK    5  A    between atoms: C_5  and  C_6
REMARK    6  A    between atoms: C_6  and  C_7
REMARK    7  A    between atoms: C_7  and  N_8
REMARK    8  A    between atoms: C_9  and  S_10
REMARK    9  A    between atoms: S_10  and  C_11
REMARK                            x       y       z     vdW  Elec       q    Type
REMARK                         _______ _______ _______ _____ _____    ______ ____
ROOT
ATOM      1  N   UNL     1       0.091  10.266  19.358  0.00  0.00    +0.000 N 
ATOM      2  C   UNL     1       0.940   9.215  19.684  0.00  0.00    +0.000 A 
ATOM      3  N   UNL     1       0.929   8.982  20.979  0.00  0.00    +0.000 NA
ATOM      4  C   UNL     1       0.066   9.912  21.534  0.00  0.00    +0.000 A 
ATOM      5  C   UNL     1      -0.349  10.100  22.879  0.00  0.00    +0.000 A 
ATOM      6  N   UNL     1       0.037   9.283  23.928  0.00  0.00    +0.000 N 
ATOM      7  N   UNL     1      -1.163  11.142  23.184  0.00  0.00    +0.000 NA
ATOM      8  C   UNL     1      -1.579  11.971  22.204  0.00  0.00    +0.000 A 
ATOM      9  C   UNL     1      -1.256  11.843  20.856  0.00  0.00    +0.000 A 
ATOM     10  C   UNL     1      -0.418  10.769  20.549  0.00  0.00    +0.000 A 
ATOM     11  H   UNL     1       0.923   8.822  23.761  0.00  0.00    +0.000 HD
ATOM     12  H   UNL     1      -0.083   9.764  24.812  0.00  0.00    +0.000 HD
ENDROOT
BRANCH   1  13
ATOM     13  C   UNL     1      -0.353  10.739  18.035  0.00  0.00    +0.000 C 
BRANCH  13  14
ATOM     14  C   UNL     1      -1.733  10.153  17.690  0.00  0.00    +0.000 C 
BRANCH  14  15
ATOM     15  C   UNL     1      -2.670  10.969  16.780  0.00  0.00    +0.000 C 
BRANCH  15  16
ATOM     16  N   UNL     1      -3.645  11.907  17.361  0.00  0.00    +0.000 NA
ATOM     17  H   UNL     1      -3.482  11.880  18.374  0.00  0.00    +0.000 HD
BRANCH  16  19
ATOM     18  C   UNL     1      -5.539  10.712  18.406  0.00  0.00    +0.000 C 
ATOM     19  C   UNL     1      -5.066  11.524  17.182  0.00  0.00    +0.000 C 
ATOM     20  C   UNL     1      -5.979  12.738  17.057  0.00  0.00    +0.000 C 
ENDBRANCH  16  19
ENDBRANCH  15  16
ENDBRANCH  14  15
ENDBRANCH  13  14
ENDBRANCH   1  13
BRANCH   2  21
ATOM     21  S   UNL     1       1.970   8.460  18.507  0.00  0.00    +0.000 S 
BRANCH  21  22
ATOM     22  C   UNL     1       2.547   6.843  19.073  0.00  0.00    +0.000 A 
ATOM     23  C   UNL     1       2.024   6.131  20.161  0.00  0.00    +0.000 A 
ATOM     24  C   UNL     1       2.458   4.825  20.467  0.00  0.00    +0.000 A 
ATOM     25  C   UNL     1       3.434   4.204  19.695  0.00  0.00    +0.000 A 
ATOM     26 CL   UNL     1       3.891   2.576  20.015  0.00  0.00    +0.000 Cl
ATOM     27  C   UNL     1       4.027   4.899  18.658  0.00  0.00    +0.000 A 
ATOM     28  C   UNL     1       3.598   6.205  18.357  0.00  0.00    +0.000 A 
ATOM     29 CL   UNL     1       4.450   6.975  17.052  0.00  0.00    +0.000 Cl
ENDBRANCH  21  22
ENDBRANCH   2  21
TORSDOF 7
ENDMDL
MODEL 9
REMARK VINA RESULT:      -6.9      1.442      2.320
REMARK  Name = 
REMARK  9 active torsions:
REMARK  status: ('A' for Active; 'I' for Inactive)
REMARK    1  A    between atoms: C_1  and  C_2
REMARK    2  A    between atoms: C_2  and  C_3
REMARK    3  A    between atoms: C_2  and  N_4
REMARK    4  A    between atoms: N_4  and  C_5
REMARK    5  A    between atoms: C_5  and  C_6
REMARK    6  A    between atoms: C_6  and  C_7
REMARK    7  A    between atoms: C_7  and  N_8
REMARK    8  A    between atoms: C_9  and  S_10
REMARK    9  A    between atoms: S_10  and  C_11
REMARK                            x       y       z     vdW  Elec       q    Type
REMARK                         _______ _______ _______ _____ _____    ______ ____
ROOT
ATOM      1  N   UNL     1       2.445   6.497  18.725  0.00  0.00    +0.000 N 
ATOM      2  C   UNL     1       2.038   6.882  19.998  0.00  0.00    +0.000 A 
ATOM      3  N   UNL     1       1.607   5.848  20.689  0.00  0.00    +0.000 NA
ATOM      4  C   UNL     1       1.711   4.750  19.852  0.00  0.00    +0.000 A 
ATOM      5  C   UNL     1       1.422   3.379  20.085  0.00  0.00    +0.000 A 
ATOM      6  N   UNL     1       1.002   2.875  21.304  0.00  0.00    +0.000 N 
ATOM      7  N   UNL     1       1.544   2.492  19.066  0.00  0.00    +0.000 NA
ATOM      8  C   UNL     1       1.956   2.920  17.855  0.00  0.00    +0.000 A 
ATOM      9  C   UNL     1       2.298   4.233  17.543  0.00  0.00    +0.000 A 
ATOM     10  C   UNL     1       2.169   5.142  18.596  0.00  0.00    +0.000 A 
ATOM     11  H   UNL     1       0.531   3.566  21.874  0.00  0.00    +0.000 HD
ATOM     12  H   UNL     1       0.543   1.981  21.177  0.00  0.00    +0.000 HD
ENDROOT
BRANCH   1  13
ATOM     13  C   UNL     1       3.164   7.270  17.697  0.00  0.00    +0.000 C 
BRANCH  13  14
ATOM     14  C   UNL     1       4.646   6.861  17.655  0.00  0.00    +0.000 C 
BRANCH  14  15
ATOM     15  C   UNL     1       5.259   6.460  16.300  0.00  0.00    +0.000 C 
BRANCH  15  16
ATOM     16  N   UNL     1       6.659   6.012  16.217  0.00  0.00    +0.000 NA
ATOM     17  H   UNL     1       7.129   6.691  15.607  0.00  0.00    +0.000 HD
BRANCH  16  19
ATOM     18  C   UNL     1       5.738   3.729  16.002  0.00  0.00    +0.000 C 
ATOM     19  C   UNL     1       6.859   4.695  15.566  0.00  0.00    +0.000 C 
ATOM     20  C   UNL     1       6.815   4.792  14.045  0.00  0.00    +0.000 C 
ENDBRANCH  16  19
ENDBRANCH  15  16
ENDBRANCH  14  15
ENDBRANCH  13  14
ENDBRANCH   1  13
BRANCH   2  21
ATOM     21  S   UNL     1       1.983   8.547  20.487  0.00  0.00    +0.000 S 
BRANCH  21  22
ATOM     22  C   UNL     1       0.667   9.444  19.634  0.00  0.00    +0.000 A 
ATOM     23  C   UNL     1       0.463   9.461  18.247  0.00  0.00    +0.000 A 
ATOM     24  C   UNL     1      -0.656  10.096  17.672  0.00  0.00    +0.000 A 
ATOM     25  C   UNL     1      -1.594  10.739  18.472  0.00  0.00    +0.000 A 
ATOM     26 CL   UNL     1      -3.007  11.431  17.772  0.00  0.00    +0.000 Cl
ATOM     27  C   UNL     1      -1.393  10.809  19.837  0.00  0.00    +0.000 A 
ATOM     28  C   UNL     1      -0.272  10.179  20.410  0.00  0.00    +0.000 A 
ATOM     29 CL   UNL     1      -0.122  10.373  22.132  0.00  0.00    +0.000 Cl
ENDBRANCH  21  22
ENDBRANCH   2  21
TORSDOF 7
ENDMDL
