MODEL 1
REMARK VINA RESULT:      -5.2      0.000      0.000
REMARK  Name = 
REMARK  15 active torsions:
REMARK  status: ('A' for Active; 'I' for Inactive)
REMARK    1  A    between atoms: C_1  and  C_2
REMARK    2  A    between atoms: C_2  and  C_3
REMARK    3  A    between atoms: C_3  and  C_4
REMARK    4  A    between atoms: C_3  and  S_5
REMARK    5  A    between atoms: S_5  and  C_6
REMARK    6  A    between atoms: C_8  and  C_9
REMARK    7  A    between atoms: N_11  and  CA_12
REMARK    8  A    between atoms: CA_12  and  CB_13
REMARK    9  A    between atoms: CA_12  and  C_17
REMARK   10  A    between atoms: CB_13  and  CG_14
REMARK   11  A    between atoms: CG_14  and  SD_15
REMARK   12  A    between atoms: SD_15  and  CE_16
REMARK   13  A    between atoms: C_17  and  OXT_19
REMARK   14  A    between atoms: C_20  and  C_21
REMARK   15  A    between atoms: C_28  and  C_29
REMARK                            x       y       z     vdW  Elec       q    Type
REMARK                         _______ _______ _______ _____ _____    ______ ____
ROOT
ATOM      1  C   UNK A   0       0.818  14.692  19.611  0.00  0.00    +0.000 A 
ATOM      2  S   UNK A   0       0.447  13.449  18.496  0.00  0.00    +0.000 S 
ATOM      3  C   UNK A   0      -0.851  12.841  19.449  0.00  0.00    +0.000 A 
ATOM      4  C   UNK A   0      -1.020  13.599  20.615  0.00  0.00    +0.000 A 
ATOM      5  C   UNK A   0      -0.073  14.699  20.665  0.00  0.00    +0.000 A 
ENDROOT
BRANCH   4   6
ATOM      6  C   UNK A   0      -2.032  13.282  21.645  0.00  0.00    +0.000 A 
ATOM      7  C   UNK A   0      -3.284  13.918  21.667  0.00  0.00    +0.000 A 
ATOM      8  C   UNK A   0      -4.218  13.643  22.671  0.00  0.00    +0.000 A 
ATOM      9  C   UNK A   0      -3.952  12.659  23.620  0.00  0.00    +0.000 A 
ATOM     10 CL   UNK A   0      -5.107  12.303  24.834  0.00  0.00    +0.000 Cl
ATOM     11  C   UNK A   0      -2.747  11.964  23.580  0.00  0.00    +0.000 A 
ATOM     12  C   UNK A   0      -1.785  12.298  22.621  0.00  0.00    +0.000 A 
ENDBRANCH   4   6
BRANCH   3  13
ATOM     13  C   UNK A   0      -1.643  11.712  18.948  0.00  0.00    +0.000 C 
ATOM     14  O   UNK A   0      -1.295  10.538  19.073  0.00  0.00    +0.000 OA
ATOM     15  N   MET A   1      -2.807  12.000  18.264  0.00  0.00    +0.000 N 
ATOM     16  H   MET A   1      -3.106  12.963  18.130  0.00  0.00    +0.000 HD
BRANCH  15  17
ATOM     17  CA  MET A   1      -3.600  10.932  17.634  0.00  0.00    +0.000 C 
BRANCH  17  18
ATOM     18  C   MET A   1      -3.093  10.695  16.209  0.00  0.00    +0.000 C 
ATOM     19  O   MET A   1      -2.522   9.666  15.860  0.00  0.00    +0.000 OA
BRANCH  18  20
ATOM     20  OXT MET A   1      -3.302  11.728  15.362  0.00  0.00    +0.000 OA
ATOM     21  HXT MET A   1      -2.480  12.125  14.990  0.00  0.00    +0.000 HD
ENDBRANCH  18  20
ENDBRANCH  17  18
BRANCH  17  22
ATOM     22  CB  MET A   1      -5.094  11.292  17.637  0.00  0.00    +0.000 C 
BRANCH  22  23
ATOM     23  CG  MET A   1      -5.518  12.277  18.731  0.00  0.00    +0.000 C 
BRANCH  23  24
ATOM     24  SD  MET A   1      -7.285  12.165  19.170  0.00  0.00    +0.000 S 
ATOM     25  CE  MET A   1      -7.228  10.674  20.205  0.00  0.00    +0.000 C 
ENDBRANCH  23  24
ENDBRANCH  22  23
ENDBRANCH  17  22
ENDBRANCH  15  17
ENDBRANCH   3  13
BRANCH   5  26
ATOM     26  C   UNK A   0      -0.013  15.692  21.703  0.00  0.00    +0.000 C 
ATOM     27  N   UNK A   0       0.055  16.489  22.545  0.00  0.00    +0.000 NA
ENDBRANCH   5  26
BRANCH   1  28
ATOM     28  S   UNK A   0       2.192  15.783  19.340  0.00  0.00    +0.000 S 
BRANCH  28  29
ATOM     29  C   UNK A   0       3.568  14.881  20.183  0.00  0.00    +0.000 C 
ATOM     30  C   UNK A   0       3.651  15.328  21.645  0.00  0.00    +0.000 C 
BRANCH  29  32
ATOM     31  C   UNK A   0       4.833  14.713  17.966  0.00  0.00    +0.000 C 
ATOM     32  C   UNK A   0       4.882  15.130  19.429  0.00  0.00    +0.000 C 
ENDBRANCH  29  32
ENDBRANCH  28  29
ENDBRANCH   1  28
TORSDOF 12
ENDMDL
MODEL 2
REMARK VINA RESULT:      -4.9     10.405     12.681
REMARK  Name = 
REMARK  15 active torsions:
REMARK  status: ('A' for Active; 'I' for Inactive)
REMARK    1  A    between atoms: C_1  and  C_2
REMARK    2  A    between atoms: C_2  and  C_3
REMARK    3  A    between atoms: C_3  and  C_4
REMARK    4  A    between atoms: C_3  and  S_5
REMARK    5  A    between atoms: S_5  and  C_6
REMARK    6  A    between atoms: C_8  and  C_9
REMARK    7  A    between atoms: N_11  and  CA_12
REMARK    8  A    between atoms: CA_12  and  CB_13
REMARK    9  A    between atoms: CA_12  and  C_17
REMARK   10  A    between atoms: CB_13  and  CG_14
REMARK   11  A    between atoms: CG_14  and  SD_15
REMARK   12  A    between atoms: SD_15  and  CE_16
REMARK   13  A    between atoms: C_17  and  OXT_19
REMARK   14  A    between atoms: C_20  and  C_21
REMARK   15  A    between atoms: C_28  and  C_29
REMARK                            x       y       z     vdW  Elec       q    Type
REMARK                         _______ _______ _______ _____ _____    ______ ____
ROOT
ATOM      1  C   UNK A   0       2.664   4.058  17.877  0.00  0.00    +0.000 A 
ATOM      2  S   UNK A   0       3.374   3.158  16.607  0.00  0.00    +0.000 S 
ATOM      3  C   UNK A   0       4.784   4.143  16.558  0.00  0.00    +0.000 A 
ATOM      4  C   UNK A   0       4.728   5.154  17.527  0.00  0.00    +0.000 A 
ATOM      5  C   UNK A   0       3.512   5.056  18.314  0.00  0.00    +0.000 A 
ENDROOT
BRANCH   4   6
ATOM      6  C   UNK A   0       5.782   6.179  17.689  0.00  0.00    +0.000 A 
ATOM      7  C   UNK A   0       6.942   5.929  18.440  0.00  0.00    +0.000 A 
ATOM      8  C   UNK A   0       7.912   6.919  18.623  0.00  0.00    +0.000 A 
ATOM      9  C   UNK A   0       7.784   8.148  17.982  0.00  0.00    +0.000 A 
ATOM     10 CL   UNK A   0       8.986   9.352  18.183  0.00  0.00    +0.000 Cl
ATOM     11  C   UNK A   0       6.678   8.397  17.174  0.00  0.00    +0.000 A 
ATOM     12  C   UNK A   0       5.672   7.432  17.058  0.00  0.00    +0.000 A 
ENDBRANCH   4   6
BRANCH   3  13
ATOM     13  C   UNK A   0       5.862   3.810  15.621  0.00  0.00    +0.000 C 
ATOM     14  O   UNK A   0       6.981   3.446  15.985  0.00  0.00    +0.000 OA
ATOM     15  N   MET A   1       5.610   3.963  14.273  0.00  0.00    +0.000 N 
ATOM     16  H   MET A   1       4.700   4.281  13.948  0.00  0.00    +0.000 HD
BRANCH  15  17
ATOM     17  CA  MET A   1       6.671   3.757  13.274  0.00  0.00    +0.000 C 
BRANCH  17  18
ATOM     18  C   MET A   1       7.500   5.037  13.141  0.00  0.00    +0.000 C 
ATOM     19  O   MET A   1       7.838   5.511  12.060  0.00  0.00    +0.000 OA
BRANCH  18  20
ATOM     20  OXT MET A   1       7.858   5.597  14.319  0.00  0.00    +0.000 OA
ATOM     21  HXT MET A   1       7.284   5.349  15.081  0.00  0.00    +0.000 HD
ENDBRANCH  18  20
ENDBRANCH  17  18
BRANCH  17  22
ATOM     22  CB  MET A   1       6.071   3.343  11.921  0.00  0.00    +0.000 C 
BRANCH  22  23
ATOM     23  CG  MET A   1       4.762   4.052  11.553  0.00  0.00    +0.000 C 
BRANCH  23  24
ATOM     24  SD  MET A   1       3.565   2.974  10.698  0.00  0.00    +0.000 S 
ATOM     25  CE  MET A   1       2.868   4.186   9.537  0.00  0.00    +0.000 C 
ENDBRANCH  23  24
ENDBRANCH  22  23
ENDBRANCH  17  22
ENDBRANCH  15  17
ENDBRANCH   3  13
BRANCH   5  26
ATOM     26  C   UNK A   0       3.171   5.910  19.420  0.00  0.00    +0.000 C 
ATOM     27  N   UNK A   0       2.899   6.583  20.326  0.00  0.00    +0.000 NA
ENDBRANCH   5  26
BRANCH   1  28
ATOM     28  S   UNK A   0       1.042   3.663  18.480  0.00  0.00    +0.000 S 
BRANCH  28  29
ATOM     29  C   UNK A   0       1.425   2.538  19.896  0.00  0.00    +0.000 C 
ATOM     30  C   UNK A   0       1.335   3.320  21.209  0.00  0.00    +0.000 C 
BRANCH  29  32
ATOM     31  C   UNK A   0       3.841   2.369  20.718  0.00  0.00    +0.000 C 
ATOM     32  C   UNK A   0       2.813   1.913  19.693  0.00  0.00    +0.000 C 
ENDBRANCH  29  32
ENDBRANCH  28  29
ENDBRANCH   1  28
TORSDOF 12
ENDMDL
MODEL 3
REMARK VINA RESULT:      -4.9      3.388      4.933
REMARK  Name = 
REMARK  15 active torsions:
REMARK  status: ('A' for Active; 'I' for Inactive)
REMARK    1  A    between atoms: C_1  and  C_2
REMARK    2  A    between atoms: C_2  and  C_3
REMARK    3  A    between atoms: C_3  and  C_4
REMARK    4  A    between atoms: C_3  and  S_5
REMARK    5  A    between atoms: S_5  and  C_6
REMARK    6  A    between atoms: C_8  and  C_9
REMARK    7  A    between atoms: N_11  and  CA_12
REMARK    8  A    between atoms: CA_12  and  CB_13
REMARK    9  A    between atoms: CA_12  and  C_17
REMARK   10  A    between atoms: CB_13  and  CG_14
REMARK   11  A    between atoms: CG_14  and  SD_15
REMARK   12  A    between atoms: SD_15  and  CE_16
REMARK   13  A    between atoms: C_17  and  OXT_19
REMARK   14  A    between atoms: C_20  and  C_21
REMARK   15  A    between atoms: C_28  and  C_29
REMARK                            x       y       z     vdW  Elec       q    Type
REMARK                         _______ _______ _______ _____ _____    ______ ____
ROOT
ATOM      1  C   UNK A   0       2.308  14.539  18.666  0.00  0.00    +0.000 A 
ATOM      2  S   UNK A   0       2.278  12.840  18.473  0.00  0.00    +0.000 S 
ATOM      3  C   UNK A   0       0.955  12.638  19.556  0.00  0.00    +0.000 A 
ATOM      4  C   UNK A   0       0.517  13.872  20.055  0.00  0.00    +0.000 A 
ATOM      5  C   UNK A   0       1.285  14.967  19.487  0.00  0.00    +0.000 A 
ENDROOT
BRANCH   4   6
ATOM      6  C   UNK A   0      -0.576  14.004  21.041  0.00  0.00    +0.000 A 
ATOM      7  C   UNK A   0      -1.903  14.237  20.642  0.00  0.00    +0.000 A 
ATOM      8  C   UNK A   0      -2.922  14.403  21.584  0.00  0.00    +0.000 A 
ATOM      9  C   UNK A   0      -2.651  14.249  22.941  0.00  0.00    +0.000 A 
ATOM     10 CL   UNK A   0      -3.906  14.425  24.094  0.00  0.00    +0.000 Cl
ATOM     11  C   UNK A   0      -1.358  13.948  23.360  0.00  0.00    +0.000 A 
ATOM     12  C   UNK A   0      -0.327  13.860  22.419  0.00  0.00    +0.000 A 
ENDBRANCH   4   6
BRANCH   3  13
ATOM     13  C   UNK A   0       0.409  11.296  19.781  0.00  0.00    +0.000 C 
ATOM     14  O   UNK A   0      -0.515  10.825  19.117  0.00  0.00    +0.000 OA
ATOM     15  N   MET A   1       0.933  10.556  20.823  0.00  0.00    +0.000 N 
ATOM     16  H   MET A   1       1.682  10.931  21.400  0.00  0.00    +0.000 HD
BRANCH  15  17
ATOM     17  CA  MET A   1       0.364   9.247  21.185  0.00  0.00    +0.000 C 
BRANCH  17  18
ATOM     18  C   MET A   1      -0.144   9.295  22.627  0.00  0.00    +0.000 C 
ATOM     19  O   MET A   1       0.264  10.100  23.460  0.00  0.00    +0.000 OA
BRANCH  18  20
ATOM     20  OXT MET A   1      -1.070   8.355  22.927  0.00  0.00    +0.000 OA
ATOM     21  HXT MET A   1      -0.802   7.433  22.704  0.00  0.00    +0.000 HD
ENDBRANCH  18  20
ENDBRANCH  17  18
BRANCH  17  22
ATOM     22  CB  MET A   1       1.408   8.134  21.003  0.00  0.00    +0.000 C 
BRANCH  22  23
ATOM     23  CG  MET A   1       1.976   8.008  19.585  0.00  0.00    +0.000 C 
BRANCH  23  24
ATOM     24  SD  MET A   1       2.591   6.336  19.191  0.00  0.00    +0.000 S 
ATOM     25  CE  MET A   1       1.862   5.429  20.586  0.00  0.00    +0.000 C 
ENDBRANCH  23  24
ENDBRANCH  22  23
ENDBRANCH  17  22
ENDBRANCH  15  17
ENDBRANCH   3  13
BRANCH   5  26
ATOM     26  C   UNK A   0       1.057  16.361  19.752  0.00  0.00    +0.000 C 
ATOM     27  N   UNK A   0       0.854  17.486  19.957  0.00  0.00    +0.000 NA
ENDBRANCH   5  26
BRANCH   1  28
ATOM     28  S   UNK A   0       3.541  15.528  17.856  0.00  0.00    +0.000 S 
BRANCH  28  29
ATOM     29  C   UNK A   0       4.526  16.157  19.288  0.00  0.00    +0.000 C 
ATOM     30  C   UNK A   0       5.812  16.812  18.775  0.00  0.00    +0.000 C 
BRANCH  29  32
ATOM     31  C   UNK A   0       4.388  15.291  21.691  0.00  0.00    +0.000 C 
ATOM     32  C   UNK A   0       4.815  15.003  20.259  0.00  0.00    +0.000 C 
ENDBRANCH  29  32
ENDBRANCH  28  29
ENDBRANCH   1  28
TORSDOF 12
ENDMDL
MODEL 4
REMARK VINA RESULT:      -4.9      3.460      5.066
REMARK  Name = 
REMARK  15 active torsions:
REMARK  status: ('A' for Active; 'I' for Inactive)
REMARK    1  A    between atoms: C_1  and  C_2
REMARK    2  A    between atoms: C_2  and  C_3
REMARK    3  A    between atoms: C_3  and  C_4
REMARK    4  A    between atoms: C_3  and  S_5
REMARK    5  A    between atoms: S_5  and  C_6
REMARK    6  A    between atoms: C_8  and  C_9
REMARK    7  A    between atoms: N_11  and  CA_12
REMARK    8  A    between atoms: CA_12  and  CB_13
REMARK    9  A    between atoms: CA_12  and  C_17
REMARK   10  A    between atoms: CB_13  and  CG_14
REMARK   11  A    between atoms: CG_14  and  SD_15
REMARK   12  A    between atoms: SD_15  and  CE_16
REMARK   13  A    between atoms: C_17  and  OXT_19
REMARK   14  A    between atoms: C_20  and  C_21
REMARK   15  A    between atoms: C_28  and  C_29
REMARK                            x       y       z     vdW  Elec       q    Type
REMARK                         _______ _______ _______ _____ _____    ______ ____
ROOT
ATOM      1  C   UNK A   0       2.379  14.687  18.428  0.00  0.00    +0.000 A 
ATOM      2  S   UNK A   0       2.333  12.985  18.256  0.00  0.00    +0.000 S 
ATOM      3  C   UNK A   0       1.065  12.801  19.405  0.00  0.00    +0.000 A 
ATOM      4  C   UNK A   0       0.656  14.042  19.910  0.00  0.00    +0.000 A 
ATOM      5  C   UNK A   0       1.398  15.127  19.293  0.00  0.00    +0.000 A 
ENDROOT
BRANCH   4   6
ATOM      6  C   UNK A   0      -0.388  14.189  20.947  0.00  0.00    +0.000 A 
ATOM      7  C   UNK A   0      -0.067  14.230  22.314  0.00  0.00    +0.000 A 
ATOM      8  C   UNK A   0      -1.064  14.325  23.288  0.00  0.00    +0.000 A 
ATOM      9  C   UNK A   0      -2.396  14.473  22.911  0.00  0.00    +0.000 A 
ATOM     10 CL   UNK A   0      -3.617  14.618  24.105  0.00  0.00    +0.000 Cl
ATOM     11  C   UNK A   0      -2.736  14.505  21.561  0.00  0.00    +0.000 A 
ATOM     12  C   UNK A   0      -1.743  14.331  20.592  0.00  0.00    +0.000 A 
ENDBRANCH   4   6
BRANCH   3  13
ATOM     13  C   UNK A   0       0.525  11.463  19.671  0.00  0.00    +0.000 C 
ATOM     14  O   UNK A   0      -0.278  10.901  18.927  0.00  0.00    +0.000 OA
ATOM     15  N   MET A   1       0.910  10.838  20.840  0.00  0.00    +0.000 N 
ATOM     16  H   MET A   1       1.557  11.290  21.482  0.00  0.00    +0.000 HD
BRANCH  15  17
ATOM     17  CA  MET A   1       0.329   9.545  21.236  0.00  0.00    +0.000 C 
BRANCH  17  18
ATOM     18  C   MET A   1      -0.352   9.689  22.599  0.00  0.00    +0.000 C 
ATOM     19  O   MET A   1      -0.300  10.713  23.274  0.00  0.00    +0.000 OA
BRANCH  18  20
ATOM     20  OXT MET A   1      -1.002   8.580  23.021  0.00  0.00    +0.000 OA
ATOM     21  HXT MET A   1      -1.408   8.045  22.300  0.00  0.00    +0.000 HD
ENDBRANCH  18  20
ENDBRANCH  17  18
BRANCH  17  22
ATOM     22  CB  MET A   1       1.409   8.452  21.270  0.00  0.00    +0.000 C 
BRANCH  22  23
ATOM     23  CG  MET A   1       1.859   7.947  19.895  0.00  0.00    +0.000 C 
BRANCH  23  24
ATOM     24  SD  MET A   1       2.440   6.218  19.907  0.00  0.00    +0.000 S 
ATOM     25  CE  MET A   1       2.500   5.925  18.115  0.00  0.00    +0.000 C 
ENDBRANCH  23  24
ENDBRANCH  22  23
ENDBRANCH  17  22
ENDBRANCH  15  17
ENDBRANCH   3  13
BRANCH   5  26
ATOM     26  C   UNK A   0       1.187  16.526  19.553  0.00  0.00    +0.000 C 
ATOM     27  N   UNK A   0       1.004  17.650  19.778  0.00  0.00    +0.000 NA
ENDBRANCH   5  26
BRANCH   1  28
ATOM     28  S   UNK A   0       3.574  15.662  17.548  0.00  0.00    +0.000 S 
BRANCH  28  29
ATOM     29  C   UNK A   0       5.073  15.480  18.613  0.00  0.00    +0.000 C 
ATOM     30  C   UNK A   0       6.081  14.557  17.921  0.00  0.00    +0.000 C 
BRANCH  29  32
ATOM     31  C   UNK A   0       4.792  15.981  21.105  0.00  0.00    +0.000 C 
ATOM     32  C   UNK A   0       4.660  14.950  19.993  0.00  0.00    +0.000 C 
ENDBRANCH  29  32
ENDBRANCH  28  29
ENDBRANCH   1  28
TORSDOF 12
ENDMDL
MODEL 5
REMARK VINA RESULT:      -4.8      3.237      4.207
REMARK  Name = 
REMARK  15 active torsions:
REMARK  status: ('A' for Active; 'I' for Inactive)
REMARK    1  A    between atoms: C_1  and  C_2
REMARK    2  A    between atoms: C_2  and  C_3
REMARK    3  A    between atoms: C_3  and  C_4
REMARK    4  A    between atoms: C_3  and  S_5
REMARK    5  A    between atoms: S_5  and  C_6
REMARK    6  A    between atoms: C_8  and  C_9
REMARK    7  A    between atoms: N_11  and  CA_12
REMARK    8  A    between atoms: CA_12  and  CB_13
REMARK    9  A    between atoms: CA_12  and  C_17
REMARK   10  A    between atoms: CB_13  and  CG_14
REMARK   11  A    between atoms: CG_14  and  SD_15
REMARK   12  A    between atoms: SD_15  and  CE_16
REMARK   13  A    between atoms: C_17  and  OXT_19
REMARK   14  A    between atoms: C_20  and  C_21
REMARK   15  A    between atoms: C_28  and  C_29
REMARK                            x       y       z     vdW  Elec       q    Type
REMARK                         _______ _______ _______ _____ _____    ______ ____
ROOT
ATOM      1  C   UNK A   0       0.181  14.722  20.210  0.00  0.00    +0.000 A 
ATOM      2  S   UNK A   0      -1.413  14.419  19.668  0.00  0.00    +0.000 S 
ATOM      3  C   UNK A   0      -1.168  12.718  19.576  0.00  0.00    +0.000 A 
ATOM      4  C   UNK A   0       0.128  12.371  19.980  0.00  0.00    +0.000 A 
ATOM      5  C   UNK A   0       0.879  13.545  20.391  0.00  0.00    +0.000 A 
ENDROOT
BRANCH   4   6
ATOM      6  C   UNK A   0       0.637  10.983  19.962  0.00  0.00    +0.000 A 
ATOM      7  C   UNK A   0       1.212  10.424  18.809  0.00  0.00    +0.000 A 
ATOM      8  C   UNK A   0       1.650   9.097  18.790  0.00  0.00    +0.000 A 
ATOM      9  C   UNK A   0       1.605   8.331  19.951  0.00  0.00    +0.000 A 
ATOM     10 CL   UNK A   0       2.168   6.712  19.935  0.00  0.00    +0.000 Cl
ATOM     11  C   UNK A   0       1.104   8.882  21.127  0.00  0.00    +0.000 A 
ATOM     12  C   UNK A   0       0.595  10.184  21.121  0.00  0.00    +0.000 A 
ENDBRANCH   4   6
BRANCH   3  13
ATOM     13  C   UNK A   0      -2.283  11.851  19.181  0.00  0.00    +0.000 C 
ATOM     14  O   UNK A   0      -2.132  10.688  18.807  0.00  0.00    +0.000 OA
ATOM     15  N   MET A   1      -3.552  12.396  19.188  0.00  0.00    +0.000 N 
ATOM     16  H   MET A   1      -3.701  13.361  19.473  0.00  0.00    +0.000 HD
BRANCH  15  17
ATOM     17  CA  MET A   1      -4.709  11.629  18.699  0.00  0.00    +0.000 C 
BRANCH  17  18
ATOM     18  C   MET A   1      -4.935  11.937  17.217  0.00  0.00    +0.000 C 
ATOM     19  O   MET A   1      -4.425  11.287  16.309  0.00  0.00    +0.000 OA
BRANCH  18  20
ATOM     20  OXT MET A   1      -5.726  13.008  16.982  0.00  0.00    +0.000 OA
ATOM     21  HXT MET A   1      -5.656  13.724  17.655  0.00  0.00    +0.000 HD
ENDBRANCH  18  20
ENDBRANCH  17  18
BRANCH  17  22
ATOM     22  CB  MET A   1      -5.963  11.951  19.528  0.00  0.00    +0.000 C 
BRANCH  22  23
ATOM     23  CG  MET A   1      -5.808  13.125  20.500  0.00  0.00    +0.000 C 
BRANCH  23  24
ATOM     24  SD  MET A   1      -6.462  12.783  22.168  0.00  0.00    +0.000 S 
ATOM     25  CE  MET A   1      -5.132  13.528  23.155  0.00  0.00    +0.000 C 
ENDBRANCH  23  24
ENDBRANCH  22  23
ENDBRANCH  17  22
ENDBRANCH  15  17
ENDBRANCH   3  13
BRANCH   5  26
ATOM     26  C   UNK A   0       2.221  13.530  20.905  0.00  0.00    +0.000 C 
ATOM     27  N   UNK A   0       3.298  13.514  21.340  0.00  0.00    +0.000 NA
ENDBRANCH   5  26
BRANCH   1  28
ATOM     28  S   UNK A   0       0.753  16.381  20.482  0.00  0.00    +0.000 S 
BRANCH  28  29
ATOM     29  C   UNK A   0       1.466  16.813  18.832  0.00  0.00    +0.000 C 
ATOM     30  C   UNK A   0       2.993  16.861  18.932  0.00  0.00    +0.000 C 
BRANCH  29  32
ATOM     31  C   UNK A   0       1.028  18.378  16.857  0.00  0.00    +0.000 C 
ATOM     32  C   UNK A   0       0.878  18.149  18.354  0.00  0.00    +0.000 C 
ENDBRANCH  29  32
ENDBRANCH  28  29
ENDBRANCH   1  28
TORSDOF 12
ENDMDL
MODEL 6
REMARK VINA RESULT:      -4.7      3.257      4.356
REMARK  Name = 
REMARK  15 active torsions:
REMARK  status: ('A' for Active; 'I' for Inactive)
REMARK    1  A    between atoms: C_1  and  C_2
REMARK    2  A    between atoms: C_2  and  C_3
REMARK    3  A    between atoms: C_3  and  C_4
REMARK    4  A    between atoms: C_3  and  S_5
REMARK    5  A    between atoms: S_5  and  C_6
REMARK    6  A    between atoms: C_8  and  C_9
REMARK    7  A    between atoms: N_11  and  CA_12
REMARK    8  A    between atoms: CA_12  and  CB_13
REMARK    9  A    between atoms: CA_12  and  C_17
REMARK   10  A    between atoms: CB_13  and  CG_14
REMARK   11  A    between atoms: CG_14  and  SD_15
REMARK   12  A    between atoms: SD_15  and  CE_16
REMARK   13  A    between atoms: C_17  and  OXT_19
REMARK   14  A    between atoms: C_20  and  C_21
REMARK   15  A    between atoms: C_28  and  C_29
REMARK                            x       y       z     vdW  Elec       q    Type
REMARK                         _______ _______ _______ _____ _____    ______ ____
ROOT
ATOM      1  C   UNK A   0      -0.070  14.277  20.285  0.00  0.00    +0.000 A 
ATOM      2  S   UNK A   0      -1.604  13.902  19.627  0.00  0.00    +0.000 S 
ATOM      3  C   UNK A   0      -1.170  12.274  19.278  0.00  0.00    +0.000 A 
ATOM      4  C   UNK A   0       0.144  12.002  19.682  0.00  0.00    +0.000 A 
ATOM      5  C   UNK A   0       0.747  13.165  20.310  0.00  0.00    +0.000 A 
ENDROOT
BRANCH   4   6
ATOM      6  C   UNK A   0       0.802  10.696  19.469  0.00  0.00    +0.000 A 
ATOM      7  C   UNK A   0       1.451  10.387  18.262  0.00  0.00    +0.000 A 
ATOM      8  C   UNK A   0       2.033   9.134  18.053  0.00  0.00    +0.000 A 
ATOM      9  C   UNK A   0       2.057   8.196  19.083  0.00  0.00    +0.000 A 
ATOM     10 CL   UNK A   0       2.794   6.669  18.837  0.00  0.00    +0.000 Cl
ATOM     11  C   UNK A   0       1.482   8.502  20.313  0.00  0.00    +0.000 A 
ATOM     12  C   UNK A   0       0.833   9.727  20.490  0.00  0.00    +0.000 A 
ENDBRANCH   4   6
BRANCH   3  13
ATOM     13  C   UNK A   0      -2.171  11.372  18.697  0.00  0.00    +0.000 C 
ATOM     14  O   UNK A   0      -2.205  10.164  18.931  0.00  0.00    +0.000 OA
ATOM     15  N   MET A   1      -3.081  11.911  17.810  0.00  0.00    +0.000 N 
ATOM     16  H   MET A   1      -3.061  12.903  17.584  0.00  0.00    +0.000 HD
BRANCH  15  17
ATOM     17  CA  MET A   1      -4.046  11.055  17.099  0.00  0.00    +0.000 C 
BRANCH  17  18
ATOM     18  C   MET A   1      -3.596  10.880  15.647  0.00  0.00    +0.000 C 
ATOM     19  O   MET A   1      -2.516  11.281  15.223  0.00  0.00    +0.000 OA
BRANCH  18  20
ATOM     20  OXT MET A   1      -4.501  10.267  14.850  0.00  0.00    +0.000 OA
ATOM     21  HXT MET A   1      -5.099  10.880  14.363  0.00  0.00    +0.000 HD
ENDBRANCH  18  20
ENDBRANCH  17  18
BRANCH  17  22
ATOM     22  CB  MET A   1      -5.459  11.654  17.172  0.00  0.00    +0.000 C 
BRANCH  22  23
ATOM     23  CG  MET A   1      -6.380  11.008  18.213  0.00  0.00    +0.000 C 
BRANCH  23  24
ATOM     24  SD  MET A   1      -6.337  11.835  19.838  0.00  0.00    +0.000 S 
ATOM     25  CE  MET A   1      -7.642  10.888  20.674  0.00  0.00    +0.000 C 
ENDBRANCH  23  24
ENDBRANCH  22  23
ENDBRANCH  17  22
ENDBRANCH  15  17
ENDBRANCH   3  13
BRANCH   5  26
ATOM     26  C   UNK A   0       2.067  13.206  20.878  0.00  0.00    +0.000 C 
ATOM     27  N   UNK A   0       3.125  13.237  21.357  0.00  0.00    +0.000 NA
ENDBRANCH   5  26
BRANCH   1  28
ATOM     28  S   UNK A   0       0.308  15.919  20.844  0.00  0.00    +0.000 S 
BRANCH  28  29
ATOM     29  C   UNK A   0       0.678  16.787  19.254  0.00  0.00    +0.000 C 
ATOM     30  C   UNK A   0       1.931  16.177  18.619  0.00  0.00    +0.000 C 
BRANCH  29  32
ATOM     31  C   UNK A   0       1.273  18.617  20.939  0.00  0.00    +0.000 C 
ATOM     32  C   UNK A   0       0.840  18.291  19.517  0.00  0.00    +0.000 C 
ENDBRANCH  29  32
ENDBRANCH  28  29
ENDBRANCH   1  28
TORSDOF 12
ENDMDL
MODEL 7
REMARK VINA RESULT:      -4.7      2.695      3.325
REMARK  Name = 
REMARK  15 active torsions:
REMARK  status: ('A' for Active; 'I' for Inactive)
REMARK    1  A    between atoms: C_1  and  C_2
REMARK    2  A    between atoms: C_2  and  C_3
REMARK    3  A    between atoms: C_3  and  C_4
REMARK    4  A    between atoms: C_3  and  S_5
REMARK    5  A    between atoms: S_5  and  C_6
REMARK    6  A    between atoms: C_8  and  C_9
REMARK    7  A    between atoms: N_11  and  CA_12
REMARK    8  A    between atoms: CA_12  and  CB_13
REMARK    9  A    between atoms: CA_12  and  C_17
REMARK   10  A    between atoms: CB_13  and  CG_14
REMARK   11  A    between atoms: CG_14  and  SD_15
REMARK   12  A    between atoms: SD_15  and  CE_16
REMARK   13  A    between atoms: C_17  and  OXT_19
REMARK   14  A    between atoms: C_20  and  C_21
REMARK   15  A    between atoms: C_28  and  C_29
REMARK                            x       y       z     vdW  Elec       q    Type
REMARK                         _______ _______ _______ _____ _____    ______ ____
ROOT
ATOM      1  C   UNK A   0       2.541  15.346  21.185  0.00  0.00    +0.000 A 
ATOM      2  S   UNK A   0       2.822  13.739  20.671  0.00  0.00    +0.000 S 
ATOM      3  C   UNK A   0       1.217  13.234  21.034  0.00  0.00    +0.000 A 
ATOM      4  C   UNK A   0       0.452  14.297  21.531  0.00  0.00    +0.000 A 
ATOM      5  C   UNK A   0       1.226  15.526  21.563  0.00  0.00    +0.000 A 
ENDROOT
BRANCH   4   6
ATOM      6  C   UNK A   0      -0.952  14.148  21.969  0.00  0.00    +0.000 A 
ATOM      7  C   UNK A   0      -2.024  14.315  21.076  0.00  0.00    +0.000 A 
ATOM      8  C   UNK A   0      -3.349  14.215  21.509  0.00  0.00    +0.000 A 
ATOM      9  C   UNK A   0      -3.627  13.856  22.825  0.00  0.00    +0.000 A 
ATOM     10 CL   UNK A   0      -5.251  13.706  23.350  0.00  0.00    +0.000 Cl
ATOM     11  C   UNK A   0      -2.583  13.617  23.714  0.00  0.00    +0.000 A 
ATOM     12  C   UNK A   0      -1.261  13.795  23.296  0.00  0.00    +0.000 A 
ENDBRANCH   4   6
BRANCH   3  13
ATOM     13  C   UNK A   0       0.814  11.854  20.742  0.00  0.00    +0.000 C 
ATOM     14  O   UNK A   0       0.812  10.960  21.588  0.00  0.00    +0.000 OA
ATOM     15  N   MET A   1       0.470  11.549  19.440  0.00  0.00    +0.000 N 
ATOM     16  H   MET A   1       0.483  12.265  18.718  0.00  0.00    +0.000 HD
BRANCH  15  17
ATOM     17  CA  MET A   1       0.162  10.165  19.041  0.00  0.00    +0.000 C 
BRANCH  17  18
ATOM     18  C   MET A   1       1.428   9.499  18.496  0.00  0.00    +0.000 C 
ATOM     19  O   MET A   1       2.026   9.901  17.501  0.00  0.00    +0.000 OA
BRANCH  18  20
ATOM     20  OXT MET A   1       1.827   8.407  19.186  0.00  0.00    +0.000 OA
ATOM     21  HXT MET A   1       1.613   7.548  18.752  0.00  0.00    +0.000 HD
ENDBRANCH  18  20
ENDBRANCH  17  18
BRANCH  17  22
ATOM     22  CB  MET A   1      -0.968  10.140  18.000  0.00  0.00    +0.000 C 
BRANCH  22  23
ATOM     23  CG  MET A   1      -1.794  11.428  17.913  0.00  0.00    +0.000 C 
BRANCH  23  24
ATOM     24  SD  MET A   1      -3.424  11.198  17.127  0.00  0.00    +0.000 S 
ATOM     25  CE  MET A   1      -2.873  10.711  15.466  0.00  0.00    +0.000 C 
ENDBRANCH  23  24
ENDBRANCH  22  23
ENDBRANCH  17  22
ENDBRANCH  15  17
ENDBRANCH   3  13
BRANCH   5  26
ATOM     26  C   UNK A   0       0.723  16.809  21.973  0.00  0.00    +0.000 C 
ATOM     27  N   UNK A   0       0.301  17.836  22.314  0.00  0.00    +0.000 NA
ENDBRANCH   5  26
BRANCH   1  28
ATOM     28  S   UNK A   0       3.847  16.548  21.179  0.00  0.00    +0.000 S 
BRANCH  28  29
ATOM     29  C   UNK A   0       4.561  16.328  19.488  0.00  0.00    +0.000 C 
ATOM     30  C   UNK A   0       5.807  17.207  19.342  0.00  0.00    +0.000 C 
BRANCH  29  32
ATOM     31  C   UNK A   0       3.444  15.665  17.285  0.00  0.00    +0.000 C 
ATOM     32  C   UNK A   0       3.495  16.661  18.435  0.00  0.00    +0.000 C 
ENDBRANCH  29  32
ENDBRANCH  28  29
ENDBRANCH   1  28
TORSDOF 12
ENDMDL
MODEL 8
REMARK VINA RESULT:      -4.7      3.281      4.787
REMARK  Name = 
REMARK  15 active torsions:
REMARK  status: ('A' for Active; 'I' for Inactive)
REMARK    1  A    between atoms: C_1  and  C_2
REMARK    2  A    between atoms: C_2  and  C_3
REMARK    3  A    between atoms: C_3  and  C_4
REMARK    4  A    between atoms: C_3  and  S_5
REMARK    5  A    between atoms: S_5  and  C_6
REMARK    6  A    between atoms: C_8  and  C_9
REMARK    7  A    between atoms: N_11  and  CA_12
REMARK    8  A    between atoms: CA_12  and  CB_13
REMARK    9  A    between atoms: CA_12  and  C_17
REMARK   10  A    between atoms: CB_13  and  CG_14
REMARK   11  A    between atoms: CG_14  and  SD_15
REMARK   12  A    between atoms: SD_15  and  CE_16
REMARK   13  A    between atoms: C_17  and  OXT_19
REMARK   14  A    between atoms: C_20  and  C_21
REMARK   15  A    between atoms: C_28  and  C_29
REMARK                            x       y       z     vdW  Elec       q    Type
REMARK                         _______ _______ _______ _____ _____    ______ ____
ROOT
ATOM      1  C   UNK A   0      -0.081  14.211  20.253  0.00  0.00    +0.000 A 
ATOM      2  S   UNK A   0      -1.609  13.811  19.596  0.00  0.00    +0.000 S 
ATOM      3  C   UNK A   0      -1.151  12.187  19.256  0.00  0.00    +0.000 A 
ATOM      4  C   UNK A   0       0.166  11.937  19.662  0.00  0.00    +0.000 A 
ATOM      5  C   UNK A   0       0.753  13.112  20.283  0.00  0.00    +0.000 A 
ENDROOT
BRANCH   4   6
ATOM      6  C   UNK A   0       0.844  10.639  19.455  0.00  0.00    +0.000 A 
ATOM      7  C   UNK A   0       1.481  10.326  18.243  0.00  0.00    +0.000 A 
ATOM      8  C   UNK A   0       2.081   9.080  18.043  0.00  0.00    +0.000 A 
ATOM      9  C   UNK A   0       2.135   8.156  19.083  0.00  0.00    +0.000 A 
ATOM     10 CL   UNK A   0       2.895   6.639  18.846  0.00  0.00    +0.000 Cl
ATOM     11  C   UNK A   0       1.572   8.468  20.317  0.00  0.00    +0.000 A 
ATOM     12  C   UNK A   0       0.905   9.685  20.488  0.00  0.00    +0.000 A 
ENDBRANCH   4   6
BRANCH   3  13
ATOM     13  C   UNK A   0      -2.139  11.268  18.680  0.00  0.00    +0.000 C 
ATOM     14  O   UNK A   0      -2.016  10.043  18.711  0.00  0.00    +0.000 OA
ATOM     15  N   MET A   1      -3.227  11.819  18.033  0.00  0.00    +0.000 N 
ATOM     16  H   MET A   1      -3.341  12.828  17.976  0.00  0.00    +0.000 HD
BRANCH  15  17
ATOM     17  CA  MET A   1      -4.204  10.969  17.332  0.00  0.00    +0.000 C 
BRANCH  17  18
ATOM     18  C   MET A   1      -3.689  10.656  15.926  0.00  0.00    +0.000 C 
ATOM     19  O   MET A   1      -3.610   9.517  15.475  0.00  0.00    +0.000 OA
BRANCH  18  20
ATOM     20  OXT MET A   1      -3.299  11.741  15.218  0.00  0.00    +0.000 OA
ATOM     21  HXT MET A   1      -3.881  11.961  14.454  0.00  0.00    +0.000 HD
ENDBRANCH  18  20
ENDBRANCH  17  18
BRANCH  17  22
ATOM     22  CB  MET A   1      -5.579  11.653  17.279  0.00  0.00    +0.000 C 
BRANCH  22  23
ATOM     23  CG  MET A   1      -6.630  11.063  18.226  0.00  0.00    +0.000 C 
BRANCH  23  24
ATOM     24  SD  MET A   1      -7.160  12.216  19.537  0.00  0.00    +0.000 S 
ATOM     25  CE  MET A   1      -6.353  13.727  18.931  0.00  0.00    +0.000 C 
ENDBRANCH  23  24
ENDBRANCH  22  23
ENDBRANCH  17  22
ENDBRANCH  15  17
ENDBRANCH   3  13
BRANCH   5  26
ATOM     26  C   UNK A   0       2.071  13.175  20.852  0.00  0.00    +0.000 C 
ATOM     27  N   UNK A   0       3.131  13.242  21.322  0.00  0.00    +0.000 NA
ENDBRANCH   5  26
BRANCH   1  28
ATOM     28  S   UNK A   0       0.272  15.862  20.802  0.00  0.00    +0.000 S 
BRANCH  28  29
ATOM     29  C   UNK A   0      -1.196  16.795  20.178  0.00  0.00    +0.000 C 
ATOM     30  C   UNK A   0      -0.773  17.691  19.010  0.00  0.00    +0.000 C 
BRANCH  29  32
ATOM     31  C   UNK A   0      -2.879  16.835  22.103  0.00  0.00    +0.000 C 
ATOM     32  C   UNK A   0      -1.818  17.601  21.327  0.00  0.00    +0.000 C 
ENDBRANCH  29  32
ENDBRANCH  28  29
ENDBRANCH   1  28
TORSDOF 12
ENDMDL
MODEL 9
REMARK VINA RESULT:      -4.7      3.825      8.297
REMARK  Name = 
REMARK  15 active torsions:
REMARK  status: ('A' for Active; 'I' for Inactive)
REMARK    1  A    between atoms: C_1  and  C_2
REMARK    2  A    between atoms: C_2  and  C_3
REMARK    3  A    between atoms: C_3  and  C_4
REMARK    4  A    between atoms: C_3  and  S_5
REMARK    5  A    between atoms: S_5  and  C_6
REMARK    6  A    between atoms: C_8  and  C_9
REMARK    7  A    between atoms: N_11  and  CA_12
REMARK    8  A    between atoms: CA_12  and  CB_13
REMARK    9  A    between atoms: CA_12  and  C_17
REMARK   10  A    between atoms: CB_13  and  CG_14
REMARK   11  A    between atoms: CG_14  and  SD_15
REMARK   12  A    between atoms: SD_15  and  CE_16
REMARK   13  A    between atoms: C_17  and  OXT_19
REMARK   14  A    between atoms: C_20  and  C_21
REMARK   15  A    between atoms: C_28  and  C_29
REMARK                            x       y       z     vdW  Elec       q    Type
REMARK                         _______ _______ _______ _____ _____    ______ ____
ROOT
ATOM      1  C   UNK A   0      -3.130  11.953  19.078  0.00  0.00    +0.000 A 
ATOM      2  S   UNK A   0      -2.344  12.993  20.187  0.00  0.00    +0.000 S 
ATOM      3  C   UNK A   0      -0.892  12.070  20.180  0.00  0.00    +0.000 A 
ATOM      4  C   UNK A   0      -0.993  10.974  19.314  0.00  0.00    +0.000 A 
ATOM      5  C   UNK A   0      -2.284  10.953  18.647  0.00  0.00    +0.000 A 
ENDROOT
BRANCH   4   6
ATOM      6  C   UNK A   0       0.087   9.979  19.138  0.00  0.00    +0.000 A 
ATOM      7  C   UNK A   0       0.503   9.151  20.192  0.00  0.00    +0.000 A 
ATOM      8  C   UNK A   0       1.554   8.244  20.028  0.00  0.00    +0.000 A 
ATOM      9  C   UNK A   0       2.148   8.084  18.779  0.00  0.00    +0.000 A 
ATOM     10 CL   UNK A   0       3.419   6.953  18.570  0.00  0.00    +0.000 Cl
ATOM     11  C   UNK A   0       1.708   8.843  17.699  0.00  0.00    +0.000 A 
ATOM     12  C   UNK A   0       0.709   9.804  17.887  0.00  0.00    +0.000 A 
ENDBRANCH   4   6
BRANCH   3  13
ATOM     13  C   UNK A   0       0.255  12.529  20.971  0.00  0.00    +0.000 C 
ATOM     14  O   UNK A   0       0.569  12.031  22.052  0.00  0.00    +0.000 OA
ATOM     15  N   MET A   1       0.977  13.602  20.490  0.00  0.00    +0.000 N 
ATOM     16  H   MET A   1       0.726  14.044  19.609  0.00  0.00    +0.000 HD
BRANCH  15  17
ATOM     17  CA  MET A   1       2.072  14.194  21.277  0.00  0.00    +0.000 C 
BRANCH  17  18
ATOM     18  C   MET A   1       1.628  15.552  21.825  0.00  0.00    +0.000 C 
ATOM     19  O   MET A   1       1.922  16.621  21.297  0.00  0.00    +0.000 OA
BRANCH  18  20
ATOM     20  OXT MET A   1       0.901  15.486  22.964  0.00  0.00    +0.000 OA
ATOM     21  HXT MET A   1       1.437  15.407  23.787  0.00  0.00    +0.000 HD
ENDBRANCH  18  20
ENDBRANCH  17  18
BRANCH  17  22
ATOM     22  CB  MET A   1       3.342  14.331  20.422  0.00  0.00    +0.000 C 
BRANCH  22  23
ATOM     23  CG  MET A   1       3.150  14.036  18.930  0.00  0.00    +0.000 C 
BRANCH  23  24
ATOM     24  SD  MET A   1       3.860  15.312  17.837  0.00  0.00    +0.000 S 
ATOM     25  CE  MET A   1       5.608  14.826  17.929  0.00  0.00    +0.000 C 
ENDBRANCH  23  24
ENDBRANCH  22  23
ENDBRANCH  17  22
ENDBRANCH  15  17
ENDBRANCH   3  13
BRANCH   5  26
ATOM     26  C   UNK A   0      -2.689   9.989  17.660  0.00  0.00    +0.000 C 
ATOM     27  N   UNK A   0      -2.997   9.211  16.855  0.00  0.00    +0.000 NA
ENDBRANCH   5  26
BRANCH   1  28
ATOM     28  S   UNK A   0      -4.820  12.230  18.608  0.00  0.00    +0.000 S 
BRANCH  28  29
ATOM     29  C   UNK A   0      -5.450  13.238  20.024  0.00  0.00    +0.000 C 
ATOM     30  C   UNK A   0      -6.050  12.309  21.084  0.00  0.00    +0.000 C 
BRANCH  29  32
ATOM     31  C   UNK A   0      -7.781  13.634  19.048  0.00  0.00    +0.000 C 
ATOM     32  C   UNK A   0      -6.473  14.261  19.509  0.00  0.00    +0.000 C 
ENDBRANCH  29  32
ENDBRANCH  28  29
ENDBRANCH   1  28
TORSDOF 12
ENDMDL
