MODEL 1
REMARK VINA RESULT:      -7.9      0.000      0.000
REMARK  Name = 
REMARK  5 active torsions:
REMARK  status: ('A' for Active; 'I' for Inactive)
REMARK    1  A    between atoms: C_1  and  C_2
REMARK    2  A    between atoms: C_5  and  C_6
REMARK    3  A    between atoms: C_6  and  O_7
REMARK    4  A    between atoms: O_7  and  C_8
REMARK    5  A    between atoms: C_12  and  C_13
REMARK                            x       y       z     vdW  Elec       q    Type
REMARK                         _______ _______ _______ _____ _____    ______ ____
ROOT
ATOM      1  C   UNL     1       5.267   6.394  17.326  0.00  0.00    +0.000 A 
ATOM      2  C   UNL     1       6.072   5.837  18.322  0.00  0.00    +0.000 A 
ATOM      3  C   UNL     1       7.066   4.916  18.002  0.00  0.00    +0.000 A 
ATOM      4  C   UNL     1       7.265   4.547  16.674  0.00  0.00    +0.000 A 
ATOM      5  C   UNL     1       6.475   5.100  15.657  0.00  0.00    +0.000 A 
ATOM      6  C   UNL     1       5.472   6.020  15.994  0.00  0.00    +0.000 A 
ENDROOT
BRANCH   5   7
ATOM      7  C   UNL     1       6.698   4.754  14.264  0.00  0.00    +0.000 A 
ATOM      8  C   UNL     1       6.074   3.755  13.552  0.00  0.00    +0.000 A 
ATOM      9  N   UNL     1       6.659   3.812  12.326  0.00  0.00    +0.000 N 
ATOM     10  N   UNL     1       7.576   4.787  12.261  0.00  0.00    +0.000 NA
ATOM     11  N   UNL     1       7.610   5.376  13.450  0.00  0.00    +0.000 NA
ATOM     12  H   UNL     1       6.498   3.236  11.507  0.00  0.00    +0.000 HD
ENDBRANCH   5   7
BRANCH   1  13
ATOM     13  O   UNL     1       4.334   7.289  17.773  0.00  0.00    +0.000 OA
BRANCH  13  14
ATOM     14  C   UNL     1       2.965   6.992  17.492  0.00  0.00    +0.000 C 
BRANCH  14  19
ATOM     15  C   UNL     1       1.126   2.800  21.103  0.00  0.00    +0.000 C 
ATOM     16  C   UNL     1       1.610   3.880  20.181  0.00  0.00    +0.000 A 
ATOM     17  C   UNL     1       2.114   5.084  20.682  0.00  0.00    +0.000 A 
ATOM     18  C   UNL     1       2.552   6.084  19.811  0.00  0.00    +0.000 A 
ATOM     19  C   UNL     1       2.499   5.898  18.423  0.00  0.00    +0.000 A 
ATOM     20  C   UNL     1       1.990   4.692  17.923  0.00  0.00    +0.000 A 
ATOM     21  C   UNL     1       1.552   3.693  18.796  0.00  0.00    +0.000 A 
ENDBRANCH  14  19
ENDBRANCH  13  14
ENDBRANCH   1  13
TORSDOF 4
ENDMDL
MODEL 2
REMARK VINA RESULT:      -7.8      0.530      1.203
REMARK  Name = 
REMARK  5 active torsions:
REMARK  status: ('A' for Active; 'I' for Inactive)
REMARK    1  A    between atoms: C_1  and  C_2
REMARK    2  A    between atoms: C_5  and  C_6
REMARK    3  A    between atoms: C_6  and  O_7
REMARK    4  A    between atoms: O_7  and  C_8
REMARK    5  A    between atoms: C_12  and  C_13
REMARK                            x       y       z     vdW  Elec       q    Type
REMARK                         _______ _______ _______ _____ _____    ______ ____
ROOT
ATOM      1  C   UNL     1       5.084   6.064  17.549  0.00  0.00    +0.000 A 
ATOM      2  C   UNL     1       5.985   5.634  18.527  0.00  0.00    +0.000 A 
ATOM      3  C   UNL     1       7.119   4.907  18.178  0.00  0.00    +0.000 A 
ATOM      4  C   UNL     1       7.365   4.606  16.841  0.00  0.00    +0.000 A 
ATOM      5  C   UNL     1       6.479   5.035  15.842  0.00  0.00    +0.000 A 
ATOM      6  C   UNL     1       5.336   5.760  16.208  0.00  0.00    +0.000 A 
ENDROOT
BRANCH   5   7
ATOM      7  C   UNL     1       6.743   4.762  14.441  0.00  0.00    +0.000 A 
ATOM      8  C   UNL     1       6.132   3.812  13.656  0.00  0.00    +0.000 A 
ATOM      9  N   UNL     1       6.756   3.928  12.454  0.00  0.00    +0.000 N 
ATOM     10  N   UNL     1       7.686   4.893  12.472  0.00  0.00    +0.000 NA
ATOM     11  N   UNL     1       7.688   5.416  13.691  0.00  0.00    +0.000 NA
ATOM     12  H   UNL     1       6.616   3.399  11.600  0.00  0.00    +0.000 HD
ENDBRANCH   5   7
BRANCH   1  13
ATOM     13  O   UNL     1       4.015   6.774  18.024  0.00  0.00    +0.000 OA
BRANCH  13  14
ATOM     14  C   UNL     1       2.714   6.264  17.724  0.00  0.00    +0.000 C 
BRANCH  14  19
ATOM     15  C   UNL     1       1.222   2.406  21.834  0.00  0.00    +0.000 C 
ATOM     16  C   UNL     1       1.595   3.398  20.771  0.00  0.00    +0.000 A 
ATOM     17  C   UNL     1       1.298   3.159  19.426  0.00  0.00    +0.000 A 
ATOM     18  C   UNL     1       1.659   4.087  18.447  0.00  0.00    +0.000 A 
ATOM     19  C   UNL     1       2.318   5.274  18.795  0.00  0.00    +0.000 A 
ATOM     20  C   UNL     1       2.617   5.510  20.143  0.00  0.00    +0.000 A 
ATOM     21  C   UNL     1       2.256   4.580  21.121  0.00  0.00    +0.000 A 
ENDBRANCH  14  19
ENDBRANCH  13  14
ENDBRANCH   1  13
TORSDOF 4
ENDMDL
MODEL 3
REMARK VINA RESULT:      -7.5      1.539      2.333
REMARK  Name = 
REMARK  5 active torsions:
REMARK  status: ('A' for Active; 'I' for Inactive)
REMARK    1  A    between atoms: C_1  and  C_2
REMARK    2  A    between atoms: C_5  and  C_6
REMARK    3  A    between atoms: C_6  and  O_7
REMARK    4  A    between atoms: O_7  and  C_8
REMARK    5  A    between atoms: C_12  and  C_13
REMARK                            x       y       z     vdW  Elec       q    Type
REMARK                         _______ _______ _______ _____ _____    ______ ____
ROOT
ATOM      1  C   UNL     1       4.930   3.948  17.725  0.00  0.00    +0.000 A 
ATOM      2  C   UNL     1       5.743   4.552  18.687  0.00  0.00    +0.000 A 
ATOM      3  C   UNL     1       6.925   5.189  18.321  0.00  0.00    +0.000 A 
ATOM      4  C   UNL     1       7.303   5.230  16.981  0.00  0.00    +0.000 A 
ATOM      5  C   UNL     1       6.498   4.638  15.998  0.00  0.00    +0.000 A 
ATOM      6  C   UNL     1       5.313   3.993  16.381  0.00  0.00    +0.000 A 
ENDROOT
BRANCH   5   7
ATOM      7  C   UNL     1       6.860   4.708  14.593  0.00  0.00    +0.000 A 
ATOM      8  C   UNL     1       6.349   3.942  13.571  0.00  0.00    +0.000 A 
ATOM      9  N   UNL     1       7.037   4.357  12.474  0.00  0.00    +0.000 N 
ATOM     10  N   UNL     1       7.910   5.327  12.777  0.00  0.00    +0.000 NA
ATOM     11  N   UNL     1       7.812   5.554  14.081  0.00  0.00    +0.000 NA
ATOM     12  H   UNL     1       6.976   4.035  11.515  0.00  0.00    +0.000 HD
ENDBRANCH   5   7
BRANCH   1  13
ATOM     13  O   UNL     1       3.795   3.363  18.216  0.00  0.00    +0.000 OA
BRANCH  13  14
ATOM     14  C   UNL     1       2.547   3.936  17.821  0.00  0.00    +0.000 C 
BRANCH  14  19
ATOM     15  C   UNL     1       1.482   8.549  21.225  0.00  0.00    +0.000 C 
ATOM     16  C   UNL     1       1.745   7.357  20.352  0.00  0.00    +0.000 A 
ATOM     17  C   UNL     1       1.510   6.059  20.815  0.00  0.00    +0.000 A 
ATOM     18  C   UNL     1       1.768   4.959  19.994  0.00  0.00    +0.000 A 
ATOM     19  C   UNL     1       2.261   5.135  18.694  0.00  0.00    +0.000 A 
ATOM     20  C   UNL     1       2.499   6.437  18.234  0.00  0.00    +0.000 A 
ATOM     21  C   UNL     1       2.241   7.537  19.056  0.00  0.00    +0.000 A 
ENDBRANCH  14  19
ENDBRANCH  13  14
ENDBRANCH   1  13
TORSDOF 4
ENDMDL
MODEL 4
REMARK VINA RESULT:      -7.5      0.496      1.374
REMARK  Name = 
REMARK  5 active torsions:
REMARK  status: ('A' for Active; 'I' for Inactive)
REMARK    1  A    between atoms: C_1  and  C_2
REMARK    2  A    between atoms: C_5  and  C_6
REMARK    3  A    between atoms: C_6  and  O_7
REMARK    4  A    between atoms: O_7  and  C_8
REMARK    5  A    between atoms: C_12  and  C_13
REMARK                            x       y       z     vdW  Elec       q    Type
REMARK                         _______ _______ _______ _____ _____    ______ ____
ROOT
ATOM      1  C   UNL     1       5.268   6.386  17.234  0.00  0.00    +0.000 A 
ATOM      2  C   UNL     1       6.046   5.807  18.240  0.00  0.00    +0.000 A 
ATOM      3  C   UNL     1       6.980   4.821  17.938  0.00  0.00    +0.000 A 
ATOM      4  C   UNL     1       7.147   4.405  16.620  0.00  0.00    +0.000 A 
ATOM      5  C   UNL     1       6.383   4.978  15.593  0.00  0.00    +0.000 A 
ATOM      6  C   UNL     1       5.440   5.966  15.911  0.00  0.00    +0.000 A 
ENDROOT
BRANCH   5   7
ATOM      7  C   UNL     1       6.574   4.582  14.209  0.00  0.00    +0.000 A 
ATOM      8  C   UNL     1       7.539   5.044  13.344  0.00  0.00    +0.000 A 
ATOM      9  N   UNL     1       7.264   4.407  12.175  0.00  0.00    +0.000 N 
ATOM     10  N   UNL     1       6.210   3.588  12.294  0.00  0.00    +0.000 NA
ATOM     11  N   UNL     1       5.775   3.686  13.544  0.00  0.00    +0.000 NA
ATOM     12  H   UNL     1       7.729   4.479  11.277  0.00  0.00    +0.000 HD
ENDBRANCH   5   7
BRANCH   1  13
ATOM     13  O   UNL     1       4.394   7.347  17.663  0.00  0.00    +0.000 OA
BRANCH  13  14
ATOM     14  C   UNL     1       3.005   7.113  17.425  0.00  0.00    +0.000 C 
BRANCH  14  19
ATOM     15  C   UNL     1       1.170   2.957  21.079  0.00  0.00    +0.000 C 
ATOM     16  C   UNL     1       1.631   4.025  20.132  0.00  0.00    +0.000 A 
ATOM     17  C   UNL     1       1.553   3.844  18.748  0.00  0.00    +0.000 A 
ATOM     18  C   UNL     1       1.995   4.844  17.879  0.00  0.00    +0.000 A 
ATOM     19  C   UNL     1       2.519   6.045  18.376  0.00  0.00    +0.000 A 
ATOM     20  C   UNL     1       2.600   6.222  19.764  0.00  0.00    +0.000 A 
ATOM     21  C   UNL     1       2.157   5.221  20.632  0.00  0.00    +0.000 A 
ENDBRANCH  14  19
ENDBRANCH  13  14
ENDBRANCH   1  13
TORSDOF 4
ENDMDL
MODEL 5
REMARK VINA RESULT:      -7.2      2.660      3.944
REMARK  Name = 
REMARK  5 active torsions:
REMARK  status: ('A' for Active; 'I' for Inactive)
REMARK    1  A    between atoms: C_1  and  C_2
REMARK    2  A    between atoms: C_5  and  C_6
REMARK    3  A    between atoms: C_6  and  O_7
REMARK    4  A    between atoms: O_7  and  C_8
REMARK    5  A    between atoms: C_12  and  C_13
REMARK                            x       y       z     vdW  Elec       q    Type
REMARK                         _______ _______ _______ _____ _____    ______ ____
ROOT
ATOM      1  C   UNL     1       4.925   3.909  17.090  0.00  0.00    +0.000 A 
ATOM      2  C   UNL     1       5.247   3.500  15.793  0.00  0.00    +0.000 A 
ATOM      3  C   UNL     1       6.257   4.136  15.077  0.00  0.00    +0.000 A 
ATOM      4  C   UNL     1       6.959   5.189  15.657  0.00  0.00    +0.000 A 
ATOM      5  C   UNL     1       6.658   5.612  16.960  0.00  0.00    +0.000 A 
ATOM      6  C   UNL     1       5.633   4.967  17.668  0.00  0.00    +0.000 A 
ENDROOT
BRANCH   5   7
ATOM      7  C   UNL     1       7.408   6.683  17.592  0.00  0.00    +0.000 A 
ATOM      8  C   UNL     1       8.112   6.613  18.771  0.00  0.00    +0.000 A 
ATOM      9  N   UNL     1       8.588   7.875  18.945  0.00  0.00    +0.000 N 
ATOM     10  N   UNL     1       8.224   8.682  17.940  0.00  0.00    +0.000 NA
ATOM     11  N   UNL     1       7.496   7.960  17.097  0.00  0.00    +0.000 NA
ATOM     12  H   UNL     1       9.145   8.255  19.702  0.00  0.00    +0.000 HD
ENDBRANCH   5   7
BRANCH   1  13
ATOM     13  O   UNL     1       3.919   3.198  17.684  0.00  0.00    +0.000 OA
BRANCH  13  14
ATOM     14  C   UNL     1       2.586   3.672  17.487  0.00  0.00    +0.000 C 
BRANCH  14  19
ATOM     15  C   UNL     1       1.532   8.076  21.160  0.00  0.00    +0.000 C 
ATOM     16  C   UNL     1       1.814   6.948  20.211  0.00  0.00    +0.000 A 
ATOM     17  C   UNL     1       2.227   7.196  18.899  0.00  0.00    +0.000 A 
ATOM     18  C   UNL     1       2.477   6.137  18.025  0.00  0.00    +0.000 A 
ATOM     19  C   UNL     1       2.324   4.809  18.446  0.00  0.00    +0.000 A 
ATOM     20  C   UNL     1       1.907   4.563  19.761  0.00  0.00    +0.000 A 
ATOM     21  C   UNL     1       1.656   5.624  20.635  0.00  0.00    +0.000 A 
ENDBRANCH  14  19
ENDBRANCH  13  14
ENDBRANCH   1  13
TORSDOF 4
ENDMDL
MODEL 6
REMARK VINA RESULT:      -7.2      3.378      4.579
REMARK  Name = 
REMARK  5 active torsions:
REMARK  status: ('A' for Active; 'I' for Inactive)
REMARK    1  A    between atoms: C_1  and  C_2
REMARK    2  A    between atoms: C_5  and  C_6
REMARK    3  A    between atoms: C_6  and  O_7
REMARK    4  A    between atoms: O_7  and  C_8
REMARK    5  A    between atoms: C_12  and  C_13
REMARK                            x       y       z     vdW  Elec       q    Type
REMARK                         _______ _______ _______ _____ _____    ______ ____
ROOT
ATOM      1  C   UNL     1       3.055   7.431  17.959  0.00  0.00    +0.000 A 
ATOM      2  C   UNL     1       2.130   6.438  18.292  0.00  0.00    +0.000 A 
ATOM      3  C   UNL     1       2.385   5.101  18.000  0.00  0.00    +0.000 A 
ATOM      4  C   UNL     1       3.576   4.745  17.372  0.00  0.00    +0.000 A 
ATOM      5  C   UNL     1       4.522   5.723  17.036  0.00  0.00    +0.000 A 
ATOM      6  C   UNL     1       4.249   7.067  17.329  0.00  0.00    +0.000 A 
ENDROOT
BRANCH   5   7
ATOM      7  C   UNL     1       5.784   5.362  16.417  0.00  0.00    +0.000 A 
ATOM      8  C   UNL     1       6.760   4.548  16.945  0.00  0.00    +0.000 A 
ATOM      9  N   UNL     1       7.745   4.564  16.007  0.00  0.00    +0.000 N 
ATOM     10  N   UNL     1       7.411   5.322  14.954  0.00  0.00    +0.000 NA
ATOM     11  N   UNL     1       6.204   5.820  15.192  0.00  0.00    +0.000 NA
ATOM     12  H   UNL     1       8.648   4.105  16.014  0.00  0.00    +0.000 HD
ENDBRANCH   5   7
BRANCH   1  13
ATOM     13  O   UNL     1       2.685   8.701  18.306  0.00  0.00    +0.000 OA
BRANCH  13  14
ATOM     14  C   UNL     1       1.343   9.090  18.009  0.00  0.00    +0.000 C 
BRANCH  14  19
ATOM     15  C   UNL     1      -1.083  11.203  22.871  0.00  0.00    +0.000 C 
ATOM     16  C   UNL     1      -0.462  10.648  21.624  0.00  0.00    +0.000 A 
ATOM     17  C   UNL     1       0.422   9.566  21.679  0.00  0.00    +0.000 A 
ATOM     18  C   UNL     1       1.000   9.066  20.511  0.00  0.00    +0.000 A 
ATOM     19  C   UNL     1       0.702   9.633  19.264  0.00  0.00    +0.000 A 
ATOM     20  C   UNL     1      -0.182  10.719  19.212  0.00  0.00    +0.000 A 
ATOM     21  C   UNL     1      -0.759  11.219  20.382  0.00  0.00    +0.000 A 
ENDBRANCH  14  19
ENDBRANCH  13  14
ENDBRANCH   1  13
TORSDOF 4
ENDMDL
MODEL 7
REMARK VINA RESULT:      -7.1      4.228      5.250
REMARK  Name = 
REMARK  5 active torsions:
REMARK  status: ('A' for Active; 'I' for Inactive)
REMARK    1  A    between atoms: C_1  and  C_2
REMARK    2  A    between atoms: C_5  and  C_6
REMARK    3  A    between atoms: C_6  and  O_7
REMARK    4  A    between atoms: O_7  and  C_8
REMARK    5  A    between atoms: C_12  and  C_13
REMARK                            x       y       z     vdW  Elec       q    Type
REMARK                         _______ _______ _______ _____ _____    ______ ____
ROOT
ATOM      1  C   UNL     1       3.600   7.047  17.669  0.00  0.00    +0.000 A 
ATOM      2  C   UNL     1       4.668   6.952  16.772  0.00  0.00    +0.000 A 
ATOM      3  C   UNL     1       5.119   5.710  16.333  0.00  0.00    +0.000 A 
ATOM      4  C   UNL     1       4.499   4.549  16.786  0.00  0.00    +0.000 A 
ATOM      5  C   UNL     1       3.421   4.620  17.679  0.00  0.00    +0.000 A 
ATOM      6  C   UNL     1       2.981   5.877  18.120  0.00  0.00    +0.000 A 
ENDROOT
BRANCH   5   7
ATOM      7  C   UNL     1       2.740   3.419  18.129  0.00  0.00    +0.000 A 
ATOM      8  C   UNL     1       3.223   2.132  18.084  0.00  0.00    +0.000 A 
ATOM      9  N   UNL     1       2.201   1.381  18.575  0.00  0.00    +0.000 N 
ATOM     10  N   UNL     1       1.152   2.140  18.919  0.00  0.00    +0.000 NA
ATOM     11  N   UNL     1       1.471   3.400  18.650  0.00  0.00    +0.000 NA
ATOM     12  H   UNL     1       2.140   0.376  18.697  0.00  0.00    +0.000 HD
ENDBRANCH   5   7
BRANCH   1  13
ATOM     13  O   UNL     1       3.252   8.324  18.016  0.00  0.00    +0.000 OA
BRANCH  13  14
ATOM     14  C   UNL     1       1.885   8.695  17.832  0.00  0.00    +0.000 C 
BRANCH  14  19
ATOM     15  C   UNL     1      -0.428   9.858  23.056  0.00  0.00    +0.000 C 
ATOM     16  C   UNL     1       0.165   9.546  21.714  0.00  0.00    +0.000 A 
ATOM     17  C   UNL     1       1.088   8.508  21.557  0.00  0.00    +0.000 A 
ATOM     18  C   UNL     1       1.638   8.236  20.303  0.00  0.00    +0.000 A 
ATOM     19  C   UNL     1       1.273   8.992  19.181  0.00  0.00    +0.000 A 
ATOM     20  C   UNL     1       0.350  10.034  19.342  0.00  0.00    +0.000 A 
ATOM     21  C   UNL     1      -0.199  10.306  20.597  0.00  0.00    +0.000 A 
ENDBRANCH  14  19
ENDBRANCH  13  14
ENDBRANCH   1  13
TORSDOF 4
ENDMDL
MODEL 8
REMARK VINA RESULT:      -7.1      5.607      8.145
REMARK  Name = 
REMARK  5 active torsions:
REMARK  status: ('A' for Active; 'I' for Inactive)
REMARK    1  A    between atoms: C_1  and  C_2
REMARK    2  A    between atoms: C_5  and  C_6
REMARK    3  A    between atoms: C_6  and  O_7
REMARK    4  A    between atoms: O_7  and  C_8
REMARK    5  A    between atoms: C_12  and  C_13
REMARK                            x       y       z     vdW  Elec       q    Type
REMARK                         _______ _______ _______ _____ _____    ______ ____
ROOT
ATOM      1  C   UNL     1       2.303   7.376  19.103  0.00  0.00    +0.000 A 
ATOM      2  C   UNL     1       2.285   8.130  17.927  0.00  0.00    +0.000 A 
ATOM      3  C   UNL     1       1.664   9.376  17.891  0.00  0.00    +0.000 A 
ATOM      4  C   UNL     1       1.057   9.880  19.037  0.00  0.00    +0.000 A 
ATOM      5  C   UNL     1       1.071   9.144  20.231  0.00  0.00    +0.000 A 
ATOM      6  C   UNL     1       1.693   7.888  20.252  0.00  0.00    +0.000 A 
ENDROOT
BRANCH   5   7
ATOM      7  C   UNL     1       0.476   9.675  21.444  0.00  0.00    +0.000 A 
ATOM      8  C   UNL     1      -0.513  10.628  21.530  0.00  0.00    +0.000 A 
ATOM      9  N   UNL     1      -0.682  10.806  22.868  0.00  0.00    +0.000 N 
ATOM     10  N   UNL     1       0.131  10.013  23.578  0.00  0.00    +0.000 NA
ATOM     11  N   UNL     1       0.851   9.309  22.713  0.00  0.00    +0.000 NA
ATOM     12  H   UNL     1      -1.306  11.435  23.361  0.00  0.00    +0.000 HD
ENDBRANCH   5   7
BRANCH   1  13
ATOM     13  O   UNL     1       2.950   6.174  19.006  0.00  0.00    +0.000 OA
BRANCH  13  14
ATOM     14  C   UNL     1       4.376   6.211  18.922  0.00  0.00    +0.000 C 
BRANCH  14  19
ATOM     15  C   UNL     1       5.976   3.964  13.785  0.00  0.00    +0.000 C 
ATOM     16  C   UNL     1       5.573   4.535  15.113  0.00  0.00    +0.000 A 
ATOM     17  C   UNL     1       5.302   3.702  16.203  0.00  0.00    +0.000 A 
ATOM     18  C   UNL     1       4.919   4.248  17.430  0.00  0.00    +0.000 A 
ATOM     19  C   UNL     1       4.803   5.635  17.593  0.00  0.00    +0.000 A 
ATOM     20  C   UNL     1       5.072   6.466  16.498  0.00  0.00    +0.000 A 
ATOM     21  C   UNL     1       5.454   5.920  15.270  0.00  0.00    +0.000 A 
ENDBRANCH  14  19
ENDBRANCH  13  14
ENDBRANCH   1  13
TORSDOF 4
ENDMDL
MODEL 9
REMARK VINA RESULT:      -7.1      3.426      4.696
REMARK  Name = 
REMARK  5 active torsions:
REMARK  status: ('A' for Active; 'I' for Inactive)
REMARK    1  A    between atoms: C_1  and  C_2
REMARK    2  A    between atoms: C_5  and  C_6
REMARK    3  A    between atoms: C_6  and  O_7
REMARK    4  A    between atoms: O_7  and  C_8
REMARK    5  A    between atoms: C_12  and  C_13
REMARK                            x       y       z     vdW  Elec       q    Type
REMARK                         _______ _______ _______ _____ _____    ______ ____
ROOT
ATOM      1  C   UNL     1       2.715   6.071  18.926  0.00  0.00    +0.000 A 
ATOM      2  C   UNL     1       1.918   4.936  18.754  0.00  0.00    +0.000 A 
ATOM      3  C   UNL     1       2.321   3.907  17.909  0.00  0.00    +0.000 A 
ATOM      4  C   UNL     1       3.532   4.003  17.228  0.00  0.00    +0.000 A 
ATOM      5  C   UNL     1       4.352   5.129  17.392  0.00  0.00    +0.000 A 
ATOM      6  C   UNL     1       3.931   6.162  18.241  0.00  0.00    +0.000 A 
ENDROOT
BRANCH   5   7
ATOM      7  C   UNL     1       5.635   5.224  16.720  0.00  0.00    +0.000 A 
ATOM      8  C   UNL     1       6.528   6.269  16.790  0.00  0.00    +0.000 A 
ATOM      9  N   UNL     1       7.535   5.896  15.957  0.00  0.00    +0.000 N 
ATOM     10  N   UNL     1       7.305   4.695  15.410  0.00  0.00    +0.000 NA
ATOM     11  N   UNL     1       6.136   4.268  15.872  0.00  0.00    +0.000 NA
ATOM     12  H   UNL     1       8.385   6.392  15.711  0.00  0.00    +0.000 HD
ENDBRANCH   5   7
BRANCH   1  13
ATOM     13  O   UNL     1       2.208   7.005  19.788  0.00  0.00    +0.000 OA
BRANCH  13  14
ATOM     14  C   UNL     1       1.906   8.291  19.245  0.00  0.00    +0.000 C 
BRANCH  14  19
ATOM     15  C   UNL     1      -1.370  11.211  23.084  0.00  0.00    +0.000 C 
ATOM     16  C   UNL     1      -0.535  10.450  22.097  0.00  0.00    +0.000 A 
ATOM     17  C   UNL     1      -0.198   9.112  22.319  0.00  0.00    +0.000 A 
ATOM     18  C   UNL     1       0.588   8.419  21.395  0.00  0.00    +0.000 A 
ATOM     19  C   UNL     1       1.047   9.049  20.230  0.00  0.00    +0.000 A 
ATOM     20  C   UNL     1       0.710  10.391  20.012  0.00  0.00    +0.000 A 
ATOM     21  C   UNL     1      -0.075  11.084  20.937  0.00  0.00    +0.000 A 
ENDBRANCH  14  19
ENDBRANCH  13  14
ENDBRANCH   1  13
TORSDOF 4
ENDMDL
