MODEL 1
REMARK VINA RESULT:      -7.2      0.000      0.000
REMARK  Name = 
REMARK  4 active torsions:
REMARK  status: ('A' for Active; 'I' for Inactive)
REMARK    1  A    between atoms: C_1  and  O_2
REMARK    2  A    between atoms: O_2  and  C_3
REMARK    3  A    between atoms: C_3  and  C_5
REMARK    4  A    between atoms: C_8  and  C_10
REMARK                            x       y       z     vdW  Elec       q    Type
REMARK                         _______ _______ _______ _____ _____    ______ ____
ROOT
ATOM      1  C   UNL     1       6.744   5.817  17.516  0.00  0.00    +0.000 A 
ATOM      2  C   UNL     1       5.783   5.191  18.287  0.00  0.00    +0.000 A 
ATOM      3  N   UNL     1       5.064   4.289  17.522  0.00  0.00    +0.000 N 
ATOM      4  C   UNL     1       3.980   3.488  17.985  0.00  0.00    +0.000 C 
ATOM      5  O   UNL     1       3.762   2.453  17.359  0.00  0.00    +0.000 OA
ATOM      6  C   UNL     1       5.607   4.303  16.233  0.00  0.00    +0.000 A 
ATOM      7  C   UNL     1       5.248   3.582  15.076  0.00  0.00    +0.000 A 
ATOM      8  C   UNL     1       5.955   3.807  13.893  0.00  0.00    +0.000 A 
ATOM      9  C   UNL     1       6.988   4.732  13.850  0.00  0.00    +0.000 A 
ATOM     10  C   UNL     1       7.331   5.460  14.991  0.00  0.00    +0.000 A 
ATOM     11  C   UNL     1       6.638   5.253  16.206  0.00  0.00    +0.000 A 
ENDROOT
BRANCH   4  12
ATOM     12  C   UNL     1       3.171   3.896  19.132  0.00  0.00    +0.000 A 
ATOM     13  C   UNL     1       2.327   4.984  19.272  0.00  0.00    +0.000 A 
ATOM     14  C   UNL     1       1.692   5.025  20.547  0.00  0.00    +0.000 A 
ATOM     15  C   UNL     1       2.052   3.954  21.333  0.00  0.00    +0.000 A 
ATOM     16  S   UNL     1       3.137   2.905  20.531  0.00  0.00    +0.000 S 
ENDBRANCH   4  12
BRANCH   1  17
ATOM     17  C   UNL     1       7.656   6.833  18.033  0.00  0.00    +0.000 C 
ATOM     18  O   UNL     1       8.310   6.680  19.057  0.00  0.00    +0.000 OA
BRANCH  17  20
ATOM     19  C   UNL     1       8.172   9.122  17.939  0.00  0.00    +0.000 C 
ATOM     20  O   UNL     1       7.681   7.962  17.270  0.00  0.00    +0.000 OA
ENDBRANCH  17  20
ENDBRANCH   1  17
TORSDOF 3
ENDMDL
MODEL 2
REMARK VINA RESULT:      -7.0      2.993      5.928
REMARK  Name = 
REMARK  4 active torsions:
REMARK  status: ('A' for Active; 'I' for Inactive)
REMARK    1  A    between atoms: C_1  and  O_2
REMARK    2  A    between atoms: O_2  and  C_3
REMARK    3  A    between atoms: C_3  and  C_5
REMARK    4  A    between atoms: C_8  and  C_10
REMARK                            x       y       z     vdW  Elec       q    Type
REMARK                         _______ _______ _______ _____ _____    ______ ____
ROOT
ATOM      1  C   UNL     1       2.302   6.378  19.783  0.00  0.00    +0.000 A 
ATOM      2  C   UNL     1       3.467   6.498  19.049  0.00  0.00    +0.000 A 
ATOM      3  N   UNL     1       3.927   5.250  18.667  0.00  0.00    +0.000 N 
ATOM      4  C   UNL     1       5.116   4.997  17.923  0.00  0.00    +0.000 C 
ATOM      5  O   UNL     1       5.145   3.944  17.287  0.00  0.00    +0.000 OA
ATOM      6  C   UNL     1       3.009   4.303  19.131  0.00  0.00    +0.000 A 
ATOM      7  C   UNL     1       3.002   2.897  19.020  0.00  0.00    +0.000 A 
ATOM      8  C   UNL     1       1.957   2.178  19.605  0.00  0.00    +0.000 A 
ATOM      9  C   UNL     1       0.946   2.831  20.294  0.00  0.00    +0.000 A 
ATOM     10  C   UNL     1       0.963   4.222  20.421  0.00  0.00    +0.000 A 
ATOM     11  C   UNL     1       2.005   4.980  19.837  0.00  0.00    +0.000 A 
ENDROOT
BRANCH   4  12
ATOM     12  C   UNL     1       6.234   5.936  17.936  0.00  0.00    +0.000 A 
ATOM     13  C   UNL     1       6.465   7.043  17.136  0.00  0.00    +0.000 A 
ATOM     14  C   UNL     1       7.669   7.724  17.477  0.00  0.00    +0.000 A 
ATOM     15  C   UNL     1       8.309   7.132  18.541  0.00  0.00    +0.000 A 
ATOM     16  S   UNL     1       7.456   5.772  19.129  0.00  0.00    +0.000 S 
ENDBRANCH   4  12
BRANCH   1  17
ATOM     17  C   UNL     1       1.579   7.517  20.340  0.00  0.00    +0.000 C 
ATOM     18  O   UNL     1       1.006   7.477  21.421  0.00  0.00    +0.000 OA
BRANCH  17  20
ATOM     19  C   UNL     1       0.763   9.684  19.949  0.00  0.00    +0.000 C 
ATOM     20  O   UNL     1       1.597   8.609  19.524  0.00  0.00    +0.000 OA
ENDBRANCH  17  20
ENDBRANCH   1  17
TORSDOF 3
ENDMDL
MODEL 3
REMARK VINA RESULT:      -7.0      2.737      5.787
REMARK  Name = 
REMARK  4 active torsions:
REMARK  status: ('A' for Active; 'I' for Inactive)
REMARK    1  A    between atoms: C_1  and  O_2
REMARK    2  A    between atoms: O_2  and  C_3
REMARK    3  A    between atoms: C_3  and  C_5
REMARK    4  A    between atoms: C_8  and  C_10
REMARK                            x       y       z     vdW  Elec       q    Type
REMARK                         _______ _______ _______ _____ _____    ______ ____
ROOT
ATOM      1  C   UNL     1       2.675   6.130  18.864  0.00  0.00    +0.000 A 
ATOM      2  C   UNL     1       3.419   5.644  17.806  0.00  0.00    +0.000 A 
ATOM      3  N   UNL     1       3.631   4.284  17.950  0.00  0.00    +0.000 N 
ATOM      4  C   UNL     1       4.380   3.462  17.058  0.00  0.00    +0.000 C 
ATOM      5  O   UNL     1       4.100   2.265  17.057  0.00  0.00    +0.000 OA
ATOM      6  C   UNL     1       2.966   3.875  19.110  0.00  0.00    +0.000 A 
ATOM      7  C   UNL     1       2.865   2.604  19.713  0.00  0.00    +0.000 A 
ATOM      8  C   UNL     1       2.145   2.476  20.902  0.00  0.00    +0.000 A 
ATOM      9  C   UNL     1       1.546   3.580  21.492  0.00  0.00    +0.000 A 
ATOM     10  C   UNL     1       1.663   4.842  20.905  0.00  0.00    +0.000 A 
ATOM     11  C   UNL     1       2.382   5.006  19.698  0.00  0.00    +0.000 A 
ENDROOT
BRANCH   4  12
ATOM     12  C   UNL     1       5.429   4.023  16.210  0.00  0.00    +0.000 A 
ATOM     13  C   UNL     1       5.432   4.245  14.843  0.00  0.00    +0.000 A 
ATOM     14  C   UNL     1       6.645   4.836  14.386  0.00  0.00    +0.000 A 
ATOM     15  C   UNL     1       7.523   5.068  15.420  0.00  0.00    +0.000 A 
ATOM     16  S   UNL     1       6.880   4.587  16.929  0.00  0.00    +0.000 S 
ENDBRANCH   4  12
BRANCH   1  17
ATOM     17  C   UNL     1       2.297   7.533  19.007  0.00  0.00    +0.000 C 
ATOM     18  O   UNL     1       1.906   8.012  20.064  0.00  0.00    +0.000 OA
BRANCH  17  20
ATOM     19  C   UNL     1       1.734   9.491  17.839  0.00  0.00    +0.000 C 
ATOM     20  O   UNL     1       2.408   8.234  17.844  0.00  0.00    +0.000 OA
ENDBRANCH  17  20
ENDBRANCH   1  17
TORSDOF 3
ENDMDL
MODEL 4
REMARK VINA RESULT:      -7.0      2.891      6.286
REMARK  Name = 
REMARK  4 active torsions:
REMARK  status: ('A' for Active; 'I' for Inactive)
REMARK    1  A    between atoms: C_1  and  O_2
REMARK    2  A    between atoms: O_2  and  C_3
REMARK    3  A    between atoms: C_3  and  C_5
REMARK    4  A    between atoms: C_8  and  C_10
REMARK                            x       y       z     vdW  Elec       q    Type
REMARK                         _______ _______ _______ _____ _____    ______ ____
ROOT
ATOM      1  C   UNL     1       4.163   3.791  18.412  0.00  0.00    +0.000 A 
ATOM      2  C   UNL     1       4.900   3.973  17.257  0.00  0.00    +0.000 A 
ATOM      3  N   UNL     1       4.740   5.263  16.781  0.00  0.00    +0.000 N 
ATOM      4  C   UNL     1       5.332   5.789  15.597  0.00  0.00    +0.000 C 
ATOM      5  O   UNL     1       5.477   7.010  15.558  0.00  0.00    +0.000 OA
ATOM      6  C   UNL     1       3.911   5.943  17.680  0.00  0.00    +0.000 A 
ATOM      7  C   UNL     1       3.432   7.269  17.666  0.00  0.00    +0.000 A 
ATOM      8  C   UNL     1       2.586   7.692  18.694  0.00  0.00    +0.000 A 
ATOM      9  C   UNL     1       2.212   6.823  19.708  0.00  0.00    +0.000 A 
ATOM     10  C   UNL     1       2.671   5.504  19.710  0.00  0.00    +0.000 A 
ATOM     11  C   UNL     1       3.532   5.044  18.687  0.00  0.00    +0.000 A 
ENDROOT
BRANCH   4  12
ATOM     12  C   UNL     1       5.725   4.917  14.493  0.00  0.00    +0.000 A 
ATOM     13  C   UNL     1       4.958   4.036  13.750  0.00  0.00    +0.000 A 
ATOM     14  C   UNL     1       5.709   3.377  12.733  0.00  0.00    +0.000 A 
ATOM     15  C   UNL     1       7.021   3.792  12.716  0.00  0.00    +0.000 A 
ATOM     16  S   UNL     1       7.337   4.975  13.909  0.00  0.00    +0.000 S 
ENDBRANCH   4  12
BRANCH   1  17
ATOM     17  C   UNL     1       4.114   2.530  19.146  0.00  0.00    +0.000 C 
ATOM     18  O   UNL     1       4.852   2.283  20.092  0.00  0.00    +0.000 OA
BRANCH  17  20
ATOM     19  C   UNL     1       1.851   1.904  19.105  0.00  0.00    +0.000 C 
ATOM     20  O   UNL     1       3.183   1.664  18.656  0.00  0.00    +0.000 OA
ENDBRANCH  17  20
ENDBRANCH   1  17
TORSDOF 3
ENDMDL
MODEL 5
REMARK VINA RESULT:      -7.0      3.189      5.412
REMARK  Name = 
REMARK  4 active torsions:
REMARK  status: ('A' for Active; 'I' for Inactive)
REMARK    1  A    between atoms: C_1  and  O_2
REMARK    2  A    between atoms: O_2  and  C_3
REMARK    3  A    between atoms: C_3  and  C_5
REMARK    4  A    between atoms: C_8  and  C_10
REMARK                            x       y       z     vdW  Elec       q    Type
REMARK                         _______ _______ _______ _____ _____    ______ ____
ROOT
ATOM      1  C   UNL     1       2.543   4.229  18.555  0.00  0.00    +0.000 A 
ATOM      2  C   UNL     1       1.968   5.453  18.839  0.00  0.00    +0.000 A 
ATOM      3  N   UNL     1       2.667   6.471  18.213  0.00  0.00    +0.000 N 
ATOM      4  C   UNL     1       2.370   7.861  18.309  0.00  0.00    +0.000 C 
ATOM      5  O   UNL     1       2.757   8.565  17.378  0.00  0.00    +0.000 OA
ATOM      6  C   UNL     1       3.694   5.880  17.470  0.00  0.00    +0.000 A 
ATOM      7  C   UNL     1       4.692   6.459  16.659  0.00  0.00    +0.000 A 
ATOM      8  C   UNL     1       5.624   5.625  16.037  0.00  0.00    +0.000 A 
ATOM      9  C   UNL     1       5.581   4.251  16.221  0.00  0.00    +0.000 A 
ATOM     10  C   UNL     1       4.605   3.680  17.040  0.00  0.00    +0.000 A 
ATOM     11  C   UNL     1       3.643   4.495  17.681  0.00  0.00    +0.000 A 
ENDROOT
BRANCH   4  12
ATOM     12  C   UNL     1       1.657   8.408  19.461  0.00  0.00    +0.000 A 
ATOM     13  C   UNL     1       1.627   7.961  20.771  0.00  0.00    +0.000 A 
ATOM     14  C   UNL     1       0.826   8.785  21.613  0.00  0.00    +0.000 A 
ATOM     15  C   UNL     1       0.288   9.849  20.926  0.00  0.00    +0.000 A 
ATOM     16  S   UNL     1       0.756   9.856  19.283  0.00  0.00    +0.000 S 
ENDBRANCH   4  12
BRANCH   1  17
ATOM     17  C   UNL     1       2.042   2.962  19.080  0.00  0.00    +0.000 C 
ATOM     18  O   UNL     1       1.130   2.338  18.552  0.00  0.00    +0.000 OA
BRANCH  17  20
ATOM     19  C   UNL     1       1.916   2.713  21.412  0.00  0.00    +0.000 C 
ATOM     20  O   UNL     1       2.681   2.567  20.217  0.00  0.00    +0.000 OA
ENDBRANCH  17  20
ENDBRANCH   1  17
TORSDOF 3
ENDMDL
MODEL 6
REMARK VINA RESULT:      -6.8      3.324      4.826
REMARK  Name = 
REMARK  4 active torsions:
REMARK  status: ('A' for Active; 'I' for Inactive)
REMARK    1  A    between atoms: C_1  and  O_2
REMARK    2  A    between atoms: O_2  and  C_3
REMARK    3  A    between atoms: C_3  and  C_5
REMARK    4  A    between atoms: C_8  and  C_10
REMARK                            x       y       z     vdW  Elec       q    Type
REMARK                         _______ _______ _______ _____ _____    ______ ____
ROOT
ATOM      1  C   UNL     1       4.423   5.272  17.218  0.00  0.00    +0.000 A 
ATOM      2  C   UNL     1       3.878   6.362  17.870  0.00  0.00    +0.000 A 
ATOM      3  N   UNL     1       2.916   5.950  18.776  0.00  0.00    +0.000 N 
ATOM      4  C   UNL     1       2.133   6.809  19.601  0.00  0.00    +0.000 C 
ATOM      5  O   UNL     1       1.686   6.311  20.632  0.00  0.00    +0.000 OA
ATOM      6  C   UNL     1       2.873   4.553  18.737  0.00  0.00    +0.000 A 
ATOM      7  C   UNL     1       2.071   3.638  19.450  0.00  0.00    +0.000 A 
ATOM      8  C   UNL     1       2.219   2.272  19.199  0.00  0.00    +0.000 A 
ATOM      9  C   UNL     1       3.129   1.819  18.255  0.00  0.00    +0.000 A 
ATOM     10  C   UNL     1       3.908   2.726  17.535  0.00  0.00    +0.000 A 
ATOM     11  C   UNL     1       3.787   4.116  17.768  0.00  0.00    +0.000 A 
ENDROOT
BRANCH   4  12
ATOM     12  C   UNL     1       1.871   8.195  19.221  0.00  0.00    +0.000 A 
ATOM     13  C   UNL     1       2.144   8.849  18.032  0.00  0.00    +0.000 A 
ATOM     14  C   UNL     1       1.711  10.207  18.041  0.00  0.00    +0.000 A 
ATOM     15  C   UNL     1       1.101  10.542  19.228  0.00  0.00    +0.000 A 
ATOM     16  S   UNL     1       1.041   9.224  20.314  0.00  0.00    +0.000 S 
ENDBRANCH   4  12
BRANCH   1  17
ATOM     17  C   UNL     1       5.456   5.381  16.192  0.00  0.00    +0.000 C 
ATOM     18  O   UNL     1       5.420   6.216  15.297  0.00  0.00    +0.000 OA
BRANCH  17  20
ATOM     19  C   UNL     1       7.374   4.715  17.373  0.00  0.00    +0.000 C 
ATOM     20  O   UNL     1       6.441   4.448  16.328  0.00  0.00    +0.000 OA
ENDBRANCH  17  20
ENDBRANCH   1  17
TORSDOF 3
ENDMDL
MODEL 7
REMARK VINA RESULT:      -6.7      3.331      5.367
REMARK  Name = 
REMARK  4 active torsions:
REMARK  status: ('A' for Active; 'I' for Inactive)
REMARK    1  A    between atoms: C_1  and  O_2
REMARK    2  A    between atoms: O_2  and  C_3
REMARK    3  A    between atoms: C_3  and  C_5
REMARK    4  A    between atoms: C_8  and  C_10
REMARK                            x       y       z     vdW  Elec       q    Type
REMARK                         _______ _______ _______ _____ _____    ______ ____
ROOT
ATOM      1  C   UNL     1       2.971   4.475  18.983  0.00  0.00    +0.000 A 
ATOM      2  C   UNL     1       2.255   5.633  19.221  0.00  0.00    +0.000 A 
ATOM      3  N   UNL     1       2.725   6.662  18.425  0.00  0.00    +0.000 N 
ATOM      4  C   UNL     1       2.237   8.001  18.427  0.00  0.00    +0.000 C 
ATOM      5  O   UNL     1       2.415   8.647  17.396  0.00  0.00    +0.000 OA
ATOM      6  C   UNL     1       3.743   6.141  17.619  0.00  0.00    +0.000 A 
ATOM      7  C   UNL     1       4.551   6.759  16.643  0.00  0.00    +0.000 A 
ATOM      8  C   UNL     1       5.524   5.998  15.992  0.00  0.00    +0.000 A 
ATOM      9  C   UNL     1       5.705   4.659  16.305  0.00  0.00    +0.000 A 
ATOM     10  C   UNL     1       4.917   4.052  17.286  0.00  0.00    +0.000 A 
ATOM     11  C   UNL     1       3.919   4.793  17.961  0.00  0.00    +0.000 A 
ENDROOT
BRANCH   4  12
ATOM     12  C   UNL     1       1.579   8.567  19.602  0.00  0.00    +0.000 A 
ATOM     13  C   UNL     1       1.581   8.121  20.913  0.00  0.00    +0.000 A 
ATOM     14  C   UNL     1       0.832   8.967  21.781  0.00  0.00    +0.000 A 
ATOM     15  C   UNL     1       0.299  10.045  21.112  0.00  0.00    +0.000 A 
ATOM     16  S   UNL     1       0.712  10.040  19.453  0.00  0.00    +0.000 S 
ENDBRANCH   4  12
BRANCH   1  17
ATOM     17  C   UNL     1       2.722   3.216  19.679  0.00  0.00    +0.000 C 
ATOM     18  O   UNL     1       2.975   3.050  20.865  0.00  0.00    +0.000 OA
BRANCH  17  20
ATOM     19  C   UNL     1       0.781   2.275  18.749  0.00  0.00    +0.000 C 
ATOM     20  O   UNL     1       2.202   2.253  18.866  0.00  0.00    +0.000 OA
ENDBRANCH  17  20
ENDBRANCH   1  17
TORSDOF 3
ENDMDL
MODEL 8
REMARK VINA RESULT:      -6.7      3.630      5.855
REMARK  Name = 
REMARK  4 active torsions:
REMARK  status: ('A' for Active; 'I' for Inactive)
REMARK    1  A    between atoms: C_1  and  O_2
REMARK    2  A    between atoms: O_2  and  C_3
REMARK    3  A    between atoms: C_3  and  C_5
REMARK    4  A    between atoms: C_8  and  C_10
REMARK                            x       y       z     vdW  Elec       q    Type
REMARK                         _______ _______ _______ _____ _____    ______ ____
ROOT
ATOM      1  C   UNL     1       2.591   4.631  20.085  0.00  0.00    +0.000 A 
ATOM      2  C   UNL     1       1.876   5.804  20.242  0.00  0.00    +0.000 A 
ATOM      3  N   UNL     1       2.364   6.784  19.396  0.00  0.00    +0.000 N 
ATOM      4  C   UNL     1       1.882   8.122  19.312  0.00  0.00    +0.000 C 
ATOM      5  O   UNL     1       2.081   8.706  18.248  0.00  0.00    +0.000 OA
ATOM      6  C   UNL     1       3.394   6.213  18.641  0.00  0.00    +0.000 A 
ATOM      7  C   UNL     1       4.222   6.770  17.645  0.00  0.00    +0.000 A 
ATOM      8  C   UNL     1       5.203   5.970  17.056  0.00  0.00    +0.000 A 
ATOM      9  C   UNL     1       5.372   4.650  17.450  0.00  0.00    +0.000 A 
ATOM     10  C   UNL     1       4.565   4.105  18.450  0.00  0.00    +0.000 A 
ATOM     11  C   UNL     1       3.558   4.886  19.063  0.00  0.00    +0.000 A 
ENDROOT
BRANCH   4  12
ATOM     12  C   UNL     1       1.206   8.758  20.440  0.00  0.00    +0.000 A 
ATOM     13  C   UNL     1       1.426   8.604  21.799  0.00  0.00    +0.000 A 
ATOM     14  C   UNL     1       0.567   9.423  22.589  0.00  0.00    +0.000 A 
ATOM     15  C   UNL     1      -0.266  10.193  21.810  0.00  0.00    +0.000 A 
ATOM     16  S   UNL     1      -0.004   9.936  20.140  0.00  0.00    +0.000 S 
ENDBRANCH   4  12
BRANCH   1  17
ATOM     17  C   UNL     1       2.324   3.416  20.848  0.00  0.00    +0.000 C 
ATOM     18  O   UNL     1       2.320   3.387  22.072  0.00  0.00    +0.000 OA
BRANCH  17  20
ATOM     19  C   UNL     1       0.955   2.426  19.216  0.00  0.00    +0.000 C 
ATOM     20  O   UNL     1       2.103   2.329  20.056  0.00  0.00    +0.000 OA
ENDBRANCH  17  20
ENDBRANCH   1  17
TORSDOF 3
ENDMDL
MODEL 9
REMARK VINA RESULT:      -6.7      2.908      6.388
REMARK  Name = 
REMARK  4 active torsions:
REMARK  status: ('A' for Active; 'I' for Inactive)
REMARK    1  A    between atoms: C_1  and  O_2
REMARK    2  A    between atoms: O_2  and  C_3
REMARK    3  A    between atoms: C_3  and  C_5
REMARK    4  A    between atoms: C_8  and  C_10
REMARK                            x       y       z     vdW  Elec       q    Type
REMARK                         _______ _______ _______ _____ _____    ______ ____
ROOT
ATOM      1  C   UNL     1       3.566   3.510  17.817  0.00  0.00    +0.000 A 
ATOM      2  C   UNL     1       4.473   3.664  16.786  0.00  0.00    +0.000 A 
ATOM      3  N   UNL     1       4.667   5.006  16.510  0.00  0.00    +0.000 N 
ATOM      4  C   UNL     1       5.514   5.529  15.490  0.00  0.00    +0.000 C 
ATOM      5  O   UNL     1       5.930   6.673  15.662  0.00  0.00    +0.000 OA
ATOM      6  C   UNL     1       3.898   5.738  17.420  0.00  0.00    +0.000 A 
ATOM      7  C   UNL     1       3.730   7.130  17.571  0.00  0.00    +0.000 A 
ATOM      8  C   UNL     1       2.869   7.602  18.565  0.00  0.00    +0.000 A 
ATOM      9  C   UNL     1       2.179   6.720  19.384  0.00  0.00    +0.000 A 
ATOM     10  C   UNL     1       2.331   5.342  19.220  0.00  0.00    +0.000 A 
ATOM     11  C   UNL     1       3.198   4.830  18.226  0.00  0.00    +0.000 A 
ENDROOT
BRANCH   4  12
ATOM     12  C   UNL     1       5.849   4.743  14.305  0.00  0.00    +0.000 A 
ATOM     13  C   UNL     1       5.048   3.904  13.549  0.00  0.00    +0.000 A 
ATOM     14  C   UNL     1       5.742   3.331  12.445  0.00  0.00    +0.000 A 
ATOM     15  C   UNL     1       7.046   3.767  12.377  0.00  0.00    +0.000 A 
ATOM     16  S   UNL     1       7.421   4.868  13.629  0.00  0.00    +0.000 S 
ENDBRANCH   4  12
BRANCH   1  17
ATOM     17  C   UNL     1       3.142   2.211  18.331  0.00  0.00    +0.000 C 
ATOM     18  O   UNL     1       2.013   1.768  18.166  0.00  0.00    +0.000 OA
BRANCH  17  20
ATOM     19  C   UNL     1       4.403   2.110  20.310  0.00  0.00    +0.000 C 
ATOM     20  O   UNL     1       4.124   1.566  19.022  0.00  0.00    +0.000 OA
ENDBRANCH  17  20
ENDBRANCH   1  17
TORSDOF 3
ENDMDL
