MODEL 1
REMARK VINA RESULT:      -8.4      0.000      0.000
REMARK  Name = 
REMARK  8 active torsions:
REMARK  status: ('A' for Active; 'I' for Inactive)
REMARK    1  A    between atoms: C_1  and  C_2
REMARK    2  A    between atoms: C_5  and  C_6
REMARK    3  A    between atoms: C_7  and  C_8
REMARK    4  A    between atoms: C_8  and  N_9
REMARK    5  A    between atoms: C_11  and  N_12
REMARK    6  A    between atoms: N_12  and  C_13
REMARK    7  A    between atoms: N_12  and  C_14
REMARK    8  A    between atoms: C_14  and  C_15
REMARK                            x       y       z     vdW  Elec       q    Type
REMARK                         _______ _______ _______ _____ _____    ______ ____
ROOT
ATOM      1  N   UNL     1       3.799   4.442  17.328  0.00  0.00    +0.000 NA
ATOM      2  C   UNL     1       3.623   5.923  17.404  0.00  0.00    +0.000 C 
ATOM      3  C   UNL     1       3.227   6.339  18.865  0.00  0.00    +0.000 C 
ATOM      4  C   UNL     1       3.253   4.976  19.605  0.00  0.00    +0.000 C 
ATOM      5  O   UNL     1       2.526   4.777  20.801  0.00  0.00    +0.000 OA
ATOM      6  C   UNL     1       1.154   4.450  20.702  0.00  0.00    +0.000 C 
ATOM      7  C   UNL     1       0.792   3.483  19.584  0.00  0.00    +0.000 C 
ATOM      8  C   UNL     1       1.547   3.698  18.269  0.00  0.00    +0.000 C 
ATOM      9  C   UNL     1       3.046   3.928  18.515  0.00  0.00    +0.000 C 
ENDROOT
BRANCH   3  10
ATOM     10  N   UNL     1       2.134   7.340  18.979  0.00  0.00    +0.000 NA
ATOM     11  C   UNL     1       1.878   7.919  20.292  0.00  0.00    +0.000 C 
BRANCH  10  12
ATOM     12  C   UNL     1       2.190   8.399  17.953  0.00  0.00    +0.000 C 
BRANCH  12  13
ATOM     13  C   UNL     1       1.214   9.496  18.183  0.00  0.00    +0.000 A 
ATOM     14  C   UNL     1      -0.155   9.589  18.054  0.00  0.00    +0.000 A 
ATOM     15  C   UNL     1      -0.504  10.895  18.468  0.00  0.00    +0.000 A 
ATOM     16  C   UNL     1       0.672  11.517  18.817  0.00  0.00    +0.000 A 
ATOM     17  O   UNL     1       1.722  10.675  18.647  0.00  0.00    +0.000 OA
ENDBRANCH  12  13
ENDBRANCH  10  12
ENDBRANCH   3  10
BRANCH   1  18
ATOM     18  C   UNL     1       5.232   4.025  17.410  0.00  0.00    +0.000 C 
BRANCH  18  25
ATOM     19  C   UNL     1       6.045   3.718  14.206  0.00  0.00    +0.000 C 
ATOM     20  C   UNL     1       6.530   4.704  15.197  0.00  0.00    +0.000 A 
ATOM     21  N   UNL     1       7.451   5.598  14.812  0.00  0.00    +0.000 NA
ATOM     22  O   UNL     1       7.797   6.278  15.951  0.00  0.00    +0.000 OA
ATOM     23  C   UNL     1       7.091   5.807  17.013  0.00  0.00    +0.000 A 
ATOM     24  C   UNL     1       7.503   6.398  18.298  0.00  0.00    +0.000 C 
ATOM     25  C   UNL     1       6.197   4.835  16.578  0.00  0.00    +0.000 A 
ENDBRANCH  18  25
ENDBRANCH   1  18
TORSDOF 5
ENDMDL
MODEL 2
REMARK VINA RESULT:      -8.1      0.414      1.622
REMARK  Name = 
REMARK  8 active torsions:
REMARK  status: ('A' for Active; 'I' for Inactive)
REMARK    1  A    between atoms: C_1  and  C_2
REMARK    2  A    between atoms: C_5  and  C_6
REMARK    3  A    between atoms: C_7  and  C_8
REMARK    4  A    between atoms: C_8  and  N_9
REMARK    5  A    between atoms: C_11  and  N_12
REMARK    6  A    between atoms: N_12  and  C_13
REMARK    7  A    between atoms: N_12  and  C_14
REMARK    8  A    between atoms: C_14  and  C_15
REMARK                            x       y       z     vdW  Elec       q    Type
REMARK                         _______ _______ _______ _____ _____    ______ ____
ROOT
ATOM      1  N   UNL     1       3.799   4.415  17.359  0.00  0.00    +0.000 NA
ATOM      2  C   UNL     1       3.650   5.897  17.471  0.00  0.00    +0.000 C 
ATOM      3  C   UNL     1       3.225   6.282  18.932  0.00  0.00    +0.000 C 
ATOM      4  C   UNL     1       3.206   4.900  19.635  0.00  0.00    +0.000 C 
ATOM      5  O   UNL     1       2.445   4.684  20.807  0.00  0.00    +0.000 OA
ATOM      6  C   UNL     1       1.070   4.386  20.665  0.00  0.00    +0.000 C 
ATOM      7  C   UNL     1       0.718   3.457  19.513  0.00  0.00    +0.000 C 
ATOM      8  C   UNL     1       1.511   3.692  18.223  0.00  0.00    +0.000 C 
ATOM      9  C   UNL     1       3.007   3.886  18.513  0.00  0.00    +0.000 C 
ENDROOT
BRANCH   3  10
ATOM     10  N   UNL     1       2.149   7.301  19.045  0.00  0.00    +0.000 NA
ATOM     11  C   UNL     1       1.882   7.863  20.364  0.00  0.00    +0.000 C 
BRANCH  10  12
ATOM     12  C   UNL     1       2.242   8.376  18.039  0.00  0.00    +0.000 C 
BRANCH  12  13
ATOM     13  C   UNL     1       1.226   9.446  18.223  0.00  0.00    +0.000 A 
ATOM     14  C   UNL     1      -0.133   9.509  18.004  0.00  0.00    +0.000 A 
ATOM     15  C   UNL     1      -0.540  10.799  18.417  0.00  0.00    +0.000 A 
ATOM     16  C   UNL     1       0.594  11.441  18.854  0.00  0.00    +0.000 A 
ATOM     17  O   UNL     1       1.673  10.627  18.740  0.00  0.00    +0.000 OA
ENDBRANCH  12  13
ENDBRANCH  10  12
ENDBRANCH   3  10
BRANCH   1  18
ATOM     18  C   UNL     1       5.222   3.968  17.466  0.00  0.00    +0.000 C 
BRANCH  18  25
ATOM     19  C   UNL     1       7.295   6.384  18.406  0.00  0.00    +0.000 C 
ATOM     20  C   UNL     1       7.115   5.784  17.066  0.00  0.00    +0.000 A 
ATOM     21  N   UNL     1       7.838   6.267  16.046  0.00  0.00    +0.000 NA
ATOM     22  O   UNL     1       7.372   5.621  14.930  0.00  0.00    +0.000 OA
ATOM     23  C   UNL     1       6.382   4.752  15.269  0.00  0.00    +0.000 A 
ATOM     24  C   UNL     1       5.739   4.116  14.106  0.00  0.00    +0.000 C 
ATOM     25  C   UNL     1       6.218   4.756  16.650  0.00  0.00    +0.000 A 
ENDBRANCH  18  25
ENDBRANCH   1  18
TORSDOF 5
ENDMDL
MODEL 3
REMARK VINA RESULT:      -7.3      1.307      1.595
REMARK  Name = 
REMARK  8 active torsions:
REMARK  status: ('A' for Active; 'I' for Inactive)
REMARK    1  A    between atoms: C_1  and  C_2
REMARK    2  A    between atoms: C_5  and  C_6
REMARK    3  A    between atoms: C_7  and  C_8
REMARK    4  A    between atoms: C_8  and  N_9
REMARK    5  A    between atoms: C_11  and  N_12
REMARK    6  A    between atoms: N_12  and  C_13
REMARK    7  A    between atoms: N_12  and  C_14
REMARK    8  A    between atoms: C_14  and  C_15
REMARK                            x       y       z     vdW  Elec       q    Type
REMARK                         _______ _______ _______ _____ _____    ______ ____
ROOT
ATOM      1  N   UNL     1       3.962   4.167  17.451  0.00  0.00    +0.000 NA
ATOM      2  C   UNL     1       3.671   5.542  17.957  0.00  0.00    +0.000 C 
ATOM      3  C   UNL     1       3.192   5.472  19.451  0.00  0.00    +0.000 C 
ATOM      4  C   UNL     1       3.296   3.954  19.749  0.00  0.00    +0.000 C 
ATOM      5  O   UNL     1       2.544   3.357  20.787  0.00  0.00    +0.000 OA
ATOM      6  C   UNL     1       1.206   2.990  20.517  0.00  0.00    +0.000 C 
ATOM      7  C   UNL     1       0.958   2.386  19.143  0.00  0.00    +0.000 C 
ATOM      8  C   UNL     1       1.742   3.036  17.997  0.00  0.00    +0.000 C 
ATOM      9  C   UNL     1       3.209   3.273  18.385  0.00  0.00    +0.000 C 
ENDROOT
BRANCH   3  10
ATOM     10  N   UNL     1       2.023   6.322  19.796  0.00  0.00    +0.000 NA
ATOM     11  C   UNL     1       1.399   6.121  21.098  0.00  0.00    +0.000 C 
BRANCH  10  12
ATOM     12  C   UNL     1       2.240   7.760  19.547  0.00  0.00    +0.000 C 
BRANCH  12  13
ATOM     13  C   UNL     1       1.347   8.639  20.347  0.00  0.00    +0.000 A 
ATOM     14  C   UNL     1       1.338   9.027  21.669  0.00  0.00    +0.000 A 
ATOM     15  C   UNL     1       0.247   9.915  21.812  0.00  0.00    +0.000 A 
ATOM     16  C   UNL     1      -0.342  10.007  20.573  0.00  0.00    +0.000 A 
ATOM     17  O   UNL     1       0.319   9.235  19.676  0.00  0.00    +0.000 OA
ENDBRANCH  12  13
ENDBRANCH  10  12
ENDBRANCH   3  10
BRANCH   1  18
ATOM     18  C   UNL     1       5.419   3.836  17.486  0.00  0.00    +0.000 C 
BRANCH  18  25
ATOM     19  C   UNL     1       6.157   3.679  14.254  0.00  0.00    +0.000 C 
ATOM     20  C   UNL     1       6.614   4.658  15.264  0.00  0.00    +0.000 A 
ATOM     21  N   UNL     1       7.472   5.616  14.886  0.00  0.00    +0.000 NA
ATOM     22  O   UNL     1       7.810   6.278  16.037  0.00  0.00    +0.000 OA
ATOM     23  C   UNL     1       7.162   5.733  17.101  0.00  0.00    +0.000 A 
ATOM     24  C   UNL     1       7.576   6.305  18.394  0.00  0.00    +0.000 C 
ATOM     25  C   UNL     1       6.313   4.726  16.657  0.00  0.00    +0.000 A 
ENDBRANCH  18  25
ENDBRANCH   1  18
TORSDOF 5
ENDMDL
MODEL 4
REMARK VINA RESULT:      -7.3      2.096      6.652
REMARK  Name = 
REMARK  8 active torsions:
REMARK  status: ('A' for Active; 'I' for Inactive)
REMARK    1  A    between atoms: C_1  and  C_2
REMARK    2  A    between atoms: C_5  and  C_6
REMARK    3  A    between atoms: C_7  and  C_8
REMARK    4  A    between atoms: C_8  and  N_9
REMARK    5  A    between atoms: C_11  and  N_12
REMARK    6  A    between atoms: N_12  and  C_13
REMARK    7  A    between atoms: N_12  and  C_14
REMARK    8  A    between atoms: C_14  and  C_15
REMARK                            x       y       z     vdW  Elec       q    Type
REMARK                         _______ _______ _______ _____ _____    ______ ____
ROOT
ATOM      1  N   UNL     1       1.842   6.553  20.706  0.00  0.00    +0.000 NA
ATOM      2  C   UNL     1       2.676   6.683  19.474  0.00  0.00    +0.000 C 
ATOM      3  C   UNL     1       2.426   5.456  18.527  0.00  0.00    +0.000 C 
ATOM      4  C   UNL     1       1.343   4.665  19.307  0.00  0.00    +0.000 C 
ATOM      5  O   UNL     1       1.146   3.283  19.089  0.00  0.00    +0.000 OA
ATOM      6  C   UNL     1       1.988   2.372  19.767  0.00  0.00    +0.000 C 
ATOM      7  C   UNL     1       2.317   2.735  21.208  0.00  0.00    +0.000 C 
ATOM      8  C   UNL     1       2.563   4.225  21.463  0.00  0.00    +0.000 C 
ATOM      9  C   UNL     1       1.508   5.095  20.762  0.00  0.00    +0.000 C 
ENDROOT
BRANCH   3  10
ATOM     10  N   UNL     1       3.638   4.851  17.918  0.00  0.00    +0.000 NA
ATOM     11  C   UNL     1       3.462   3.664  17.090  0.00  0.00    +0.000 C 
BRANCH  10  12
ATOM     12  C   UNL     1       4.511   5.826  17.238  0.00  0.00    +0.000 C 
BRANCH  12  13
ATOM     13  C   UNL     1       5.842   5.977  17.882  0.00  0.00    +0.000 A 
ATOM     14  C   UNL     1       6.966   6.714  17.574  0.00  0.00    +0.000 A 
ATOM     15  C   UNL     1       7.899   6.461  18.605  0.00  0.00    +0.000 A 
ATOM     16  C   UNL     1       7.290   5.585  19.472  0.00  0.00    +0.000 A 
ATOM     17  O   UNL     1       6.040   5.284  19.041  0.00  0.00    +0.000 OA
ENDBRANCH  12  13
ENDBRANCH  10  12
ENDBRANCH   3  10
BRANCH   1  18
ATOM     18  C   UNL     1       0.588   7.365  20.642  0.00  0.00    +0.000 C 
BRANCH  18  25
ATOM     19  C   UNL     1       0.192   9.413  23.224  0.00  0.00    +0.000 C 
ATOM     20  C   UNL     1       0.613   9.731  21.842  0.00  0.00    +0.000 A 
ATOM     21  N   UNL     1       0.846  11.012  21.523  0.00  0.00    +0.000 NA
ATOM     22  O   UNL     1       1.085  11.014  20.173  0.00  0.00    +0.000 OA
ATOM     23  C   UNL     1       1.003   9.749  19.679  0.00  0.00    +0.000 A 
ATOM     24  C   UNL     1       1.116   9.685  18.212  0.00  0.00    +0.000 C 
ATOM     25  C   UNL     1       0.772   8.861  20.724  0.00  0.00    +0.000 A 
ENDBRANCH  18  25
ENDBRANCH   1  18
TORSDOF 5
ENDMDL
MODEL 5
REMARK VINA RESULT:      -7.2      1.062      1.553
REMARK  Name = 
REMARK  8 active torsions:
REMARK  status: ('A' for Active; 'I' for Inactive)
REMARK    1  A    between atoms: C_1  and  C_2
REMARK    2  A    between atoms: C_5  and  C_6
REMARK    3  A    between atoms: C_7  and  C_8
REMARK    4  A    between atoms: C_8  and  N_9
REMARK    5  A    between atoms: C_11  and  N_12
REMARK    6  A    between atoms: N_12  and  C_13
REMARK    7  A    between atoms: N_12  and  C_14
REMARK    8  A    between atoms: C_14  and  C_15
REMARK                            x       y       z     vdW  Elec       q    Type
REMARK                         _______ _______ _______ _____ _____    ______ ____
ROOT
ATOM      1  N   UNL     1       4.149   3.866  17.395  0.00  0.00    +0.000 NA
ATOM      2  C   UNL     1       3.730   5.205  17.910  0.00  0.00    +0.000 C 
ATOM      3  C   UNL     1       3.279   5.084  19.409  0.00  0.00    +0.000 C 
ATOM      4  C   UNL     1       3.537   3.582  19.700  0.00  0.00    +0.000 C 
ATOM      5  O   UNL     1       2.861   2.912  20.746  0.00  0.00    +0.000 OA
ATOM      6  C   UNL     1       1.563   2.415  20.491  0.00  0.00    +0.000 C 
ATOM      7  C   UNL     1       1.359   1.792  19.117  0.00  0.00    +0.000 C 
ATOM      8  C   UNL     1       2.059   2.518  17.964  0.00  0.00    +0.000 C 
ATOM      9  C   UNL     1       3.500   2.900  18.336  0.00  0.00    +0.000 C 
ENDROOT
BRANCH   3  10
ATOM     10  N   UNL     1       2.036   5.812  19.771  0.00  0.00    +0.000 NA
ATOM     11  C   UNL     1       1.039   5.102  20.564  0.00  0.00    +0.000 C 
BRANCH  10  12
ATOM     12  C   UNL     1       2.277   7.155  20.333  0.00  0.00    +0.000 C 
BRANCH  12  13
ATOM     13  C   UNL     1       1.882   8.258  19.417  0.00  0.00    +0.000 A 
ATOM     14  C   UNL     1       2.083   8.490  18.073  0.00  0.00    +0.000 A 
ATOM     15  C   UNL     1       1.421   9.704  17.779  0.00  0.00    +0.000 A 
ATOM     16  C   UNL     1       0.866  10.138  18.960  0.00  0.00    +0.000 A 
ATOM     17  O   UNL     1       1.141   9.265  19.961  0.00  0.00    +0.000 OA
ENDBRANCH  12  13
ENDBRANCH  10  12
ENDBRANCH   3  10
BRANCH   1  18
ATOM     18  C   UNL     1       5.633   3.681  17.412  0.00  0.00    +0.000 C 
BRANCH  18  25
ATOM     19  C   UNL     1       6.237   3.763  14.149  0.00  0.00    +0.000 C 
ATOM     20  C   UNL     1       6.669   4.713  15.198  0.00  0.00    +0.000 A 
ATOM     21  N   UNL     1       7.441   5.750  14.844  0.00  0.00    +0.000 NA
ATOM     22  O   UNL     1       7.784   6.367  16.019  0.00  0.00    +0.000 OA
ATOM     23  C   UNL     1       7.221   5.717  17.073  0.00  0.00    +0.000 A 
ATOM     24  C   UNL     1       7.651   6.242  18.381  0.00  0.00    +0.000 C 
ATOM     25  C   UNL     1       6.426   4.679  16.603  0.00  0.00    +0.000 A 
ENDBRANCH  18  25
ENDBRANCH   1  18
TORSDOF 5
ENDMDL
MODEL 6
REMARK VINA RESULT:      -7.2      1.614      2.041
REMARK  Name = 
REMARK  8 active torsions:
REMARK  status: ('A' for Active; 'I' for Inactive)
REMARK    1  A    between atoms: C_1  and  C_2
REMARK    2  A    between atoms: C_5  and  C_6
REMARK    3  A    between atoms: C_7  and  C_8
REMARK    4  A    between atoms: C_8  and  N_9
REMARK    5  A    between atoms: C_11  and  N_12
REMARK    6  A    between atoms: N_12  and  C_13
REMARK    7  A    between atoms: N_12  and  C_14
REMARK    8  A    between atoms: C_14  and  C_15
REMARK                            x       y       z     vdW  Elec       q    Type
REMARK                         _______ _______ _______ _____ _____    ______ ____
ROOT
ATOM      1  N   UNL     1       3.654   4.394  17.215  0.00  0.00    +0.000 NA
ATOM      2  C   UNL     1       3.712   5.844  17.569  0.00  0.00    +0.000 C 
ATOM      3  C   UNL     1       3.506   6.026  19.115  0.00  0.00    +0.000 C 
ATOM      4  C   UNL     1       3.387   4.557  19.596  0.00  0.00    +0.000 C 
ATOM      5  O   UNL     1       2.741   4.234  20.812  0.00  0.00    +0.000 OA
ATOM      6  C   UNL     1       1.332   4.116  20.808  0.00  0.00    +0.000 C 
ATOM      7  C   UNL     1       0.736   3.436  19.585  0.00  0.00    +0.000 C 
ATOM      8  C   UNL     1       1.403   3.793  18.253  0.00  0.00    +0.000 C 
ATOM      9  C   UNL     1       2.934   3.771  18.369  0.00  0.00    +0.000 C 
ENDROOT
BRANCH   3  10
ATOM     10  N   UNL     1       2.590   7.124  19.521  0.00  0.00    +0.000 NA
ATOM     11  C   UNL     1       1.950   7.899  18.465  0.00  0.00    +0.000 C 
BRANCH  10  12
ATOM     12  C   UNL     1       1.599   6.725  20.538  0.00  0.00    +0.000 C 
BRANCH  12  13
ATOM     13  C   UNL     1       1.055   7.871  21.314  0.00  0.00    +0.000 A 
ATOM     14  C   UNL     1       1.632   8.976  21.901  0.00  0.00    +0.000 A 
ATOM     15  C   UNL     1       0.572   9.725  22.460  0.00  0.00    +0.000 A 
ATOM     16  C   UNL     1      -0.581   9.029  22.185  0.00  0.00    +0.000 A 
ATOM     17  O   UNL     1      -0.298   7.900  21.488  0.00  0.00    +0.000 OA
ENDBRANCH  12  13
ENDBRANCH  10  12
ENDBRANCH   3  10
BRANCH   1  18
ATOM     18  C   UNL     1       5.011   3.783  17.065  0.00  0.00    +0.000 C 
BRANCH  18  25
ATOM     19  C   UNL     1       5.884   3.832  13.863  0.00  0.00    +0.000 C 
ATOM     20  C   UNL     1       6.396   4.658  14.978  0.00  0.00    +0.000 A 
ATOM     21  N   UNL     1       7.373   5.540  14.725  0.00  0.00    +0.000 NA
ATOM     22  O   UNL     1       7.727   6.052  15.946  0.00  0.00    +0.000 OA
ATOM     23  C   UNL     1       6.971   5.493  16.929  0.00  0.00    +0.000 A 
ATOM     24  C   UNL     1       7.382   5.895  18.285  0.00  0.00    +0.000 C 
ATOM     25  C   UNL     1       6.038   4.634  16.359  0.00  0.00    +0.000 A 
ENDBRANCH  18  25
ENDBRANCH   1  18
TORSDOF 5
ENDMDL
MODEL 7
REMARK VINA RESULT:      -7.1      1.354      2.270
REMARK  Name = 
REMARK  8 active torsions:
REMARK  status: ('A' for Active; 'I' for Inactive)
REMARK    1  A    between atoms: C_1  and  C_2
REMARK    2  A    between atoms: C_5  and  C_6
REMARK    3  A    between atoms: C_7  and  C_8
REMARK    4  A    between atoms: C_8  and  N_9
REMARK    5  A    between atoms: C_11  and  N_12
REMARK    6  A    between atoms: N_12  and  C_13
REMARK    7  A    between atoms: N_12  and  C_14
REMARK    8  A    between atoms: C_14  and  C_15
REMARK                            x       y       z     vdW  Elec       q    Type
REMARK                         _______ _______ _______ _____ _____    ______ ____
ROOT
ATOM      1  N   UNL     1       3.967   4.339  17.439  0.00  0.00    +0.000 NA
ATOM      2  C   UNL     1       3.693   5.688  18.019  0.00  0.00    +0.000 C 
ATOM      3  C   UNL     1       3.143   5.540  19.482  0.00  0.00    +0.000 C 
ATOM      4  C   UNL     1       3.189   4.003  19.686  0.00  0.00    +0.000 C 
ATOM      5  O   UNL     1       2.373   3.367  20.649  0.00  0.00    +0.000 OA
ATOM      6  C   UNL     1       1.039   3.060  20.296  0.00  0.00    +0.000 C 
ATOM      7  C   UNL     1       0.838   2.552  18.877  0.00  0.00    +0.000 C 
ATOM      8  C   UNL     1       1.692   3.246  17.811  0.00  0.00    +0.000 C 
ATOM      9  C   UNL     1       3.146   3.413  18.280  0.00  0.00    +0.000 C 
ENDROOT
BRANCH   3  10
ATOM     10  N   UNL     1       1.984   6.402  19.828  0.00  0.00    +0.000 NA
ATOM     11  C   UNL     1       1.333   6.182  21.114  0.00  0.00    +0.000 C 
BRANCH  10  12
ATOM     12  C   UNL     1       2.231   7.842  19.618  0.00  0.00    +0.000 C 
BRANCH  12  13
ATOM     13  C   UNL     1       1.331   8.718  20.413  0.00  0.00    +0.000 A 
ATOM     14  C   UNL     1       1.287   9.073  21.744  0.00  0.00    +0.000 A 
ATOM     15  C   UNL     1       0.209   9.979  21.876  0.00  0.00    +0.000 A 
ATOM     16  C   UNL     1      -0.339  10.113  20.622  0.00  0.00    +0.000 A 
ATOM     17  O   UNL     1       0.335   9.351  19.726  0.00  0.00    +0.000 OA
ENDBRANCH  12  13
ENDBRANCH  10  12
ENDBRANCH   3  10
BRANCH   1  18
ATOM     18  C   UNL     1       5.412   3.960  17.519  0.00  0.00    +0.000 C 
BRANCH  18  25
ATOM     19  C   UNL     1       7.388   6.475  18.406  0.00  0.00    +0.000 C 
ATOM     20  C   UNL     1       7.209   5.861  17.073  0.00  0.00    +0.000 A 
ATOM     21  N   UNL     1       7.888   6.372  16.036  0.00  0.00    +0.000 NA
ATOM     22  O   UNL     1       7.430   5.699  14.933  0.00  0.00    +0.000 OA
ATOM     23  C   UNL     1       6.488   4.787  15.296  0.00  0.00    +0.000 A 
ATOM     24  C   UNL     1       5.852   4.115  14.149  0.00  0.00    +0.000 C 
ATOM     25  C   UNL     1       6.353   4.790  16.679  0.00  0.00    +0.000 A 
ENDBRANCH  18  25
ENDBRANCH   1  18
TORSDOF 5
ENDMDL
MODEL 8
REMARK VINA RESULT:      -7.0      1.902      6.783
REMARK  Name = 
REMARK  8 active torsions:
REMARK  status: ('A' for Active; 'I' for Inactive)
REMARK    1  A    between atoms: C_1  and  C_2
REMARK    2  A    between atoms: C_5  and  C_6
REMARK    3  A    between atoms: C_7  and  C_8
REMARK    4  A    between atoms: C_8  and  N_9
REMARK    5  A    between atoms: C_11  and  N_12
REMARK    6  A    between atoms: N_12  and  C_13
REMARK    7  A    between atoms: N_12  and  C_14
REMARK    8  A    between atoms: C_14  and  C_15
REMARK                            x       y       z     vdW  Elec       q    Type
REMARK                         _______ _______ _______ _____ _____    ______ ____
ROOT
ATOM      1  N   UNL     1       1.789   6.380  20.748  0.00  0.00    +0.000 NA
ATOM      2  C   UNL     1       2.863   6.530  19.721  0.00  0.00    +0.000 C 
ATOM      3  C   UNL     1       2.766   5.366  18.672  0.00  0.00    +0.000 C 
ATOM      4  C   UNL     1       1.516   4.593  19.167  0.00  0.00    +0.000 C 
ATOM      5  O   UNL     1       1.314   3.234  18.831  0.00  0.00    +0.000 OA
ATOM      6  C   UNL     1       1.963   2.250  19.611  0.00  0.00    +0.000 C 
ATOM      7  C   UNL     1       2.001   2.522  21.107  0.00  0.00    +0.000 C 
ATOM      8  C   UNL     1       2.247   3.984  21.496  0.00  0.00    +0.000 C 
ATOM      9  C   UNL     1       1.394   4.940  20.648  0.00  0.00    +0.000 C 
ENDROOT
BRANCH   3  10
ATOM     10  N   UNL     1       4.053   4.732  18.287  0.00  0.00    +0.000 NA
ATOM     11  C   UNL     1       4.770   3.978  19.308  0.00  0.00    +0.000 C 
BRANCH  10  12
ATOM     12  C   UNL     1       3.983   3.959  17.033  0.00  0.00    +0.000 C 
BRANCH  12  13
ATOM     13  C   UNL     1       5.110   4.238  16.104  0.00  0.00    +0.000 A 
ATOM     14  C   UNL     1       5.191   4.409  14.738  0.00  0.00    +0.000 A 
ATOM     15  C   UNL     1       6.547   4.693  14.456  0.00  0.00    +0.000 A 
ATOM     16  C   UNL     1       7.206   4.671  15.662  0.00  0.00    +0.000 A 
ATOM     17  O   UNL     1       6.342   4.395  16.670  0.00  0.00    +0.000 OA
ENDBRANCH  12  13
ENDBRANCH  10  12
ENDBRANCH   3  10
BRANCH   1  18
ATOM     18  C   UNL     1       0.608   7.256  20.479  0.00  0.00    +0.000 C 
BRANCH  18  25
ATOM     19  C   UNL     1       0.271   9.335  23.044  0.00  0.00    +0.000 C 
ATOM     20  C   UNL     1       0.729   9.625  21.668  0.00  0.00    +0.000 A 
ATOM     21  N   UNL     1       1.030  10.891  21.346  0.00  0.00    +0.000 NA
ATOM     22  O   UNL     1       1.290  10.873  20.000  0.00  0.00    +0.000 OA
ATOM     23  C   UNL     1       1.154   9.611  19.512  0.00  0.00    +0.000 A 
ATOM     24  C   UNL     1       1.288   9.534  18.046  0.00  0.00    +0.000 C 
ATOM     25  C   UNL     1       0.864   8.741  20.556  0.00  0.00    +0.000 A 
ENDBRANCH  18  25
ENDBRANCH   1  18
TORSDOF 5
ENDMDL
MODEL 9
REMARK VINA RESULT:      -6.9      2.159      6.289
REMARK  Name = 
REMARK  8 active torsions:
REMARK  status: ('A' for Active; 'I' for Inactive)
REMARK    1  A    between atoms: C_1  and  C_2
REMARK    2  A    between atoms: C_5  and  C_6
REMARK    3  A    between atoms: C_7  and  C_8
REMARK    4  A    between atoms: C_8  and  N_9
REMARK    5  A    between atoms: C_11  and  N_12
REMARK    6  A    between atoms: N_12  and  C_13
REMARK    7  A    between atoms: N_12  and  C_14
REMARK    8  A    between atoms: C_14  and  C_15
REMARK                            x       y       z     vdW  Elec       q    Type
REMARK                         _______ _______ _______ _____ _____    ______ ____
ROOT
ATOM      1  N   UNL     1       3.917   4.431  17.912  0.00  0.00    +0.000 NA
ATOM      2  C   UNL     1       4.819   5.309  18.717  0.00  0.00    +0.000 C 
ATOM      3  C   UNL     1       5.573   6.310  17.771  0.00  0.00    +0.000 C 
ATOM      4  C   UNL     1       4.973   5.955  16.386  0.00  0.00    +0.000 C 
ATOM      5  O   UNL     1       5.665   6.255  15.189  0.00  0.00    +0.000 OA
ATOM      6  C   UNL     1       6.659   5.352  14.748  0.00  0.00    +0.000 C 
ATOM      7  C   UNL     1       6.326   3.878  14.922  0.00  0.00    +0.000 C 
ATOM      8  C   UNL     1       5.602   3.524  16.225  0.00  0.00    +0.000 C 
ATOM      9  C   UNL     1       4.472   4.521  16.525  0.00  0.00    +0.000 C 
ENDROOT
BRANCH   3  10
ATOM     10  N   UNL     1       7.023   6.489  18.043  0.00  0.00    +0.000 NA
ATOM     11  C   UNL     1       7.851   5.292  18.126  0.00  0.00    +0.000 C 
BRANCH  10  12
ATOM     12  C   UNL     1       7.667   7.501  17.185  0.00  0.00    +0.000 C 
BRANCH  12  13
ATOM     13  C   UNL     1       8.211   8.659  17.943  0.00  0.00    +0.000 A 
ATOM     14  C   UNL     1       8.932   8.771  19.112  0.00  0.00    +0.000 A 
ATOM     15  C   UNL     1       9.188  10.150  19.289  0.00  0.00    +0.000 A 
ATOM     16  C   UNL     1       8.602  10.791  18.223  0.00  0.00    +0.000 A 
ATOM     17  O   UNL     1       8.006   9.893  17.399  0.00  0.00    +0.000 OA
ENDBRANCH  12  13
ENDBRANCH  10  12
ENDBRANCH   3  10
BRANCH   1  18
ATOM     18  C   UNL     1       2.496   4.896  17.928  0.00  0.00    +0.000 C 
BRANCH  18  25
ATOM     19  C   UNL     1       2.439   8.214  17.978  0.00  0.00    +0.000 C 
ATOM     20  C   UNL     1       2.093   7.263  19.056  0.00  0.00    +0.000 A 
ATOM     21  N   UNL     1       1.732   7.753  20.251  0.00  0.00    +0.000 NA
ATOM     22  O   UNL     1       1.602   6.661  21.069  0.00  0.00    +0.000 OA
ATOM     23  C   UNL     1       1.874   5.521  20.378  0.00  0.00    +0.000 A 
ATOM     24  C   UNL     1       1.884   4.314  21.223  0.00  0.00    +0.000 C 
ATOM     25  C   UNL     1       2.127   5.837  19.048  0.00  0.00    +0.000 A 
ENDBRANCH  18  25
ENDBRANCH   1  18
TORSDOF 5
ENDMDL
