MODEL 1
REMARK VINA RESULT:      -8.0      0.000      0.000
REMARK  Name = 
REMARK  1 active torsions:
REMARK  status: ('A' for Active; 'I' for Inactive)
REMARK    1  A    between atoms: C_4  and  C_5
REMARK                            x       y       z     vdW  Elec       q    Type
REMARK                         _______ _______ _______ _____ _____    ______ ____
ROOT
ATOM      1  O   UNL     1       3.953   6.982  17.722  0.00  0.00    +0.000 OA
ATOM      2  C   UNL     1       4.213   5.866  17.301  0.00  0.00    +0.000 A 
ATOM      3  C   UNL     1       5.016   5.734  16.066  0.00  0.00    +0.000 A 
ATOM      4  C   UNL     1       5.289   4.516  15.596  0.00  0.00    +0.000 A 
ATOM      5  N   UNL     1       4.845   3.351  16.182  0.00  0.00    +0.000 N 
ATOM      6  C   UNL     1       4.123   3.377  17.390  0.00  0.00    +0.000 A 
ATOM      7  C   UNL     1       3.702   2.192  17.999  0.00  0.00    +0.000 A 
ATOM      8  C   UNL     1       2.960   2.208  19.188  0.00  0.00    +0.000 A 
ATOM      9  C   UNL     1       2.641   3.451  19.749  0.00  0.00    +0.000 A 
ATOM     10  N   UNL     1       1.934   3.754  20.893  0.00  0.00    +0.000 N 
ATOM     11  C   UNL     1       1.862   5.110  21.062  0.00  0.00    +0.000 A 
ATOM     12  C   UNL     1       2.529   5.697  20.014  0.00  0.00    +0.000 A 
ATOM     13  C   UNL     1       3.030   4.662  19.170  0.00  0.00    +0.000 A 
ATOM     14  C   UNL     1       3.774   4.616  17.972  0.00  0.00    +0.000 A 
ATOM     15  H   UNL     1       5.195   2.470  15.826  0.00  0.00    +0.000 HD
ATOM     16  H   UNL     1       1.527   3.070  21.515  0.00  0.00    +0.000 HD
ENDROOT
BRANCH   4  17
ATOM     17  C   UNL     1       6.100   4.408  14.375  0.00  0.00    +0.000 A 
ATOM     18  C   UNL     1       5.723   3.539  13.345  0.00  0.00    +0.000 A 
ATOM     19  C   UNL     1       6.412   3.554  12.131  0.00  0.00    +0.000 A 
ATOM     20  C   UNL     1       7.512   4.395  11.962  0.00  0.00    +0.000 A 
ATOM     21  C   UNL     1       7.935   5.212  13.009  0.00  0.00    +0.000 A 
ATOM     22  C   UNL     1       7.228   5.222  14.212  0.00  0.00    +0.000 A 
ENDBRANCH   4  17
TORSDOF 1
ENDMDL
MODEL 2
REMARK VINA RESULT:      -8.0      1.493      2.417
REMARK  Name = 
REMARK  1 active torsions:
REMARK  status: ('A' for Active; 'I' for Inactive)
REMARK    1  A    between atoms: C_4  and  C_5
REMARK                            x       y       z     vdW  Elec       q    Type
REMARK                         _______ _______ _______ _____ _____    ______ ____
ROOT
ATOM      1  O   UNL     1       4.086   2.601  18.275  0.00  0.00    +0.000 OA
ATOM      2  C   UNL     1       4.297   3.605  17.613  0.00  0.00    +0.000 A 
ATOM      3  C   UNL     1       5.078   3.488  16.362  0.00  0.00    +0.000 A 
ATOM      4  C   UNL     1       5.324   4.585  15.645  0.00  0.00    +0.000 A 
ATOM      5  N   UNL     1       4.911   5.848  16.010  0.00  0.00    +0.000 N 
ATOM      6  C   UNL     1       4.114   6.047  17.153  0.00  0.00    +0.000 A 
ATOM      7  C   UNL     1       3.669   7.325  17.503  0.00  0.00    +0.000 A 
ATOM      8  C   UNL     1       2.899   7.538  18.654  0.00  0.00    +0.000 A 
ATOM      9  C   UNL     1       2.591   6.431  19.455  0.00  0.00    +0.000 A 
ATOM     10  N   UNL     1       1.863   6.355  20.623  0.00  0.00    +0.000 N 
ATOM     11  C   UNL     1       1.815   5.063  21.070  0.00  0.00    +0.000 A 
ATOM     12  C   UNL     1       2.523   4.288  20.183  0.00  0.00    +0.000 A 
ATOM     13  C   UNL     1       3.023   5.137  19.153  0.00  0.00    +0.000 A 
ATOM     14  C   UNL     1       3.801   4.952  17.989  0.00  0.00    +0.000 A 
ATOM     15  H   UNL     1       5.039   6.605  15.351  0.00  0.00    +0.000 HD
ATOM     16  H   UNL     1       1.428   7.144  21.081  0.00  0.00    +0.000 HD
ENDROOT
BRANCH   4  17
ATOM     17  C   UNL     1       6.090   4.444  14.399  0.00  0.00    +0.000 A 
ATOM     18  C   UNL     1       5.659   3.570  13.394  0.00  0.00    +0.000 A 
ATOM     19  C   UNL     1       6.305   3.555  12.157  0.00  0.00    +0.000 A 
ATOM     20  C   UNL     1       7.417   4.371  11.938  0.00  0.00    +0.000 A 
ATOM     21  C   UNL     1       7.892   5.192  12.959  0.00  0.00    +0.000 A 
ATOM     22  C   UNL     1       7.228   5.232  14.185  0.00  0.00    +0.000 A 
ENDBRANCH   4  17
TORSDOF 1
ENDMDL
MODEL 3
REMARK VINA RESULT:      -8.0      3.383      7.746
REMARK  Name = 
REMARK  1 active torsions:
REMARK  status: ('A' for Active; 'I' for Inactive)
REMARK    1  A    between atoms: C_4  and  C_5
REMARK                            x       y       z     vdW  Elec       q    Type
REMARK                         _______ _______ _______ _____ _____    ______ ____
ROOT
ATOM      1  O   UNL     1       3.164   7.773  17.393  0.00  0.00    +0.000 OA
ATOM      2  C   UNL     1       2.672   7.477  18.471  0.00  0.00    +0.000 A 
ATOM      3  C   UNL     1       1.932   8.508  19.230  0.00  0.00    +0.000 A 
ATOM      4  C   UNL     1       1.408   8.191  20.415  0.00  0.00    +0.000 A 
ATOM      5  N   UNL     1       1.532   6.950  21.001  0.00  0.00    +0.000 N 
ATOM      6  C   UNL     1       2.170   5.891  20.327  0.00  0.00    +0.000 A 
ATOM      7  C   UNL     1       2.265   4.625  20.910  0.00  0.00    +0.000 A 
ATOM      8  C   UNL     1       2.922   3.571  20.260  0.00  0.00    +0.000 A 
ATOM      9  C   UNL     1       3.492   3.825  19.006  0.00  0.00    +0.000 A 
ATOM     10  N   UNL     1       4.185   2.985  18.159  0.00  0.00    +0.000 N 
ATOM     11  C   UNL     1       4.563   3.657  17.030  0.00  0.00    +0.000 A 
ATOM     12  C   UNL     1       4.113   4.951  17.142  0.00  0.00    +0.000 A 
ATOM     13  C   UNL     1       3.432   5.076  18.388  0.00  0.00    +0.000 A 
ATOM     14  C   UNL     1       2.767   6.120  19.068  0.00  0.00    +0.000 A 
ATOM     15  H   UNL     1       1.006   6.762  21.844  0.00  0.00    +0.000 HD
ATOM     16  H   UNL     1       4.383   2.013  18.350  0.00  0.00    +0.000 HD
ENDROOT
BRANCH   4  17
ATOM     17  C   UNL     1       0.664   9.227  21.145  0.00  0.00    +0.000 A 
ATOM     18  C   UNL     1       0.221  10.380  20.489  0.00  0.00    +0.000 A 
ATOM     19  C   UNL     1      -0.613  11.284  21.151  0.00  0.00    +0.000 A 
ATOM     20  C   UNL     1      -0.959  11.068  22.485  0.00  0.00    +0.000 A 
ATOM     21  C   UNL     1      -0.463   9.957  23.164  0.00  0.00    +0.000 A 
ATOM     22  C   UNL     1       0.343   9.035  22.495  0.00  0.00    +0.000 A 
ENDBRANCH   4  17
TORSDOF 1
ENDMDL
MODEL 4
REMARK VINA RESULT:      -8.0      3.393      7.743
REMARK  Name = 
REMARK  1 active torsions:
REMARK  status: ('A' for Active; 'I' for Inactive)
REMARK    1  A    between atoms: C_4  and  C_5
REMARK                            x       y       z     vdW  Elec       q    Type
REMARK                         _______ _______ _______ _____ _____    ______ ____
ROOT
ATOM      1  O   UNL     1       3.165   7.846  17.390  0.00  0.00    +0.000 OA
ATOM      2  C   UNL     1       2.666   7.527  18.458  0.00  0.00    +0.000 A 
ATOM      3  C   UNL     1       1.887   8.531  19.214  0.00  0.00    +0.000 A 
ATOM      4  C   UNL     1       1.354   8.190  20.389  0.00  0.00    +0.000 A 
ATOM      5  N   UNL     1       1.503   6.947  20.965  0.00  0.00    +0.000 N 
ATOM      6  C   UNL     1       2.178   5.912  20.291  0.00  0.00    +0.000 A 
ATOM      7  C   UNL     1       2.299   4.644  20.864  0.00  0.00    +0.000 A 
ATOM      8  C   UNL     1       2.993   3.613  20.215  0.00  0.00    +0.000 A 
ATOM      9  C   UNL     1       3.575   3.894  18.972  0.00  0.00    +0.000 A 
ATOM     10  N   UNL     1       4.302   3.081  18.128  0.00  0.00    +0.000 N 
ATOM     11  C   UNL     1       4.679   3.773  17.010  0.00  0.00    +0.000 A 
ATOM     12  C   UNL     1       4.193   5.053  17.128  0.00  0.00    +0.000 A 
ATOM     13  C   UNL     1       3.491   5.149  18.365  0.00  0.00    +0.000 A 
ATOM     14  C   UNL     1       2.788   6.168  19.043  0.00  0.00    +0.000 A 
ATOM     15  H   UNL     1       0.969   6.738  21.799  0.00  0.00    +0.000 HD
ATOM     16  H   UNL     1       4.523   2.113  18.313  0.00  0.00    +0.000 HD
ENDROOT
BRANCH   4  17
ATOM     17  C   UNL     1       0.573   9.199  21.117  0.00  0.00    +0.000 A 
ATOM     18  C   UNL     1       0.031   8.907  22.374  0.00  0.00    +0.000 A 
ATOM     19  C   UNL     1      -0.577   9.916  23.123  0.00  0.00    +0.000 A 
ATOM     20  C   UNL     1      -0.697  11.203  22.597  0.00  0.00    +0.000 A 
ATOM     21  C   UNL     1      -0.222  11.481  21.317  0.00  0.00    +0.000 A 
ATOM     22  C   UNL     1       0.416  10.482  20.580  0.00  0.00    +0.000 A 
ENDBRANCH   4  17
TORSDOF 1
ENDMDL
MODEL 5
REMARK VINA RESULT:      -7.8      1.424      2.574
REMARK  Name = 
REMARK  1 active torsions:
REMARK  status: ('A' for Active; 'I' for Inactive)
REMARK    1  A    between atoms: C_4  and  C_5
REMARK                            x       y       z     vdW  Elec       q    Type
REMARK                         _______ _______ _______ _____ _____    ______ ____
ROOT
ATOM      1  O   UNL     1       4.005   2.255  18.060  0.00  0.00    +0.000 OA
ATOM      2  C   UNL     1       4.217   3.317  17.496  0.00  0.00    +0.000 A 
ATOM      3  C   UNL     1       4.958   3.314  16.216  0.00  0.00    +0.000 A 
ATOM      4  C   UNL     1       5.205   4.475  15.606  0.00  0.00    +0.000 A 
ATOM      5  N   UNL     1       4.830   5.701  16.110  0.00  0.00    +0.000 N 
ATOM      6  C   UNL     1       4.072   5.797  17.293  0.00  0.00    +0.000 A 
ATOM      7  C   UNL     1       3.666   7.040  17.784  0.00  0.00    +0.000 A 
ATOM      8  C   UNL     1       2.934   7.149  18.975  0.00  0.00    +0.000 A 
ATOM      9  C   UNL     1       2.628   5.972  19.669  0.00  0.00    +0.000 A 
ATOM     10  N   UNL     1       1.933   5.790  20.846  0.00  0.00    +0.000 N 
ATOM     11  C   UNL     1       1.872   4.461  21.161  0.00  0.00    +0.000 A 
ATOM     12  C   UNL     1       2.536   3.767  20.178  0.00  0.00    +0.000 A 
ATOM     13  C   UNL     1       3.023   4.708  19.224  0.00  0.00    +0.000 A 
ATOM     14  C   UNL     1       3.761   4.628  18.023  0.00  0.00    +0.000 A 
ATOM     15  H   UNL     1       4.955   6.519  15.527  0.00  0.00    +0.000 HD
ATOM     16  H   UNL     1       1.529   6.536  21.396  0.00  0.00    +0.000 HD
ENDROOT
BRANCH   4  17
ATOM     17  C   UNL     1       5.930   4.447  14.328  0.00  0.00    +0.000 A 
ATOM     18  C   UNL     1       7.095   5.203  14.155  0.00  0.00    +0.000 A 
ATOM     19  C   UNL     1       7.859   5.054  12.996  0.00  0.00    +0.000 A 
ATOM     20  C   UNL     1       7.431   4.194  11.983  0.00  0.00    +0.000 A 
ATOM     21  C   UNL     1       6.236   3.492  12.120  0.00  0.00    +0.000 A 
ATOM     22  C   UNL     1       5.488   3.615  13.292  0.00  0.00    +0.000 A 
ENDBRANCH   4  17
TORSDOF 1
ENDMDL
MODEL 6
REMARK VINA RESULT:      -7.7      0.396      1.151
REMARK  Name = 
REMARK  1 active torsions:
REMARK  status: ('A' for Active; 'I' for Inactive)
REMARK    1  A    between atoms: C_4  and  C_5
REMARK                            x       y       z     vdW  Elec       q    Type
REMARK                         _______ _______ _______ _____ _____    ______ ____
ROOT
ATOM      1  O   UNL     1       3.861   6.679  18.061  0.00  0.00    +0.000 OA
ATOM      2  C   UNL     1       4.146   5.609  17.545  0.00  0.00    +0.000 A 
ATOM      3  C   UNL     1       4.883   5.604  16.264  0.00  0.00    +0.000 A 
ATOM      4  C   UNL     1       5.182   4.437  15.691  0.00  0.00    +0.000 A 
ATOM      5  N   UNL     1       4.822   3.213  16.212  0.00  0.00    +0.000 N 
ATOM      6  C   UNL     1       4.169   3.119  17.455  0.00  0.00    +0.000 A 
ATOM      7  C   UNL     1       3.834   1.875  17.996  0.00  0.00    +0.000 A 
ATOM      8  C   UNL     1       3.160   1.771  19.220  0.00  0.00    +0.000 A 
ATOM      9  C   UNL     1       2.819   2.955  19.887  0.00  0.00    +0.000 A 
ATOM     10  N   UNL     1       2.165   3.141  21.086  0.00  0.00    +0.000 N 
ATOM     11  C   UNL     1       2.044   4.476  21.359  0.00  0.00    +0.000 A 
ATOM     12  C   UNL     1       2.625   5.168  20.323  0.00  0.00    +0.000 A 
ATOM     13  C   UNL     1       3.122   4.221  19.380  0.00  0.00    +0.000 A 
ATOM     14  C   UNL     1       3.799   4.296  18.144  0.00  0.00    +0.000 A 
ATOM     15  H   UNL     1       5.189   2.378  15.774  0.00  0.00    +0.000 HD
ATOM     16  H   UNL     1       1.824   2.396  21.677  0.00  0.00    +0.000 HD
ENDROOT
BRANCH   4  17
ATOM     17  C   UNL     1       5.927   4.455  14.424  0.00  0.00    +0.000 A 
ATOM     18  C   UNL     1       7.084   5.232  14.291  0.00  0.00    +0.000 A 
ATOM     19  C   UNL     1       7.867   5.125  13.140  0.00  0.00    +0.000 A 
ATOM     20  C   UNL     1       7.470   4.286  12.098  0.00  0.00    +0.000 A 
ATOM     21  C   UNL     1       6.283   3.564  12.197  0.00  0.00    +0.000 A 
ATOM     22  C   UNL     1       5.515   3.643  13.360  0.00  0.00    +0.000 A 
ENDBRANCH   4  17
TORSDOF 1
ENDMDL
MODEL 7
REMARK VINA RESULT:      -7.7      3.448      7.216
REMARK  Name = 
REMARK  1 active torsions:
REMARK  status: ('A' for Active; 'I' for Inactive)
REMARK    1  A    between atoms: C_4  and  C_5
REMARK                            x       y       z     vdW  Elec       q    Type
REMARK                         _______ _______ _______ _____ _____    ______ ____
ROOT
ATOM      1  O   UNL     1       3.559   6.279  17.486  0.00  0.00    +0.000 OA
ATOM      2  C   UNL     1       2.889   6.231  18.506  0.00  0.00    +0.000 A 
ATOM      3  C   UNL     1       2.379   7.490  19.090  0.00  0.00    +0.000 A 
ATOM      4  C   UNL     1       1.660   7.441  20.212  0.00  0.00    +0.000 A 
ATOM      5  N   UNL     1       1.375   6.276  20.890  0.00  0.00    +0.000 N 
ATOM      6  C   UNL     1       1.771   5.025  20.378  0.00  0.00    +0.000 A 
ATOM      7  C   UNL     1       1.452   3.843  21.051  0.00  0.00    +0.000 A 
ATOM      8  C   UNL     1       1.864   2.594  20.565  0.00  0.00    +0.000 A 
ATOM      9  C   UNL     1       2.616   2.564  19.384  0.00  0.00    +0.000 A 
ATOM     10  N   UNL     1       3.143   1.492  18.694  0.00  0.00    +0.000 N 
ATOM     11  C   UNL     1       3.813   1.925  17.583  0.00  0.00    +0.000 A 
ATOM     12  C   UNL     1       3.724   3.296  17.550  0.00  0.00    +0.000 A 
ATOM     13  C   UNL     1       2.969   3.719  18.683  0.00  0.00    +0.000 A 
ATOM     14  C   UNL     1       2.543   4.963  19.197  0.00  0.00    +0.000 A 
ATOM     15  H   UNL     1       0.728   6.318  21.666  0.00  0.00    +0.000 HD
ATOM     16  H   UNL     1       3.046   0.526  18.973  0.00  0.00    +0.000 HD
ENDROOT
BRANCH   4  17
ATOM     17  C   UNL     1       1.151   8.703  20.768  0.00  0.00    +0.000 A 
ATOM     18  C   UNL     1       0.930   9.807  19.937  0.00  0.00    +0.000 A 
ATOM     19  C   UNL     1       0.305  10.949  20.444  0.00  0.00    +0.000 A 
ATOM     20  C   UNL     1      -0.048  11.012  21.792  0.00  0.00    +0.000 A 
ATOM     21  C   UNL     1       0.234   9.942  22.639  0.00  0.00    +0.000 A 
ATOM     22  C   UNL     1       0.828   8.788  22.128  0.00  0.00    +0.000 A 
ENDBRANCH   4  17
TORSDOF 1
ENDMDL
MODEL 8
REMARK VINA RESULT:      -7.6      4.260      7.016
REMARK  Name = 
REMARK  1 active torsions:
REMARK  status: ('A' for Active; 'I' for Inactive)
REMARK    1  A    between atoms: C_4  and  C_5
REMARK                            x       y       z     vdW  Elec       q    Type
REMARK                         _______ _______ _______ _____ _____    ______ ____
ROOT
ATOM      1  O   UNL     1       1.899   9.364  17.452  0.00  0.00    +0.000 OA
ATOM      2  C   UNL     1       1.842   8.756  18.510  0.00  0.00    +0.000 A 
ATOM      3  C   UNL     1       2.466   7.419  18.604  0.00  0.00    +0.000 A 
ATOM      4  C   UNL     1       2.391   6.746  19.753  0.00  0.00    +0.000 A 
ATOM      5  N   UNL     1       1.738   7.214  20.873  0.00  0.00    +0.000 N 
ATOM      6  C   UNL     1       1.165   8.499  20.894  0.00  0.00    +0.000 A 
ATOM      7  C   UNL     1       0.531   8.982  22.042  0.00  0.00    +0.000 A 
ATOM      8  C   UNL     1      -0.067  10.249  22.065  0.00  0.00    +0.000 A 
ATOM      9  C   UNL     1      -0.021  11.020  20.896  0.00  0.00    +0.000 A 
ATOM     10  N   UNL     1      -0.521  12.280  20.644  0.00  0.00    +0.000 N 
ATOM     11  C   UNL     1      -0.248  12.650  19.356  0.00  0.00    +0.000 A 
ATOM     12  C   UNL     1       0.437  11.617  18.761  0.00  0.00    +0.000 A 
ATOM     13  C   UNL     1       0.589  10.575  19.722  0.00  0.00    +0.000 A 
ATOM     14  C   UNL     1       1.181   9.293  19.726  0.00  0.00    +0.000 A 
ATOM     15  H   UNL     1       1.830   6.691  21.735  0.00  0.00    +0.000 HD
ATOM     16  H   UNL     1      -1.018  12.847  21.317  0.00  0.00    +0.000 HD
ENDROOT
BRANCH   4  17
ATOM     17  C   UNL     1       3.031   5.425  19.829  0.00  0.00    +0.000 A 
ATOM     18  C   UNL     1       2.414   4.375  20.519  0.00  0.00    +0.000 A 
ATOM     19  C   UNL     1       2.952   3.088  20.457  0.00  0.00    +0.000 A 
ATOM     20  C   UNL     1       4.135   2.858  19.754  0.00  0.00    +0.000 A 
ATOM     21  C   UNL     1       4.791   3.914  19.124  0.00  0.00    +0.000 A 
ATOM     22  C   UNL     1       4.237   5.194  19.157  0.00  0.00    +0.000 A 
ENDBRANCH   4  17
TORSDOF 1
ENDMDL
MODEL 9
REMARK VINA RESULT:      -7.6      4.320      6.995
REMARK  Name = 
REMARK  1 active torsions:
REMARK  status: ('A' for Active; 'I' for Inactive)
REMARK    1  A    between atoms: C_4  and  C_5
REMARK                            x       y       z     vdW  Elec       q    Type
REMARK                         _______ _______ _______ _____ _____    ______ ____
ROOT
ATOM      1  O   UNL     1       2.136   9.087  17.428  0.00  0.00    +0.000 OA
ATOM      2  C   UNL     1       2.015   8.487  18.484  0.00  0.00    +0.000 A 
ATOM      3  C   UNL     1       2.516   7.099  18.583  0.00  0.00    +0.000 A 
ATOM      4  C   UNL     1       2.370   6.436  19.732  0.00  0.00    +0.000 A 
ATOM      5  N   UNL     1       1.751   6.961  20.846  0.00  0.00    +0.000 N 
ATOM      6  C   UNL     1       1.295   8.292  20.862  0.00  0.00    +0.000 A 
ATOM      7  C   UNL     1       0.697   8.831  22.004  0.00  0.00    +0.000 A 
ATOM      8  C   UNL     1       0.214  10.147  22.023  0.00  0.00    +0.000 A 
ATOM      9  C   UNL     1       0.340  10.910  20.854  0.00  0.00    +0.000 A 
ATOM     10  N   UNL     1      -0.042  12.210  20.598  0.00  0.00    +0.000 N 
ATOM     11  C   UNL     1       0.275  12.553  19.313  0.00  0.00    +0.000 A 
ATOM     12  C   UNL     1       0.870  11.463  18.724  0.00  0.00    +0.000 A 
ATOM     13  C   UNL     1       0.919  10.411  19.685  0.00  0.00    +0.000 A 
ATOM     14  C   UNL     1       1.394   9.082  19.695  0.00  0.00    +0.000 A 
ATOM     15  H   UNL     1       1.787   6.433  21.708  0.00  0.00    +0.000 HD
ATOM     16  H   UNL     1      -0.493  12.818  21.267  0.00  0.00    +0.000 HD
ENDROOT
BRANCH   4  17
ATOM     17  C   UNL     1       2.887   5.064  19.813  0.00  0.00    +0.000 A 
ATOM     18  C   UNL     1       4.007   4.681  19.065  0.00  0.00    +0.000 A 
ATOM     19  C   UNL     1       4.582   3.424  19.263  0.00  0.00    +0.000 A 
ATOM     20  C   UNL     1       4.008   2.526  20.164  0.00  0.00    +0.000 A 
ATOM     21  C   UNL     1       2.852   2.877  20.860  0.00  0.00    +0.000 A 
ATOM     22  C   UNL     1       2.295   4.145  20.688  0.00  0.00    +0.000 A 
ENDBRANCH   4  17
TORSDOF 1
ENDMDL
