MODEL 1
REMARK VINA RESULT:      -8.0      0.000      0.000
REMARK  Name = 
REMARK  8 active torsions:
REMARK  status: ('A' for Active; 'I' for Inactive)
REMARK    1  A    between atoms: C_1  and  C_2
REMARK    2  A    between atoms: C_2  and  O_3
REMARK    3  A    between atoms: O_3  and  C_4
REMARK    4  A    between atoms: C_8  and  C_9
REMARK    5  A    between atoms: C_13  and  N_14
REMARK    6  A    between atoms: N_14  and  C_15
REMARK    7  A    between atoms: C_20  and  C_21
REMARK    8  A    between atoms: C_21  and  O_23
REMARK                            x       y       z     vdW  Elec       q    Type
REMARK                         _______ _______ _______ _____ _____    ______ ____
ROOT
ATOM      1  C   UNL     1       1.227   9.358  18.971  0.00  0.00    +0.000 A 
ATOM      2  C   UNL     1       1.127   8.665  20.192  0.00  0.00    +0.000 A 
ATOM      3  C   UNL     1       1.815   7.466  20.401  0.00  0.00    +0.000 A 
ATOM      4  F   UNL     1       1.676   6.839  21.579  0.00  0.00    +0.000 F 
ATOM      5  C   UNL     1       2.632   6.903  19.420  0.00  0.00    +0.000 A 
ATOM      6  C   UNL     1       2.788   7.636  18.237  0.00  0.00    +0.000 A 
ATOM      7  F   UNL     1       3.661   7.247  17.295  0.00  0.00    +0.000 F 
ATOM      8  C   UNL     1       2.078   8.812  17.999  0.00  0.00    +0.000 A 
ENDROOT
BRANCH   1  13
ATOM      9  C   UNL     1      -1.579  11.720  17.963  0.00  0.00    +0.000 A 
ATOM     10  C   UNL     1      -0.963  12.960  18.121  0.00  0.00    +0.000 A 
ATOM     11  C   UNL     1       0.351  13.040  18.574  0.00  0.00    +0.000 A 
ATOM     12  C   UNL     1       1.057  11.871  18.870  0.00  0.00    +0.000 A 
ATOM     13  C   UNL     1       0.472  10.602  18.708  0.00  0.00    +0.000 A 
ATOM     14  C   UNL     1      -0.859  10.556  18.251  0.00  0.00    +0.000 A 
BRANCH   9  15
ATOM     15  O   UNL     1      -2.869  11.764  17.509  0.00  0.00    +0.000 OA
BRANCH  15  17
ATOM     16  C   UNL     1      -3.116  10.825  15.324  0.00  0.00    +0.000 C 
ATOM     17  C   UNL     1      -3.340  10.612  16.809  0.00  0.00    +0.000 C 
ENDBRANCH  15  17
ENDBRANCH   9  15
ENDBRANCH   1  13
BRANCH   5  18
ATOM     18  N   UNL     1       3.364   5.715  19.696  0.00  0.00    +0.000 N 
ATOM     19  H   UNL     1       3.466   5.576  20.704  0.00  0.00    +0.000 HD
BRANCH  18  20
ATOM     20  C   UNL     1       3.071   4.468  19.086  0.00  0.00    +0.000 A 
ATOM     21  N   UNL     1       1.793   4.021  19.153  0.00  0.00    +0.000 NA
ATOM     22  C   UNL     1       1.467   2.889  18.496  0.00  0.00    +0.000 A 
ATOM     23  C   UNL     1       2.378   2.139  17.781  0.00  0.00    +0.000 A 
ATOM     24  C   UNL     1       3.703   2.561  17.771  0.00  0.00    +0.000 A 
ATOM     25  C   UNL     1       4.070   3.737  18.440  0.00  0.00    +0.000 A 
BRANCH  25  26
ATOM     26  C   UNL     1       5.495   4.143  18.379  0.00  0.00    +0.000 C 
ATOM     27  O   UNL     1       6.090   4.560  19.361  0.00  0.00    +0.000 OA
BRANCH  26  28
ATOM     28  O   UNL     1       6.097   3.993  17.181  0.00  0.00    +0.000 OA
ATOM     29  H   UNL     1       7.077   4.036  17.218  0.00  0.00    +0.000 HD
ENDBRANCH  26  28
ENDBRANCH  25  26
ENDBRANCH  18  20
ENDBRANCH   5  18
TORSDOF 7
ENDMDL
MODEL 2
REMARK VINA RESULT:      -8.0      0.517      1.763
REMARK  Name = 
REMARK  8 active torsions:
REMARK  status: ('A' for Active; 'I' for Inactive)
REMARK    1  A    between atoms: C_1  and  C_2
REMARK    2  A    between atoms: C_2  and  O_3
REMARK    3  A    between atoms: O_3  and  C_4
REMARK    4  A    between atoms: C_8  and  C_9
REMARK    5  A    between atoms: C_13  and  N_14
REMARK    6  A    between atoms: N_14  and  C_15
REMARK    7  A    between atoms: C_20  and  C_21
REMARK    8  A    between atoms: C_21  and  O_23
REMARK                            x       y       z     vdW  Elec       q    Type
REMARK                         _______ _______ _______ _____ _____    ______ ____
ROOT
ATOM      1  C   UNL     1       1.232   9.236  18.946  0.00  0.00    +0.000 A 
ATOM      2  C   UNL     1       2.041   8.634  17.963  0.00  0.00    +0.000 A 
ATOM      3  C   UNL     1       2.755   7.463  18.235  0.00  0.00    +0.000 A 
ATOM      4  F   UNL     1       3.520   6.935  17.267  0.00  0.00    +0.000 F 
ATOM      5  C   UNL     1       2.700   6.836  19.479  0.00  0.00    +0.000 A 
ATOM      6  C   UNL     1       1.834   7.397  20.426  0.00  0.00    +0.000 A 
ATOM      7  F   UNL     1       1.606   6.786  21.600  0.00  0.00    +0.000 F 
ATOM      8  C   UNL     1       1.146   8.585  20.184  0.00  0.00    +0.000 A 
ENDROOT
BRANCH   1  13
ATOM      9  C   UNL     1      -1.499  11.677  17.919  0.00  0.00    +0.000 A 
ATOM     10  C   UNL     1      -0.872  12.900  18.142  0.00  0.00    +0.000 A 
ATOM     11  C   UNL     1       0.427  12.943  18.645  0.00  0.00    +0.000 A 
ATOM     12  C   UNL     1       1.103  11.754  18.925  0.00  0.00    +0.000 A 
ATOM     13  C   UNL     1       0.505  10.501  18.699  0.00  0.00    +0.000 A 
ATOM     14  C   UNL     1      -0.809  10.491  18.193  0.00  0.00    +0.000 A 
BRANCH   9  15
ATOM     15  O   UNL     1      -2.771  11.757  17.420  0.00  0.00    +0.000 OA
BRANCH  15  17
ATOM     16  C   UNL     1      -3.063  10.692  15.300  0.00  0.00    +0.000 C 
ATOM     17  C   UNL     1      -3.288  10.582  16.796  0.00  0.00    +0.000 C 
ENDBRANCH  15  17
ENDBRANCH   9  15
ENDBRANCH   1  13
BRANCH   5  18
ATOM     18  N   UNL     1       3.391   5.611  19.693  0.00  0.00    +0.000 N 
ATOM     19  H   UNL     1       3.738   5.552  20.654  0.00  0.00    +0.000 HD
BRANCH  18  20
ATOM     20  C   UNL     1       2.861   4.350  19.316  0.00  0.00    +0.000 A 
ATOM     21  N   UNL     1       1.691   3.966  19.882  0.00  0.00    +0.000 NA
ATOM     22  C   UNL     1       1.116   2.819  19.466  0.00  0.00    +0.000 A 
ATOM     23  C   UNL     1       1.675   1.993  18.512  0.00  0.00    +0.000 A 
ATOM     24  C   UNL     1       2.909   2.354  17.982  0.00  0.00    +0.000 A 
ATOM     25  C   UNL     1       3.528   3.544  18.391  0.00  0.00    +0.000 A 
BRANCH  25  26
ATOM     26  C   UNL     1       4.836   3.881  17.778  0.00  0.00    +0.000 C 
ATOM     27  O   UNL     1       4.944   4.137  16.590  0.00  0.00    +0.000 OA
BRANCH  26  28
ATOM     28  O   UNL     1       5.888   3.914  18.622  0.00  0.00    +0.000 OA
ATOM     29  H   UNL     1       6.756   4.015  18.175  0.00  0.00    +0.000 HD
ENDBRANCH  26  28
ENDBRANCH  25  26
ENDBRANCH  18  20
ENDBRANCH   5  18
TORSDOF 7
ENDMDL
MODEL 3
REMARK VINA RESULT:      -8.0      2.436      8.566
REMARK  Name = 
REMARK  8 active torsions:
REMARK  status: ('A' for Active; 'I' for Inactive)
REMARK    1  A    between atoms: C_1  and  C_2
REMARK    2  A    between atoms: C_2  and  O_3
REMARK    3  A    between atoms: O_3  and  C_4
REMARK    4  A    between atoms: C_8  and  C_9
REMARK    5  A    between atoms: C_13  and  N_14
REMARK    6  A    between atoms: N_14  and  C_15
REMARK    7  A    between atoms: C_20  and  C_21
REMARK    8  A    between atoms: C_21  and  O_23
REMARK                            x       y       z     vdW  Elec       q    Type
REMARK                         _______ _______ _______ _____ _____    ______ ____
ROOT
ATOM      1  C   UNL     1       2.308   7.061  19.103  0.00  0.00    +0.000 A 
ATOM      2  C   UNL     1       1.893   7.226  20.438  0.00  0.00    +0.000 A 
ATOM      3  C   UNL     1       1.247   8.394  20.853  0.00  0.00    +0.000 A 
ATOM      4  F   UNL     1       0.881   8.506  22.140  0.00  0.00    +0.000 F 
ATOM      5  C   UNL     1       0.980   9.444  19.974  0.00  0.00    +0.000 A 
ATOM      6  C   UNL     1       1.326   9.241  18.633  0.00  0.00    +0.000 A 
ATOM      7  F   UNL     1       0.982  10.132  17.689  0.00  0.00    +0.000 F 
ATOM      8  C   UNL     1       2.006   8.099  18.211  0.00  0.00    +0.000 A 
ENDROOT
BRANCH   1  13
ATOM      9  C   UNL     1       5.099   4.535  18.554  0.00  0.00    +0.000 A 
ATOM     10  C   UNL     1       4.470   3.606  17.728  0.00  0.00    +0.000 A 
ATOM     11  C   UNL     1       3.137   3.779  17.364  0.00  0.00    +0.000 A 
ATOM     12  C   UNL     1       2.428   4.890  17.826  0.00  0.00    +0.000 A 
ATOM     13  C   UNL     1       3.036   5.855  18.649  0.00  0.00    +0.000 A 
ATOM     14  C   UNL     1       4.383   5.650  19.002  0.00  0.00    +0.000 A 
BRANCH   9  15
ATOM     15  O   UNL     1       6.409   4.264  18.842  0.00  0.00    +0.000 OA
BRANCH  15  17
ATOM     16  C   UNL     1       7.929   6.109  18.895  0.00  0.00    +0.000 C 
ATOM     17  C   UNL     1       7.390   4.957  18.070  0.00  0.00    +0.000 C 
ENDBRANCH  15  17
ENDBRANCH   9  15
ENDBRANCH   1  13
BRANCH   5  18
ATOM     18  N   UNL     1       0.264  10.587  20.423  0.00  0.00    +0.000 N 
ATOM     19  H   UNL     1      -0.009  10.484  21.404  0.00  0.00    +0.000 HD
BRANCH  18  20
ATOM     20  C   UNL     1       0.716  11.915  20.208  0.00  0.00    +0.000 A 
ATOM     21  N   UNL     1       1.806  12.327  20.901  0.00  0.00    +0.000 NA
ATOM     22  C   UNL     1       2.315  13.549  20.640  0.00  0.00    +0.000 A 
ATOM     23  C   UNL     1       1.764  14.420  19.723  0.00  0.00    +0.000 A 
ATOM     24  C   UNL     1       0.607  14.023  19.063  0.00  0.00    +0.000 A 
ATOM     25  C   UNL     1       0.057  12.757  19.309  0.00  0.00    +0.000 A 
BRANCH  25  26
ATOM     26  C   UNL     1      -1.169  12.386  18.563  0.00  0.00    +0.000 C 
ATOM     27  O   UNL     1      -2.102  11.809  19.100  0.00  0.00    +0.000 OA
BRANCH  26  28
ATOM     28  O   UNL     1      -1.199  12.752  17.265  0.00  0.00    +0.000 OA
ATOM     29  H   UNL     1      -0.394  12.504  16.761  0.00  0.00    +0.000 HD
ENDBRANCH  26  28
ENDBRANCH  25  26
ENDBRANCH  18  20
ENDBRANCH   5  18
TORSDOF 7
ENDMDL
MODEL 4
REMARK VINA RESULT:      -8.0      5.578      8.226
REMARK  Name = 
REMARK  8 active torsions:
REMARK  status: ('A' for Active; 'I' for Inactive)
REMARK    1  A    between atoms: C_1  and  C_2
REMARK    2  A    between atoms: C_2  and  O_3
REMARK    3  A    between atoms: O_3  and  C_4
REMARK    4  A    between atoms: C_8  and  C_9
REMARK    5  A    between atoms: C_13  and  N_14
REMARK    6  A    between atoms: N_14  and  C_15
REMARK    7  A    between atoms: C_20  and  C_21
REMARK    8  A    between atoms: C_21  and  O_23
REMARK                            x       y       z     vdW  Elec       q    Type
REMARK                         _______ _______ _______ _____ _____    ______ ____
ROOT
ATOM      1  C   UNL     1       5.954   4.577  15.576  0.00  0.00    +0.000 A 
ATOM      2  C   UNL     1       4.594   4.742  15.900  0.00  0.00    +0.000 A 
ATOM      3  C   UNL     1       4.176   4.845  17.230  0.00  0.00    +0.000 A 
ATOM      4  F   UNL     1       2.867   4.990  17.486  0.00  0.00    +0.000 F 
ATOM      5  C   UNL     1       5.077   4.794  18.294  0.00  0.00    +0.000 A 
ATOM      6  C   UNL     1       6.435   4.707  17.961  0.00  0.00    +0.000 A 
ATOM      7  F   UNL     1       7.383   4.795  18.908  0.00  0.00    +0.000 F 
ATOM      8  C   UNL     1       6.864   4.564  16.643  0.00  0.00    +0.000 A 
ENDROOT
BRANCH   1  13
ATOM      9  C   UNL     1       6.364   3.193  12.057  0.00  0.00    +0.000 A 
ATOM     10  C   UNL     1       7.342   4.040  11.541  0.00  0.00    +0.000 A 
ATOM     11  C   UNL     1       7.858   5.074  12.319  0.00  0.00    +0.000 A 
ATOM     12  C   UNL     1       7.393   5.262  13.623  0.00  0.00    +0.000 A 
ATOM     13  C   UNL     1       6.416   4.416  14.180  0.00  0.00    +0.000 A 
ATOM     14  C   UNL     1       5.913   3.383  13.367  0.00  0.00    +0.000 A 
BRANCH   9  15
ATOM     15  O   UNL     1       5.935   2.212  11.205  0.00  0.00    +0.000 OA
BRANCH  15  17
ATOM     16  C   UNL     1       6.090  -0.173  11.287  0.00  0.00    +0.000 C 
ATOM     17  C   UNL     1       6.828   1.118  10.988  0.00  0.00    +0.000 C 
ENDBRANCH  15  17
ENDBRANCH   9  15
ENDBRANCH   1  13
BRANCH   5  18
ATOM     18  N   UNL     1       4.617   4.967  19.629  0.00  0.00    +0.000 N 
ATOM     19  H   UNL     1       4.653   5.953  19.901  0.00  0.00    +0.000 HD
BRANCH  18  20
ATOM     20  C   UNL     1       3.409   4.399  20.108  0.00  0.00    +0.000 A 
ATOM     21  N   UNL     1       2.374   5.240  20.355  0.00  0.00    +0.000 NA
ATOM     22  C   UNL     1       1.185   4.716  20.715  0.00  0.00    +0.000 A 
ATOM     23  C   UNL     1       0.971   3.362  20.879  0.00  0.00    +0.000 A 
ATOM     24  C   UNL     1       2.051   2.506  20.692  0.00  0.00    +0.000 A 
ATOM     25  C   UNL     1       3.298   3.022  20.312  0.00  0.00    +0.000 A 
BRANCH  25  26
ATOM     26  C   UNL     1       4.407   2.057  20.114  0.00  0.00    +0.000 C 
ATOM     27  O   UNL     1       5.257   1.868  20.969  0.00  0.00    +0.000 OA
BRANCH  26  28
ATOM     28  O   UNL     1       4.397   1.384  18.945  0.00  0.00    +0.000 OA
ATOM     29  H   UNL     1       4.745   1.899  18.185  0.00  0.00    +0.000 HD
ENDBRANCH  26  28
ENDBRANCH  25  26
ENDBRANCH  18  20
ENDBRANCH   5  18
TORSDOF 7
ENDMDL
MODEL 5
REMARK VINA RESULT:      -7.9      1.549      3.149
REMARK  Name = 
REMARK  8 active torsions:
REMARK  status: ('A' for Active; 'I' for Inactive)
REMARK    1  A    between atoms: C_1  and  C_2
REMARK    2  A    between atoms: C_2  and  O_3
REMARK    3  A    between atoms: O_3  and  C_4
REMARK    4  A    between atoms: C_8  and  C_9
REMARK    5  A    between atoms: C_13  and  N_14
REMARK    6  A    between atoms: N_14  and  C_15
REMARK    7  A    between atoms: C_20  and  C_21
REMARK    8  A    between atoms: C_21  and  O_23
REMARK                            x       y       z     vdW  Elec       q    Type
REMARK                         _______ _______ _______ _____ _____    ______ ____
ROOT
ATOM      1  C   UNL     1       1.341   9.465  18.958  0.00  0.00    +0.000 A 
ATOM      2  C   UNL     1       2.127   8.800  17.997  0.00  0.00    +0.000 A 
ATOM      3  C   UNL     1       2.742   7.579  18.288  0.00  0.00    +0.000 A 
ATOM      4  F   UNL     1       3.490   6.991  17.341  0.00  0.00    +0.000 F 
ATOM      5  C   UNL     1       2.608   6.961  19.531  0.00  0.00    +0.000 A 
ATOM      6  C   UNL     1       1.763   7.589  20.455  0.00  0.00    +0.000 A 
ATOM      7  F   UNL     1       1.459   7.001  21.622  0.00  0.00    +0.000 F 
ATOM      8  C   UNL     1       1.174   8.826  20.194  0.00  0.00    +0.000 A 
ENDROOT
BRANCH   1  13
ATOM      9  C   UNL     1       0.916  13.215  18.487  0.00  0.00    +0.000 A 
ATOM     10  C   UNL     1      -0.456  13.310  18.267  0.00  0.00    +0.000 A 
ATOM     11  C   UNL     1      -1.246  12.163  18.248  0.00  0.00    +0.000 A 
ATOM     12  C   UNL     1      -0.660  10.912  18.452  0.00  0.00    +0.000 A 
ATOM     13  C   UNL     1       0.720  10.781  18.691  0.00  0.00    +0.000 A 
ATOM     14  C   UNL     1       1.491  11.958  18.701  0.00  0.00    +0.000 A 
BRANCH   9  15
ATOM     15  O   UNL     1       1.589  14.407  18.487  0.00  0.00    +0.000 OA
BRANCH  15  17
ATOM     16  C   UNL     1       3.423  15.577  17.497  0.00  0.00    +0.000 C 
ATOM     17  C   UNL     1       2.999  14.344  18.271  0.00  0.00    +0.000 C 
ENDBRANCH  15  17
ENDBRANCH   9  15
ENDBRANCH   1  13
BRANCH   5  18
ATOM     18  N   UNL     1       3.197   5.688  19.764  0.00  0.00    +0.000 N 
ATOM     19  H   UNL     1       3.548   5.618  20.722  0.00  0.00    +0.000 HD
BRANCH  18  20
ATOM     20  C   UNL     1       2.562   4.468  19.415  0.00  0.00    +0.000 A 
ATOM     21  N   UNL     1       1.360   4.201  19.984  0.00  0.00    +0.000 NA
ATOM     22  C   UNL     1       0.690   3.097  19.594  0.00  0.00    +0.000 A 
ATOM     23  C   UNL     1       1.179   2.202  18.665  0.00  0.00    +0.000 A 
ATOM     24  C   UNL     1       2.442   2.440  18.134  0.00  0.00    +0.000 A 
ATOM     25  C   UNL     1       3.160   3.583  18.516  0.00  0.00    +0.000 A 
BRANCH  25  26
ATOM     26  C   UNL     1       4.495   3.789  17.904  0.00  0.00    +0.000 C 
ATOM     27  O   UNL     1       4.626   4.072  16.723  0.00  0.00    +0.000 OA
BRANCH  26  28
ATOM     28  O   UNL     1       5.548   3.673  18.738  0.00  0.00    +0.000 OA
ATOM     29  H   UNL     1       6.180   2.965  18.489  0.00  0.00    +0.000 HD
ENDBRANCH  26  28
ENDBRANCH  25  26
ENDBRANCH  18  20
ENDBRANCH   5  18
TORSDOF 7
ENDMDL
MODEL 6
REMARK VINA RESULT:      -7.8      2.482      3.898
REMARK  Name = 
REMARK  8 active torsions:
REMARK  status: ('A' for Active; 'I' for Inactive)
REMARK    1  A    between atoms: C_1  and  C_2
REMARK    2  A    between atoms: C_2  and  O_3
REMARK    3  A    between atoms: O_3  and  C_4
REMARK    4  A    between atoms: C_8  and  C_9
REMARK    5  A    between atoms: C_13  and  N_14
REMARK    6  A    between atoms: N_14  and  C_15
REMARK    7  A    between atoms: C_20  and  C_21
REMARK    8  A    between atoms: C_21  and  O_23
REMARK                            x       y       z     vdW  Elec       q    Type
REMARK                         _______ _______ _______ _____ _____    ______ ____
ROOT
ATOM      1  C   UNL     1       1.110   8.707  20.289  0.00  0.00    +0.000 A 
ATOM      2  C   UNL     1       1.450   9.067  18.971  0.00  0.00    +0.000 A 
ATOM      3  C   UNL     1       2.219   8.220  18.167  0.00  0.00    +0.000 A 
ATOM      4  F   UNL     1       2.525   8.615  16.922  0.00  0.00    +0.000 F 
ATOM      5  C   UNL     1       2.679   6.984  18.624  0.00  0.00    +0.000 A 
ATOM      6  C   UNL     1       2.272   6.599  19.907  0.00  0.00    +0.000 A 
ATOM      7  F   UNL     1       2.545   5.372  20.378  0.00  0.00    +0.000 F 
ATOM      8  C   UNL     1       1.540   7.449  20.735  0.00  0.00    +0.000 A 
ENDROOT
BRANCH   1  13
ATOM      9  C   UNL     1      -0.697  11.786  21.601  0.00  0.00    +0.000 A 
ATOM     10  C   UNL     1      -1.056  11.370  22.881  0.00  0.00    +0.000 A 
ATOM     11  C   UNL     1      -0.735  10.086  23.318  0.00  0.00    +0.000 A 
ATOM     12  C   UNL     1      -0.050   9.214  22.469  0.00  0.00    +0.000 A 
ATOM     13  C   UNL     1       0.340   9.607  21.176  0.00  0.00    +0.000 A 
ATOM     14  C   UNL     1      -0.001  10.909  20.764  0.00  0.00    +0.000 A 
BRANCH   9  15
ATOM     15  O   UNL     1      -1.060  13.067  21.283  0.00  0.00    +0.000 OA
BRANCH  15  17
ATOM     16  C   UNL     1      -3.165  12.771  20.190  0.00  0.00    +0.000 C 
ATOM     17  C   UNL     1      -2.450  13.380  21.380  0.00  0.00    +0.000 C 
ENDBRANCH  15  17
ENDBRANCH   9  15
ENDBRANCH   1  13
BRANCH   5  18
ATOM     18  N   UNL     1       3.402   6.125  17.752  0.00  0.00    +0.000 N 
ATOM     19  H   UNL     1       3.095   6.245  16.784  0.00  0.00    +0.000 HD
BRANCH  18  20
ATOM     20  C   UNL     1       4.817   6.014  17.777  0.00  0.00    +0.000 A 
ATOM     21  N   UNL     1       5.537   7.077  17.342  0.00  0.00    +0.000 NA
ATOM     22  C   UNL     1       6.882   7.036  17.449  0.00  0.00    +0.000 A 
ATOM     23  C   UNL     1       7.569   5.949  17.950  0.00  0.00    +0.000 A 
ATOM     24  C   UNL     1       6.833   4.833  18.330  0.00  0.00    +0.000 A 
ATOM     25  C   UNL     1       5.434   4.849  18.236  0.00  0.00    +0.000 A 
BRANCH  25  26
ATOM     26  C   UNL     1       4.705   3.634  18.672  0.00  0.00    +0.000 C 
ATOM     27  O   UNL     1       3.657   3.288  18.149  0.00  0.00    +0.000 OA
BRANCH  26  28
ATOM     28  O   UNL     1       5.287   2.923  19.659  0.00  0.00    +0.000 OA
ATOM     29  H   UNL     1       6.146   3.289  19.963  0.00  0.00    +0.000 HD
ENDBRANCH  26  28
ENDBRANCH  25  26
ENDBRANCH  18  20
ENDBRANCH   5  18
TORSDOF 7
ENDMDL
MODEL 7
REMARK VINA RESULT:      -7.8      4.485      8.394
REMARK  Name = 
REMARK  8 active torsions:
REMARK  status: ('A' for Active; 'I' for Inactive)
REMARK    1  A    between atoms: C_1  and  C_2
REMARK    2  A    between atoms: C_2  and  O_3
REMARK    3  A    between atoms: O_3  and  C_4
REMARK    4  A    between atoms: C_8  and  C_9
REMARK    5  A    between atoms: C_13  and  N_14
REMARK    6  A    between atoms: N_14  and  C_15
REMARK    7  A    between atoms: C_20  and  C_21
REMARK    8  A    between atoms: C_21  and  O_23
REMARK                            x       y       z     vdW  Elec       q    Type
REMARK                         _______ _______ _______ _____ _____    ______ ____
ROOT
ATOM      1  C   UNL     1       5.977   4.561  15.594  0.00  0.00    +0.000 A 
ATOM      2  C   UNL     1       6.867   4.801  16.659  0.00  0.00    +0.000 A 
ATOM      3  C   UNL     1       6.399   4.977  17.964  0.00  0.00    +0.000 A 
ATOM      4  F   UNL     1       7.287   5.214  18.941  0.00  0.00    +0.000 F 
ATOM      5  C   UNL     1       5.040   4.921  18.277  0.00  0.00    +0.000 A 
ATOM      6  C   UNL     1       4.169   4.606  17.227  0.00  0.00    +0.000 A 
ATOM      7  F   UNL     1       2.863   4.391  17.455  0.00  0.00    +0.000 F 
ATOM      8  C   UNL     1       4.615   4.466  15.913  0.00  0.00    +0.000 A 
ENDROOT
BRANCH   1  13
ATOM      9  C   UNL     1       6.388   3.230  12.055  0.00  0.00    +0.000 A 
ATOM     10  C   UNL     1       7.374   4.077  11.556  0.00  0.00    +0.000 A 
ATOM     11  C   UNL     1       7.895   5.095  12.352  0.00  0.00    +0.000 A 
ATOM     12  C   UNL     1       7.427   5.266  13.656  0.00  0.00    +0.000 A 
ATOM     13  C   UNL     1       6.442   4.419  14.197  0.00  0.00    +0.000 A 
ATOM     14  C   UNL     1       5.935   3.402  13.367  0.00  0.00    +0.000 A 
BRANCH   9  15
ATOM     15  O   UNL     1       5.955   2.265  11.186  0.00  0.00    +0.000 OA
BRANCH  15  17
ATOM     16  C   UNL     1       6.118  -0.118  11.281  0.00  0.00    +0.000 C 
ATOM     17  C   UNL     1       6.843   1.172  10.950  0.00  0.00    +0.000 C 
ENDBRANCH  15  17
ENDBRANCH   9  15
ENDBRANCH   1  13
BRANCH   5  18
ATOM     18  N   UNL     1       4.612   5.042  19.627  0.00  0.00    +0.000 N 
ATOM     19  H   UNL     1       4.622   6.020  19.927  0.00  0.00    +0.000 HD
BRANCH  18  20
ATOM     20  C   UNL     1       3.437   4.420  20.122  0.00  0.00    +0.000 A 
ATOM     21  N   UNL     1       3.484   3.086  20.357  0.00  0.00    +0.000 NA
ATOM     22  C   UNL     1       2.413   2.489  20.922  0.00  0.00    +0.000 A 
ATOM     23  C   UNL     1       1.253   3.163  21.245  0.00  0.00    +0.000 A 
ATOM     24  C   UNL     1       1.180   4.517  20.940  0.00  0.00    +0.000 A 
ATOM     25  C   UNL     1       2.280   5.166  20.358  0.00  0.00    +0.000 A 
BRANCH  25  26
ATOM     26  C   UNL     1       2.146   6.614  20.070  0.00  0.00    +0.000 C 
ATOM     27  O   UNL     1       2.322   7.068  18.951  0.00  0.00    +0.000 OA
BRANCH  26  28
ATOM     28  O   UNL     1       1.790   7.390  21.115  0.00  0.00    +0.000 OA
ATOM     29  H   UNL     1       2.044   8.333  21.017  0.00  0.00    +0.000 HD
ENDBRANCH  26  28
ENDBRANCH  25  26
ENDBRANCH  18  20
ENDBRANCH   5  18
TORSDOF 7
ENDMDL
MODEL 8
REMARK VINA RESULT:      -7.8      5.679      7.701
REMARK  Name = 
REMARK  8 active torsions:
REMARK  status: ('A' for Active; 'I' for Inactive)
REMARK    1  A    between atoms: C_1  and  C_2
REMARK    2  A    between atoms: C_2  and  O_3
REMARK    3  A    between atoms: O_3  and  C_4
REMARK    4  A    between atoms: C_8  and  C_9
REMARK    5  A    between atoms: C_13  and  N_14
REMARK    6  A    between atoms: N_14  and  C_15
REMARK    7  A    between atoms: C_20  and  C_21
REMARK    8  A    between atoms: C_21  and  O_23
REMARK                            x       y       z     vdW  Elec       q    Type
REMARK                         _______ _______ _______ _____ _____    ______ ____
ROOT
ATOM      1  C   UNL     1       5.837   4.543  15.608  0.00  0.00    +0.000 A 
ATOM      2  C   UNL     1       4.482   4.562  15.989  0.00  0.00    +0.000 A 
ATOM      3  C   UNL     1       4.113   4.641  17.336  0.00  0.00    +0.000 A 
ATOM      4  F   UNL     1       2.808   4.645  17.647  0.00  0.00    +0.000 F 
ATOM      5  C   UNL     1       5.058   4.709  18.359  0.00  0.00    +0.000 A 
ATOM      6  C   UNL     1       6.402   4.768  17.968  0.00  0.00    +0.000 A 
ATOM      7  F   UNL     1       7.374   4.976  18.870  0.00  0.00    +0.000 F 
ATOM      8  C   UNL     1       6.787   4.650  16.633  0.00  0.00    +0.000 A 
ENDROOT
BRANCH   1  13
ATOM      9  C   UNL     1       5.882   3.496  11.951  0.00  0.00    +0.000 A 
ATOM     10  C   UNL     1       7.072   4.074  11.515  0.00  0.00    +0.000 A 
ATOM     11  C   UNL     1       7.853   4.822  12.393  0.00  0.00    +0.000 A 
ATOM     12  C   UNL     1       7.442   4.992  13.717  0.00  0.00    +0.000 A 
ATOM     13  C   UNL     1       6.255   4.410  14.195  0.00  0.00    +0.000 A 
ATOM     14  C   UNL     1       5.486   3.662  13.283  0.00  0.00    +0.000 A 
BRANCH   9  15
ATOM     15  O   UNL     1       5.201   2.780  11.004  0.00  0.00    +0.000 OA
BRANCH  15  17
ATOM     16  C   UNL     1       3.308   3.842  10.002  0.00  0.00    +0.000 C 
ATOM     17  C   UNL     1       3.775   2.853  11.052  0.00  0.00    +0.000 C 
ENDBRANCH  15  17
ENDBRANCH   9  15
ENDBRANCH   1  13
BRANCH   5  18
ATOM     18  N   UNL     1       4.640   4.854  19.710  0.00  0.00    +0.000 N 
ATOM     19  H   UNL     1       4.699   5.831  20.007  0.00  0.00    +0.000 HD
BRANCH  18  20
ATOM     20  C   UNL     1       3.436   4.292  20.209  0.00  0.00    +0.000 A 
ATOM     21  N   UNL     1       2.404   5.137  20.458  0.00  0.00    +0.000 NA
ATOM     22  C   UNL     1       1.219   4.617  20.836  0.00  0.00    +0.000 A 
ATOM     23  C   UNL     1       1.007   3.265  21.018  0.00  0.00    +0.000 A 
ATOM     24  C   UNL     1       2.084   2.407  20.831  0.00  0.00    +0.000 A 
ATOM     25  C   UNL     1       3.327   2.918  20.431  0.00  0.00    +0.000 A 
BRANCH  25  26
ATOM     26  C   UNL     1       4.433   1.950  20.232  0.00  0.00    +0.000 C 
ATOM     27  O   UNL     1       5.291   1.768  21.082  0.00  0.00    +0.000 OA
BRANCH  26  28
ATOM     28  O   UNL     1       4.413   1.266  19.070  0.00  0.00    +0.000 OA
ATOM     29  H   UNL     1       4.333   0.294  19.179  0.00  0.00    +0.000 HD
ENDBRANCH  26  28
ENDBRANCH  25  26
ENDBRANCH  18  20
ENDBRANCH   5  18
TORSDOF 7
ENDMDL
MODEL 9
REMARK VINA RESULT:      -7.8      2.498      8.698
REMARK  Name = 
REMARK  8 active torsions:
REMARK  status: ('A' for Active; 'I' for Inactive)
REMARK    1  A    between atoms: C_1  and  C_2
REMARK    2  A    between atoms: C_2  and  O_3
REMARK    3  A    between atoms: O_3  and  C_4
REMARK    4  A    between atoms: C_8  and  C_9
REMARK    5  A    between atoms: C_13  and  N_14
REMARK    6  A    between atoms: N_14  and  C_15
REMARK    7  A    between atoms: C_20  and  C_21
REMARK    8  A    between atoms: C_21  and  O_23
REMARK                            x       y       z     vdW  Elec       q    Type
REMARK                         _______ _______ _______ _____ _____    ______ ____
ROOT
ATOM      1  C   UNL     1       2.316   7.182  19.156  0.00  0.00    +0.000 A 
ATOM      2  C   UNL     1       2.003   8.230  18.269  0.00  0.00    +0.000 A 
ATOM      3  C   UNL     1       1.282   9.348  18.699  0.00  0.00    +0.000 A 
ATOM      4  F   UNL     1       1.000  10.315  17.812  0.00  0.00    +0.000 F 
ATOM      5  C   UNL     1       0.843   9.483  20.017  0.00  0.00    +0.000 A 
ATOM      6  C   UNL     1       1.224   8.474  20.910  0.00  0.00    +0.000 A 
ATOM      7  F   UNL     1       0.972   8.584  22.224  0.00  0.00    +0.000 F 
ATOM      8  C   UNL     1       1.909   7.335  20.488  0.00  0.00    +0.000 A 
ENDROOT
BRANCH   1  13
ATOM      9  C   UNL     1       5.086   4.627  18.638  0.00  0.00    +0.000 A 
ATOM     10  C   UNL     1       4.452   3.698  17.816  0.00  0.00    +0.000 A 
ATOM     11  C   UNL     1       3.122   3.881  17.443  0.00  0.00    +0.000 A 
ATOM     12  C   UNL     1       2.422   5.001  17.895  0.00  0.00    +0.000 A 
ATOM     13  C   UNL     1       3.035   5.967  18.714  0.00  0.00    +0.000 A 
ATOM     14  C   UNL     1       4.378   5.752  19.075  0.00  0.00    +0.000 A 
BRANCH   9  15
ATOM     15  O   UNL     1       6.392   4.347  18.934  0.00  0.00    +0.000 OA
BRANCH  15  17
ATOM     16  C   UNL     1       7.849   6.226  18.685  0.00  0.00    +0.000 C 
ATOM     17  C   UNL     1       7.380   4.919  18.076  0.00  0.00    +0.000 C 
ENDBRANCH  15  17
ENDBRANCH   9  15
ENDBRANCH   1  13
BRANCH   5  18
ATOM     18  N   UNL     1       0.169  10.665  20.428  0.00  0.00    +0.000 N 
ATOM     19  H   UNL     1      -0.160  10.580  21.392  0.00  0.00    +0.000 HD
BRANCH  18  20
ATOM     20  C   UNL     1       0.705  11.965  20.237  0.00  0.00    +0.000 A 
ATOM     21  N   UNL     1       1.829  12.288  20.922  0.00  0.00    +0.000 NA
ATOM     22  C   UNL     1       2.415  13.479  20.682  0.00  0.00    +0.000 A 
ATOM     23  C   UNL     1       1.909  14.408  19.795  0.00  0.00    +0.000 A 
ATOM     24  C   UNL     1       0.718  14.104  19.145  0.00  0.00    +0.000 A 
ATOM     25  C   UNL     1       0.090  12.870  19.369  0.00  0.00    +0.000 A 
BRANCH  25  26
ATOM     26  C   UNL     1      -1.169  12.600  18.634  0.00  0.00    +0.000 C 
ATOM     27  O   UNL     1      -2.195  12.273  19.211  0.00  0.00    +0.000 OA
BRANCH  26  28
ATOM     28  O   UNL     1      -1.116  12.767  17.297  0.00  0.00    +0.000 OA
ATOM     29  H   UNL     1      -0.362  13.317  16.993  0.00  0.00    +0.000 HD
ENDBRANCH  26  28
ENDBRANCH  25  26
ENDBRANCH  18  20
ENDBRANCH   5  18
TORSDOF 7
ENDMDL
