MODEL 1
REMARK VINA RESULT:      -6.4      0.000      0.000
REMARK  Name = 
REMARK  8 active torsions:
REMARK  status: ('A' for Active; 'I' for Inactive)
REMARK    1  A    between atoms: C_1  and  C_2
REMARK    2  A    between atoms: C_2  and  C_3
REMARK    3  A    between atoms: C_2  and  C_4
REMARK    4  A    between atoms: C_4  and  N_5
REMARK    5  A    between atoms: C_14  and  C_15
REMARK    6  A    between atoms: N_17  and  C_18
REMARK    7  A    between atoms: C_23  and  C_24
REMARK    8  A    between atoms: C_27  and  C_28
REMARK                            x       y       z     vdW  Elec       q    Type
REMARK                         _______ _______ _______ _____ _____    ______ ____
ROOT
ATOM      1  N   UNL     1       4.702   3.867  17.162  0.00  0.00    +0.000 N 
ATOM      2  C   UNL     1       3.904   2.752  17.435  0.00  0.00    +0.000 C 
ATOM      3  O   UNL     1       4.208   1.602  17.133  0.00  0.00    +0.000 OA
ATOM      4  C   UNL     1       2.630   2.974  18.169  0.00  0.00    +0.000 A 
ATOM      5  C   UNL     1       1.616   2.013  18.074  0.00  0.00    +0.000 A 
ATOM      6  C   UNL     1       0.483   2.111  18.880  0.00  0.00    +0.000 A 
ATOM      7  C   UNL     1       0.389   3.139  19.814  0.00  0.00    +0.000 A 
ATOM      8  C   UNL     1       1.388   4.113  19.892  0.00  0.00    +0.000 A 
ATOM      9  C   UNL     1       2.485   4.080  19.016  0.00  0.00    +0.000 A 
ATOM     10  C   UNL     1       3.565   5.143  19.000  0.00  0.00    +0.000 C 
ATOM     11  C   UNL     1       4.244   5.214  17.597  0.00  0.00    +0.000 C 
ENDROOT
BRANCH  11  12
ATOM     12  C   UNL     1       5.333   6.244  17.601  0.00  0.00    +0.000 A 
ATOM     13  C   UNL     1       5.584   7.407  16.906  0.00  0.00    +0.000 A 
ATOM     14  C   UNL     1       6.912   7.725  17.242  0.00  0.00    +0.000 A 
ATOM     15  N   UNL     1       7.412   6.885  18.150  0.00  0.00    +0.000 NA
ATOM     16  O   UNL     1       6.415   5.954  18.378  0.00  0.00    +0.000 OA
ENDBRANCH  11  12
BRANCH  10  17
ATOM     17  C   UNL     1       3.084   6.531  19.440  0.00  0.00    +0.000 C 
ATOM     18  O   UNL     1       3.372   6.951  20.562  0.00  0.00    +0.000 OA
ATOM     19  N   UNL     1       2.309   7.243  18.531  0.00  0.00    +0.000 N 
ATOM     20  H   UNL     1       1.718   6.690  17.920  0.00  0.00    +0.000 HD
BRANCH  19  21
ATOM     21  C   UNL     1       1.839   8.535  18.856  0.00  0.00    +0.000 A 
ATOM     22  C   UNL     1       1.924   9.558  17.912  0.00  0.00    +0.000 A 
ATOM     23  C   UNL     1       1.411  10.827  18.205  0.00  0.00    +0.000 A 
ATOM     24  C   UNL     1       0.865  11.080  19.467  0.00  0.00    +0.000 A 
ATOM     25  F   UNL     1       0.397  12.303  19.732  0.00  0.00    +0.000 F 
ATOM     26  C   UNL     1       0.819  10.078  20.429  0.00  0.00    +0.000 A 
ATOM     27  C   UNL     1       1.290   8.795  20.125  0.00  0.00    +0.000 A 
BRANCH  26  28
ATOM     28  C   UNL     1       0.293  10.352  21.728  0.00  0.00    +0.000 C 
ATOM     29  N   UNL     1      -0.113  10.563  22.798  0.00  0.00    +0.000 NA
ENDBRANCH  26  28
ENDBRANCH  19  21
ENDBRANCH  10  17
BRANCH   1  30
ATOM     30  C   UNL     1       5.885   3.661  16.294  0.00  0.00    +0.000 C 
BRANCH  30  32
ATOM     31  C   UNL     1       7.271   4.987  14.625  0.00  0.00    +0.000 C 
ATOM     32  C   UNL     1       5.884   4.439  14.952  0.00  0.00    +0.000 C 
ATOM     33  C   UNL     1       5.405   3.546  13.799  0.00  0.00    +0.000 C 
ENDBRANCH  30  32
ENDBRANCH   1  30
TORSDOF 6
ENDMDL
MODEL 2
REMARK VINA RESULT:      -6.4      4.581      9.874
REMARK  Name = 
REMARK  8 active torsions:
REMARK  status: ('A' for Active; 'I' for Inactive)
REMARK    1  A    between atoms: C_1  and  C_2
REMARK    2  A    between atoms: C_2  and  C_3
REMARK    3  A    between atoms: C_2  and  C_4
REMARK    4  A    between atoms: C_4  and  N_5
REMARK    5  A    between atoms: C_14  and  C_15
REMARK    6  A    between atoms: N_17  and  C_18
REMARK    7  A    between atoms: C_23  and  C_24
REMARK    8  A    between atoms: C_27  and  C_28
REMARK                            x       y       z     vdW  Elec       q    Type
REMARK                         _______ _______ _______ _____ _____    ______ ____
ROOT
ATOM      1  N   UNL     1      -0.014  15.263  20.803  0.00  0.00    +0.000 N 
ATOM      2  C   UNL     1      -1.228  15.414  21.481  0.00  0.00    +0.000 C 
ATOM      3  O   UNL     1      -1.902  16.439  21.457  0.00  0.00    +0.000 OA
ATOM      4  C   UNL     1      -1.746  14.248  22.245  0.00  0.00    +0.000 A 
ATOM      5  C   UNL     1      -2.674  14.467  23.269  0.00  0.00    +0.000 A 
ATOM      6  C   UNL     1      -3.301  13.385  23.885  0.00  0.00    +0.000 A 
ATOM      7  C   UNL     1      -3.037  12.092  23.444  0.00  0.00    +0.000 A 
ATOM      8  C   UNL     1      -2.091  11.871  22.438  0.00  0.00    +0.000 A 
ATOM      9  C   UNL     1      -1.381  12.945  21.880  0.00  0.00    +0.000 A 
ATOM     10  C   UNL     1      -0.294  12.769  20.839  0.00  0.00    +0.000 C 
ATOM     11  C   UNL     1       0.708  13.964  20.884  0.00  0.00    +0.000 C 
ENDROOT
BRANCH  11  12
ATOM     12  C   UNL     1       1.760  13.797  19.829  0.00  0.00    +0.000 A 
ATOM     13  C   UNL     1       3.101  14.096  19.727  0.00  0.00    +0.000 A 
ATOM     14  C   UNL     1       3.392  13.898  18.365  0.00  0.00    +0.000 A 
ATOM     15  N   UNL     1       2.341  13.419  17.695  0.00  0.00    +0.000 NA
ATOM     16  O   UNL     1       1.314  13.353  18.619  0.00  0.00    +0.000 OA
ENDBRANCH  11  12
BRANCH  10  17
ATOM     17  C   UNL     1       0.453  11.433  20.934  0.00  0.00    +0.000 C 
ATOM     18  O   UNL     1       1.124  11.177  21.936  0.00  0.00    +0.000 OA
ATOM     19  N   UNL     1       0.347  10.576  19.844  0.00  0.00    +0.000 N 
ATOM     20  H   UNL     1       0.248  11.020  18.937  0.00  0.00    +0.000 HD
BRANCH  19  21
ATOM     21  C   UNL     1       0.994   9.320  19.861  0.00  0.00    +0.000 A 
ATOM     22  C   UNL     1       0.791   8.454  20.934  0.00  0.00    +0.000 A 
ATOM     23  C   UNL     1       1.383   7.186  20.934  0.00  0.00    +0.000 A 
ATOM     24  C   UNL     1       2.225   6.814  19.881  0.00  0.00    +0.000 A 
ATOM     25  F   UNL     1       2.794   5.605  19.909  0.00  0.00    +0.000 F 
ATOM     26  C   UNL     1       2.469   7.690  18.830  0.00  0.00    +0.000 A 
ATOM     27  C   UNL     1       1.842   8.942  18.805  0.00  0.00    +0.000 A 
BRANCH  26  28
ATOM     28  C   UNL     1       3.357   7.319  17.775  0.00  0.00    +0.000 C 
ATOM     29  N   UNL     1       4.066   6.992  16.912  0.00  0.00    +0.000 NA
ENDBRANCH  26  28
ENDBRANCH  19  21
ENDBRANCH  10  17
BRANCH   1  30
ATOM     30  C   UNL     1       0.573  16.472  20.181  0.00  0.00    +0.000 C 
BRANCH  30  32
ATOM     31  C   UNL     1      -0.856  17.535  18.368  0.00  0.00    +0.000 C 
ATOM     32  C   UNL     1       0.340  16.632  18.656  0.00  0.00    +0.000 C 
ATOM     33  C   UNL     1       1.587  17.203  17.966  0.00  0.00    +0.000 C 
ENDBRANCH  30  32
ENDBRANCH   1  30
TORSDOF 6
ENDMDL
MODEL 3
REMARK VINA RESULT:      -6.3      6.622     10.343
REMARK  Name = 
REMARK  8 active torsions:
REMARK  status: ('A' for Active; 'I' for Inactive)
REMARK    1  A    between atoms: C_1  and  C_2
REMARK    2  A    between atoms: C_2  and  C_3
REMARK    3  A    between atoms: C_2  and  C_4
REMARK    4  A    between atoms: C_4  and  N_5
REMARK    5  A    between atoms: C_14  and  C_15
REMARK    6  A    between atoms: N_17  and  C_18
REMARK    7  A    between atoms: C_23  and  C_24
REMARK    8  A    between atoms: C_27  and  C_28
REMARK                            x       y       z     vdW  Elec       q    Type
REMARK                         _______ _______ _______ _____ _____    ______ ____
ROOT
ATOM      1  N   UNL     1      -1.919  11.808  18.855  0.00  0.00    +0.000 N 
ATOM      2  C   UNL     1      -2.988  11.085  18.318  0.00  0.00    +0.000 C 
ATOM      3  O   UNL     1      -2.859  10.049  17.672  0.00  0.00    +0.000 OA
ATOM      4  C   UNL     1      -4.364  11.585  18.578  0.00  0.00    +0.000 A 
ATOM      5  C   UNL     1      -5.403  11.188  17.727  0.00  0.00    +0.000 A 
ATOM      6  C   UNL     1      -6.723  11.502  18.044  0.00  0.00    +0.000 A 
ATOM      7  C   UNL     1      -7.007  12.167  19.233  0.00  0.00    +0.000 A 
ATOM      8  C   UNL     1      -5.970  12.586  20.071  0.00  0.00    +0.000 A 
ATOM      9  C   UNL     1      -4.631  12.363  19.713  0.00  0.00    +0.000 A 
ATOM     10  C   UNL     1      -3.459  12.853  20.539  0.00  0.00    +0.000 C 
ATOM     11  C   UNL     1      -2.196  13.040  19.643  0.00  0.00    +0.000 C 
ENDROOT
BRANCH  11  12
ATOM     12  C   UNL     1      -1.034  13.493  20.474  0.00  0.00    +0.000 A 
ATOM     13  C   UNL     1       0.072  14.287  20.263  0.00  0.00    +0.000 A 
ATOM     14  C   UNL     1       0.870  14.070  21.400  0.00  0.00    +0.000 A 
ATOM     15  N   UNL     1       0.264  13.283  22.292  0.00  0.00    +0.000 NA
ATOM     16  O   UNL     1      -0.937  12.923  21.709  0.00  0.00    +0.000 OA
ENDBRANCH  11  12
BRANCH  10  17
ATOM     17  C   UNL     1      -3.748  14.129  21.340  0.00  0.00    +0.000 C 
ATOM     18  O   UNL     1      -3.887  15.202  20.752  0.00  0.00    +0.000 OA
ATOM     19  N   UNL     1      -3.813  13.999  22.723  0.00  0.00    +0.000 N 
ATOM     20  H   UNL     1      -3.218  13.286  23.133  0.00  0.00    +0.000 HD
BRANCH  19  21
ATOM     21  C   UNL     1      -4.089  15.125  23.531  0.00  0.00    +0.000 A 
ATOM     22  C   UNL     1      -5.400  15.584  23.648  0.00  0.00    +0.000 A 
ATOM     23  C   UNL     1      -5.692  16.664  24.489  0.00  0.00    +0.000 A 
ATOM     24  C   UNL     1      -4.657  17.316  25.166  0.00  0.00    +0.000 A 
ATOM     25  F   UNL     1      -4.955  18.356  25.950  0.00  0.00    +0.000 F 
ATOM     26  C   UNL     1      -3.341  16.893  25.018  0.00  0.00    +0.000 A 
ATOM     27  C   UNL     1      -3.051  15.784  24.213  0.00  0.00    +0.000 A 
BRANCH  26  28
ATOM     28  C   UNL     1      -2.283  17.584  25.683  0.00  0.00    +0.000 C 
ATOM     29  N   UNL     1      -1.404  18.141  26.202  0.00  0.00    +0.000 NA
ENDBRANCH  26  28
ENDBRANCH  19  21
ENDBRANCH  10  17
BRANCH   1  30
ATOM     30  C   UNL     1      -0.552  11.398  18.458  0.00  0.00    +0.000 C 
BRANCH  30  32
ATOM     31  C   UNL     1       1.102   9.494  18.148  0.00  0.00    +0.000 C 
ATOM     32  C   UNL     1      -0.094  10.000  18.948  0.00  0.00    +0.000 C 
ATOM     33  C   UNL     1       0.269  10.033  20.440  0.00  0.00    +0.000 C 
ENDBRANCH  30  32
ENDBRANCH   1  30
TORSDOF 6
ENDMDL
MODEL 4
REMARK VINA RESULT:      -6.2      6.689      9.931
REMARK  Name = 
REMARK  8 active torsions:
REMARK  status: ('A' for Active; 'I' for Inactive)
REMARK    1  A    between atoms: C_1  and  C_2
REMARK    2  A    between atoms: C_2  and  C_3
REMARK    3  A    between atoms: C_2  and  C_4
REMARK    4  A    between atoms: C_4  and  N_5
REMARK    5  A    between atoms: C_14  and  C_15
REMARK    6  A    between atoms: N_17  and  C_18
REMARK    7  A    between atoms: C_23  and  C_24
REMARK    8  A    between atoms: C_27  and  C_28
REMARK                            x       y       z     vdW  Elec       q    Type
REMARK                         _______ _______ _______ _____ _____    ______ ____
ROOT
ATOM      1  N   UNL     1       0.886  13.434  19.462  0.00  0.00    +0.000 N 
ATOM      2  C   UNL     1       1.361  12.120  19.514  0.00  0.00    +0.000 C 
ATOM      3  O   UNL     1       2.349  11.723  18.903  0.00  0.00    +0.000 OA
ATOM      4  C   UNL     1       0.645  11.158  20.394  0.00  0.00    +0.000 A 
ATOM      5  C   UNL     1       0.780   9.786  20.150  0.00  0.00    +0.000 A 
ATOM      6  C   UNL     1       0.260   8.862  21.056  0.00  0.00    +0.000 A 
ATOM      7  C   UNL     1      -0.348   9.309  22.224  0.00  0.00    +0.000 A 
ATOM      8  C   UNL     1      -0.506  10.679  22.456  0.00  0.00    +0.000 A 
ATOM      9  C   UNL     1      -0.076  11.617  21.504  0.00  0.00    +0.000 A 
ATOM     10  C   UNL     1      -0.280  13.110  21.660  0.00  0.00    +0.000 C 
ATOM     11  C   UNL     1      -0.308  13.809  20.266  0.00  0.00    +0.000 C 
ENDROOT
BRANCH  11  12
ATOM     12  C   UNL     1      -0.478  15.289  20.432  0.00  0.00    +0.000 A 
ATOM     13  C   UNL     1       0.147  16.270  21.170  0.00  0.00    +0.000 A 
ATOM     14  C   UNL     1      -0.696  17.388  21.033  0.00  0.00    +0.000 A 
ATOM     15  N   UNL     1      -1.708  17.150  20.198  0.00  0.00    +0.000 NA
ATOM     16  O   UNL     1      -1.569  15.828  19.817  0.00  0.00    +0.000 OA
ENDBRANCH  11  12
BRANCH  10  17
ATOM     17  C   UNL     1      -1.519  13.490  22.481  0.00  0.00    +0.000 C 
ATOM     18  O   UNL     1      -1.409  13.706  23.689  0.00  0.00    +0.000 OA
ATOM     19  N   UNL     1      -2.730  13.544  21.800  0.00  0.00    +0.000 N 
ATOM     20  H   UNL     1      -2.834  12.899  21.024  0.00  0.00    +0.000 HD
BRANCH  19  21
ATOM     21  C   UNL     1      -3.915  13.900  22.483  0.00  0.00    +0.000 A 
ATOM     22  C   UNL     1      -4.077  15.204  22.948  0.00  0.00    +0.000 A 
ATOM     23  C   UNL     1      -5.270  15.581  23.576  0.00  0.00    +0.000 A 
ATOM     24  C   UNL     1      -6.273  14.630  23.788  0.00  0.00    +0.000 A 
ATOM     25  F   UNL     1      -7.396  15.007  24.406  0.00  0.00    +0.000 F 
ATOM     26  C   UNL     1      -6.099  13.317  23.369  0.00  0.00    +0.000 A 
ATOM     27  C   UNL     1      -4.926  12.947  22.699  0.00  0.00    +0.000 A 
BRANCH  26  28
ATOM     28  C   UNL     1      -7.112  12.341  23.619  0.00  0.00    +0.000 C 
ATOM     29  N   UNL     1      -7.916  11.527  23.828  0.00  0.00    +0.000 NA
ENDBRANCH  26  28
ENDBRANCH  19  21
ENDBRANCH  10  17
BRANCH   1  30
ATOM     30  C   UNL     1       1.502  14.341  18.466  0.00  0.00    +0.000 C 
BRANCH  30  32
ATOM     31  C   UNL     1       4.033  14.554  18.355  0.00  0.00    +0.000 C 
ATOM     32  C   UNL     1       2.749  15.129  18.945  0.00  0.00    +0.000 C 
ATOM     33  C   UNL     1       2.637  16.614  18.571  0.00  0.00    +0.000 C 
ENDBRANCH  30  32
ENDBRANCH   1  30
TORSDOF 6
ENDMDL
MODEL 5
REMARK VINA RESULT:      -6.2      7.604     10.561
REMARK  Name = 
REMARK  8 active torsions:
REMARK  status: ('A' for Active; 'I' for Inactive)
REMARK    1  A    between atoms: C_1  and  C_2
REMARK    2  A    between atoms: C_2  and  C_3
REMARK    3  A    between atoms: C_2  and  C_4
REMARK    4  A    between atoms: C_4  and  N_5
REMARK    5  A    between atoms: C_14  and  C_15
REMARK    6  A    between atoms: N_17  and  C_18
REMARK    7  A    between atoms: C_23  and  C_24
REMARK    8  A    between atoms: C_27  and  C_28
REMARK                            x       y       z     vdW  Elec       q    Type
REMARK                         _______ _______ _______ _____ _____    ______ ____
ROOT
ATOM      1  N   UNL     1      -4.227  12.256  20.270  0.00  0.00    +0.000 N 
ATOM      2  C   UNL     1      -4.592  12.708  21.542  0.00  0.00    +0.000 C 
ATOM      3  O   UNL     1      -5.711  12.559  22.026  0.00  0.00    +0.000 OA
ATOM      4  C   UNL     1      -3.551  13.374  22.367  0.00  0.00    +0.000 A 
ATOM      5  C   UNL     1      -3.949  14.217  23.412  0.00  0.00    +0.000 A 
ATOM      6  C   UNL     1      -3.002  14.718  24.303  0.00  0.00    +0.000 A 
ATOM      7  C   UNL     1      -1.669  14.337  24.180  0.00  0.00    +0.000 A 
ATOM      8  C   UNL     1      -1.266  13.516  23.123  0.00  0.00    +0.000 A 
ATOM      9  C   UNL     1      -2.195  13.087  22.161  0.00  0.00    +0.000 A 
ATOM     10  C   UNL     1      -1.813  12.255  20.953  0.00  0.00    +0.000 C 
ATOM     11  C   UNL     1      -2.834  12.470  19.794  0.00  0.00    +0.000 C 
ENDROOT
BRANCH  11  12
ATOM     12  C   UNL     1      -2.466  11.619  18.616  0.00  0.00    +0.000 A 
ATOM     13  C   UNL     1      -2.260  11.843  17.272  0.00  0.00    +0.000 A 
ATOM     14  C   UNL     1      -2.196  10.552  16.718  0.00  0.00    +0.000 A 
ATOM     15  N   UNL     1      -2.256   9.603  17.655  0.00  0.00    +0.000 NA
ATOM     16  O   UNL     1      -2.423  10.277  18.851  0.00  0.00    +0.000 OA
ENDBRANCH  11  12
BRANCH  10  17
ATOM     17  C   UNL     1      -0.378  12.488  20.461  0.00  0.00    +0.000 C 
ATOM     18  O   UNL     1       0.494  11.653  20.703  0.00  0.00    +0.000 OA
ATOM     19  N   UNL     1      -0.136  13.673  19.776  0.00  0.00    +0.000 N 
ATOM     20  H   UNL     1      -0.695  14.472  20.055  0.00  0.00    +0.000 HD
BRANCH  19  21
ATOM     21  C   UNL     1       1.157  13.955  19.279  0.00  0.00    +0.000 A 
ATOM     22  C   UNL     1       1.800  13.025  18.463  0.00  0.00    +0.000 A 
ATOM     23  C   UNL     1       3.056  13.318  17.920  0.00  0.00    +0.000 A 
ATOM     24  C   UNL     1       3.689  14.522  18.247  0.00  0.00    +0.000 A 
ATOM     25  F   UNL     1       4.896  14.774  17.732  0.00  0.00    +0.000 F 
ATOM     26  C   UNL     1       3.074  15.434  19.096  0.00  0.00    +0.000 A 
ATOM     27  C   UNL     1       1.797  15.164  19.604  0.00  0.00    +0.000 A 
BRANCH  26  28
ATOM     28  C   UNL     1       3.739  16.645  19.454  0.00  0.00    +0.000 C 
ATOM     29  N   UNL     1       4.306  17.618  19.747  0.00  0.00    +0.000 NA
ENDBRANCH  26  28
ENDBRANCH  19  21
ENDBRANCH  10  17
BRANCH   1  30
ATOM     30  C   UNL     1      -5.306  11.741  19.395  0.00  0.00    +0.000 C 
BRANCH  30  32
ATOM     31  C   UNL     1      -5.944  12.501  17.054  0.00  0.00    +0.000 C 
ATOM     32  C   UNL     1      -6.054  12.802  18.546  0.00  0.00    +0.000 C 
ATOM     33  C   UNL     1      -7.536  12.877  18.941  0.00  0.00    +0.000 C 
ENDBRANCH  30  32
ENDBRANCH   1  30
TORSDOF 6
ENDMDL
MODEL 6
REMARK VINA RESULT:      -6.2      7.605     11.288
REMARK  Name = 
REMARK  8 active torsions:
REMARK  status: ('A' for Active; 'I' for Inactive)
REMARK    1  A    between atoms: C_1  and  C_2
REMARK    2  A    between atoms: C_2  and  C_3
REMARK    3  A    between atoms: C_2  and  C_4
REMARK    4  A    between atoms: C_4  and  N_5
REMARK    5  A    between atoms: C_14  and  C_15
REMARK    6  A    between atoms: N_17  and  C_18
REMARK    7  A    between atoms: C_23  and  C_24
REMARK    8  A    between atoms: C_27  and  C_28
REMARK                            x       y       z     vdW  Elec       q    Type
REMARK                         _______ _______ _______ _____ _____    ______ ____
ROOT
ATOM      1  N   UNL     1      -3.079  13.464  22.975  0.00  0.00    +0.000 N 
ATOM      2  C   UNL     1      -2.801  12.144  23.344  0.00  0.00    +0.000 C 
ATOM      3  O   UNL     1      -3.464  11.507  24.157  0.00  0.00    +0.000 OA
ATOM      4  C   UNL     1      -1.654  11.465  22.684  0.00  0.00    +0.000 A 
ATOM      5  C   UNL     1      -1.069  10.359  23.311  0.00  0.00    +0.000 A 
ATOM      6  C   UNL     1      -0.108   9.604  22.639  0.00  0.00    +0.000 A 
ATOM      7  C   UNL     1       0.227   9.925  21.327  0.00  0.00    +0.000 A 
ATOM      8  C   UNL     1      -0.338  11.044  20.710  0.00  0.00    +0.000 A 
ATOM      9  C   UNL     1      -1.231  11.870  21.411  0.00  0.00    +0.000 A 
ATOM     10  C   UNL     1      -1.824  13.136  20.826  0.00  0.00    +0.000 C 
ATOM     11  C   UNL     1      -2.220  14.131  21.960  0.00  0.00    +0.000 C 
ENDROOT
BRANCH  11  12
ATOM     12  C   UNL     1      -2.835  15.365  21.373  0.00  0.00    +0.000 A 
ATOM     13  C   UNL     1      -3.929  15.633  20.578  0.00  0.00    +0.000 A 
ATOM     14  C   UNL     1      -3.759  16.978  20.205  0.00  0.00    +0.000 A 
ATOM     15  N   UNL     1      -2.699  17.530  20.799  0.00  0.00    +0.000 NA
ATOM     16  O   UNL     1      -2.120  16.515  21.537  0.00  0.00    +0.000 OA
ENDBRANCH  11  12
BRANCH  10  17
ATOM     17  C   UNL     1      -0.929  13.825  19.788  0.00  0.00    +0.000 C 
ATOM     18  O   UNL     1      -1.032  13.525  18.597  0.00  0.00    +0.000 OA
ATOM     19  N   UNL     1      -0.013  14.753  20.269  0.00  0.00    +0.000 N 
ATOM     20  H   UNL     1       0.359  14.574  21.196  0.00  0.00    +0.000 HD
BRANCH  19  21
ATOM     21  C   UNL     1       0.838  15.440  19.374  0.00  0.00    +0.000 A 
ATOM     22  C   UNL     1       0.389  16.604  18.751  0.00  0.00    +0.000 A 
ATOM     23  C   UNL     1       1.243  17.323  17.907  0.00  0.00    +0.000 A 
ATOM     24  C   UNL     1       2.528  16.838  17.645  0.00  0.00    +0.000 A 
ATOM     25  F   UNL     1       3.321  17.530  16.822  0.00  0.00    +0.000 F 
ATOM     26  C   UNL     1       2.967  15.654  18.226  0.00  0.00    +0.000 A 
ATOM     27  C   UNL     1       2.132  14.957  19.107  0.00  0.00    +0.000 A 
BRANCH  26  28
ATOM     28  C   UNL     1       4.268  15.145  17.928  0.00  0.00    +0.000 C 
ATOM     29  N   UNL     1       5.339  14.752  17.700  0.00  0.00    +0.000 NA
ENDBRANCH  26  28
ENDBRANCH  19  21
ENDBRANCH  10  17
BRANCH   1  30
ATOM     30  C   UNL     1      -4.116  14.183  23.750  0.00  0.00    +0.000 C 
BRANCH  30  32
ATOM     31  C   UNL     1      -6.583  14.787  23.861  0.00  0.00    +0.000 C 
ATOM     32  C   UNL     1      -5.572  13.683  23.562  0.00  0.00    +0.000 C 
ATOM     33  C   UNL     1      -5.795  13.163  22.135  0.00  0.00    +0.000 C 
ENDBRANCH  30  32
ENDBRANCH   1  30
TORSDOF 6
ENDMDL
MODEL 7
REMARK VINA RESULT:      -6.2      6.061     12.382
REMARK  Name = 
REMARK  8 active torsions:
REMARK  status: ('A' for Active; 'I' for Inactive)
REMARK    1  A    between atoms: C_1  and  C_2
REMARK    2  A    between atoms: C_2  and  C_3
REMARK    3  A    between atoms: C_2  and  C_4
REMARK    4  A    between atoms: C_4  and  N_5
REMARK    5  A    between atoms: C_14  and  C_15
REMARK    6  A    between atoms: N_17  and  C_18
REMARK    7  A    between atoms: C_23  and  C_24
REMARK    8  A    between atoms: C_27  and  C_28
REMARK                            x       y       z     vdW  Elec       q    Type
REMARK                         _______ _______ _______ _____ _____    ______ ____
ROOT
ATOM      1  N   UNL     1      -3.843  16.178  21.524  0.00  0.00    +0.000 N 
ATOM      2  C   UNL     1      -3.334  17.172  20.682  0.00  0.00    +0.000 C 
ATOM      3  O   UNL     1      -3.860  18.270  20.523  0.00  0.00    +0.000 OA
ATOM      4  C   UNL     1      -2.059  16.893  19.970  0.00  0.00    +0.000 A 
ATOM      5  C   UNL     1      -1.751  17.625  18.817  0.00  0.00    +0.000 A 
ATOM      6  C   UNL     1      -0.494  17.503  18.228  0.00  0.00    +0.000 A 
ATOM      7  C   UNL     1       0.469  16.690  18.819  0.00  0.00    +0.000 A 
ATOM      8  C   UNL     1       0.154  15.939  19.955  0.00  0.00    +0.000 A 
ATOM      9  C   UNL     1      -1.140  15.977  20.498  0.00  0.00    +0.000 A 
ATOM     10  C   UNL     1      -1.566  15.135  21.684  0.00  0.00    +0.000 C 
ATOM     11  C   UNL     1      -3.107  14.892  21.659  0.00  0.00    +0.000 C 
ENDROOT
BRANCH  11  12
ATOM     12  C   UNL     1      -3.523  14.087  22.852  0.00  0.00    +0.000 A 
ATOM     13  C   UNL     1      -3.404  14.224  24.218  0.00  0.00    +0.000 A 
ATOM     14  C   UNL     1      -3.795  12.971  24.722  0.00  0.00    +0.000 A 
ATOM     15  N   UNL     1      -4.218  12.154  23.756  0.00  0.00    +0.000 NA
ATOM     16  O   UNL     1      -4.050  12.859  22.578  0.00  0.00    +0.000 OA
ENDBRANCH  11  12
BRANCH  10  17
ATOM     17  C   UNL     1      -0.811  13.806  21.812  0.00  0.00    +0.000 C 
ATOM     18  O   UNL     1       0.203  13.744  22.509  0.00  0.00    +0.000 OA
ATOM     19  N   UNL     1      -1.314  12.728  21.093  0.00  0.00    +0.000 N 
ATOM     20  H   UNL     1      -1.769  12.951  20.214  0.00  0.00    +0.000 HD
BRANCH  19  21
ATOM     21  C   UNL     1      -0.682  11.466  21.169  0.00  0.00    +0.000 A 
ATOM     22  C   UNL     1      -0.766  10.722  22.346  0.00  0.00    +0.000 A 
ATOM     23  C   UNL     1      -0.191   9.448  22.413  0.00  0.00    +0.000 A 
ATOM     24  C   UNL     1       0.516   8.948  21.315  0.00  0.00    +0.000 A 
ATOM     25  F   UNL     1       1.072   7.736  21.407  0.00  0.00    +0.000 F 
ATOM     26  C   UNL     1       0.643   9.702  20.155  0.00  0.00    +0.000 A 
ATOM     27  C   UNL     1       0.031  10.958  20.069  0.00  0.00    +0.000 A 
BRANCH  26  28
ATOM     28  C   UNL     1       1.397   9.201  19.050  0.00  0.00    +0.000 C 
ATOM     29  N   UNL     1       1.994   8.809  18.132  0.00  0.00    +0.000 NA
ENDBRANCH  26  28
ENDBRANCH  19  21
ENDBRANCH  10  17
BRANCH   1  30
ATOM     30  C   UNL     1      -5.189  16.399  22.101  0.00  0.00    +0.000 C 
BRANCH  30  32
ATOM     31  C   UNL     1      -5.914  15.230  19.963  0.00  0.00    +0.000 C 
ATOM     32  C   UNL     1      -6.377  15.811  21.296  0.00  0.00    +0.000 C 
ATOM     33  C   UNL     1      -7.100  14.721  22.102  0.00  0.00    +0.000 C 
ENDBRANCH  30  32
ENDBRANCH   1  30
TORSDOF 6
ENDMDL
MODEL 8
REMARK VINA RESULT:      -6.2      5.157     10.470
REMARK  Name = 
REMARK  8 active torsions:
REMARK  status: ('A' for Active; 'I' for Inactive)
REMARK    1  A    between atoms: C_1  and  C_2
REMARK    2  A    between atoms: C_2  and  C_3
REMARK    3  A    between atoms: C_2  and  C_4
REMARK    4  A    between atoms: C_4  and  N_5
REMARK    5  A    between atoms: C_14  and  C_15
REMARK    6  A    between atoms: N_17  and  C_18
REMARK    7  A    between atoms: C_23  and  C_24
REMARK    8  A    between atoms: C_27  and  C_28
REMARK                            x       y       z     vdW  Elec       q    Type
REMARK                         _______ _______ _______ _____ _____    ______ ____
ROOT
ATOM      1  N   UNL     1      -0.859  16.054  20.326  0.00  0.00    +0.000 N 
ATOM      2  C   UNL     1      -2.161  16.168  20.824  0.00  0.00    +0.000 C 
ATOM      3  O   UNL     1      -2.876  17.151  20.654  0.00  0.00    +0.000 OA
ATOM      4  C   UNL     1      -2.721  15.011  21.573  0.00  0.00    +0.000 A 
ATOM      5  C   UNL     1      -3.792  15.225  22.449  0.00  0.00    +0.000 A 
ATOM      6  C   UNL     1      -4.442  14.139  23.033  0.00  0.00    +0.000 A 
ATOM      7  C   UNL     1      -4.055  12.844  22.702  0.00  0.00    +0.000 A 
ATOM      8  C   UNL     1      -2.970  12.630  21.847  0.00  0.00    +0.000 A 
ATOM      9  C   UNL     1      -2.244  13.716  21.332  0.00  0.00    +0.000 A 
ATOM     10  C   UNL     1      -1.016  13.553  20.459  0.00  0.00    +0.000 C 
ATOM     11  C   UNL     1      -0.092  14.804  20.574  0.00  0.00    +0.000 C 
ENDROOT
BRANCH  11  12
ATOM     12  C   UNL     1       1.103  14.648  19.682  0.00  0.00    +0.000 A 
ATOM     13  C   UNL     1       1.320  14.161  18.411  0.00  0.00    +0.000 A 
ATOM     14  C   UNL     1       2.721  14.084  18.311  0.00  0.00    +0.000 A 
ATOM     15  N   UNL     1       3.327  14.577  19.393  0.00  0.00    +0.000 NA
ATOM     16  O   UNL     1       2.306  14.935  20.255  0.00  0.00    +0.000 OA
ENDBRANCH  11  12
BRANCH  10  17
ATOM     17  C   UNL     1      -0.224  12.267  20.726  0.00  0.00    +0.000 C 
ATOM     18  O   UNL     1       0.533  12.206  21.697  0.00  0.00    +0.000 OA
ATOM     19  N   UNL     1      -0.392  11.228  19.819  0.00  0.00    +0.000 N 
ATOM     20  H   UNL     1      -0.578  11.499  18.859  0.00  0.00    +0.000 HD
BRANCH  19  21
ATOM     21  C   UNL     1       0.292  10.005  20.004  0.00  0.00    +0.000 A 
ATOM     22  C   UNL     1       0.096   9.275  21.175  0.00  0.00    +0.000 A 
ATOM     23  C   UNL     1       0.726   8.037  21.344  0.00  0.00    +0.000 A 
ATOM     24  C   UNL     1       1.598   7.562  20.358  0.00  0.00    +0.000 A 
ATOM     25  F   UNL     1       2.202   6.386  20.547  0.00  0.00    +0.000 F 
ATOM     26  C   UNL     1       1.833   8.306  19.208  0.00  0.00    +0.000 A 
ATOM     27  C   UNL     1       1.170   9.524  19.016  0.00  0.00    +0.000 A 
BRANCH  26  28
ATOM     28  C   UNL     1       2.751   7.833  18.221  0.00  0.00    +0.000 C 
ATOM     29  N   UNL     1       3.500   7.475  17.406  0.00  0.00    +0.000 NA
ENDBRANCH  26  28
ENDBRANCH  19  21
ENDBRANCH  10  17
BRANCH   1  30
ATOM     30  C   UNL     1      -0.253  17.265  19.725  0.00  0.00    +0.000 C 
BRANCH  30  32
ATOM     31  C   UNL     1      -1.469  18.553  17.901  0.00  0.00    +0.000 C 
ATOM     32  C   UNL     1      -0.465  17.443  18.198  0.00  0.00    +0.000 C 
ATOM     33  C   UNL     1       0.862  17.754  17.492  0.00  0.00    +0.000 C 
ENDBRANCH  30  32
ENDBRANCH   1  30
TORSDOF 6
ENDMDL
MODEL 9
REMARK VINA RESULT:      -6.1      7.261     10.701
REMARK  Name = 
REMARK  8 active torsions:
REMARK  status: ('A' for Active; 'I' for Inactive)
REMARK    1  A    between atoms: C_1  and  C_2
REMARK    2  A    between atoms: C_2  and  C_3
REMARK    3  A    between atoms: C_2  and  C_4
REMARK    4  A    between atoms: C_4  and  N_5
REMARK    5  A    between atoms: C_14  and  C_15
REMARK    6  A    between atoms: N_17  and  C_18
REMARK    7  A    between atoms: C_23  and  C_24
REMARK    8  A    between atoms: C_27  and  C_28
REMARK                            x       y       z     vdW  Elec       q    Type
REMARK                         _______ _______ _______ _____ _____    ______ ____
ROOT
ATOM      1  N   UNL     1       1.326  14.777  20.222  0.00  0.00    +0.000 N 
ATOM      2  C   UNL     1       1.726  13.504  19.805  0.00  0.00    +0.000 C 
ATOM      3  O   UNL     1       2.768  13.279  19.197  0.00  0.00    +0.000 OA
ATOM      4  C   UNL     1       0.852  12.352  20.153  0.00  0.00    +0.000 A 
ATOM      5  C   UNL     1       0.955  11.172  19.407  0.00  0.00    +0.000 A 
ATOM      6  C   UNL     1       0.272  10.027  19.815  0.00  0.00    +0.000 A 
ATOM      7  C   UNL     1      -0.469  10.049  20.993  0.00  0.00    +0.000 A 
ATOM      8  C   UNL     1      -0.592  11.233  21.725  0.00  0.00    +0.000 A 
ATOM      9  C   UNL     1       0.008  12.418  21.270  0.00  0.00    +0.000 A 
ATOM     10  C   UNL     1      -0.145  13.750  21.977  0.00  0.00    +0.000 C 
ATOM     11  C   UNL     1       0.051  14.928  20.975  0.00  0.00    +0.000 C 
ENDROOT
BRANCH  11  12
ATOM     12  C   UNL     1      -0.069  16.240  21.690  0.00  0.00    +0.000 A 
ATOM     13  C   UNL     1       0.590  16.852  22.734  0.00  0.00    +0.000 A 
ATOM     14  C   UNL     1      -0.216  17.963  23.042  0.00  0.00    +0.000 A 
ATOM     15  N   UNL     1      -1.239  18.087  22.194  0.00  0.00    +0.000 NA
ATOM     16  O   UNL     1      -1.144  17.004  21.340  0.00  0.00    +0.000 OA
ENDBRANCH  11  12
BRANCH  10  17
ATOM     17  C   UNL     1      -1.465  13.903  22.743  0.00  0.00    +0.000 C 
ATOM     18  O   UNL     1      -1.480  13.776  23.968  0.00  0.00    +0.000 OA
ATOM     19  N   UNL     1      -2.602  14.160  21.985  0.00  0.00    +0.000 N 
ATOM     20  H   UNL     1      -2.619  13.755  21.055  0.00  0.00    +0.000 HD
BRANCH  19  21
ATOM     21  C   UNL     1      -3.855  14.328  22.618  0.00  0.00    +0.000 A 
ATOM     22  C   UNL     1      -4.235  15.591  23.070  0.00  0.00    +0.000 A 
ATOM     23  C   UNL     1      -5.496  15.779  23.648  0.00  0.00    +0.000 A 
ATOM     24  C   UNL     1      -6.349  14.685  23.822  0.00  0.00    +0.000 A 
ATOM     25  F   UNL     1      -7.541  14.884  24.392  0.00  0.00    +0.000 F 
ATOM     26  C   UNL     1      -5.959  13.415  23.416  0.00  0.00    +0.000 A 
ATOM     27  C   UNL     1      -4.716  13.231  22.796  0.00  0.00    +0.000 A 
BRANCH  26  28
ATOM     28  C   UNL     1      -6.819  12.295  23.628  0.00  0.00    +0.000 C 
ATOM     29  N   UNL     1      -7.530  11.395  23.824  0.00  0.00    +0.000 NA
ENDBRANCH  26  28
ENDBRANCH  19  21
ENDBRANCH  10  17
BRANCH   1  30
ATOM     30  C   UNL     1       2.114  15.932  19.735  0.00  0.00    +0.000 C 
BRANCH  30  32
ATOM     31  C   UNL     1       0.966  17.809  18.462  0.00  0.00    +0.000 C 
ATOM     32  C   UNL     1       1.716  16.485  18.341  0.00  0.00    +0.000 C 
ATOM     33  C   UNL     1       2.953  16.680  17.453  0.00  0.00    +0.000 C 
ENDBRANCH  30  32
ENDBRANCH   1  30
TORSDOF 6
ENDMDL
