MODEL 1
REMARK VINA RESULT:      -8.0      0.000      0.000
REMARK  Name = 
REMARK  6 active torsions:
REMARK  status: ('A' for Active; 'I' for Inactive)
REMARK    1  A    between atoms: C_2  and  C_3
REMARK    2  A    between atoms: C_3  and  C_4
REMARK    3  A    between atoms: C_4  and  C_5
REMARK    4  A    between atoms: N_8  and  C_9
REMARK    5  A    between atoms: C_9  and  C_10
REMARK    6  A    between atoms: N_17  and  C_18
REMARK                            x       y       z     vdW  Elec       q    Type
REMARK                         _______ _______ _______ _____ _____    ______ ____
ROOT
ATOM      1  C   UNL     1       7.204   7.805  17.454  0.00  0.00    +0.000 C 
ENDROOT
BRANCH   1   2
ATOM      2  C   UNL     1       7.089   6.307  17.087  0.00  0.00    +0.000 C 
ATOM      3  C   UNL     1       5.734   5.973  16.451  0.00  0.00    +0.000 C 
ATOM      4  C   UNL     1       4.585   6.008  17.460  0.00  0.00    +0.000 C 
ATOM      5  N   UNL     1       4.807   5.127  18.617  0.00  0.00    +0.000 NA
ATOM      6  C   UNL     1       6.120   5.343  19.248  0.00  0.00    +0.000 C 
ATOM      7  C   UNL     1       7.289   5.339  18.260  0.00  0.00    +0.000 C 
BRANCH   5   8
ATOM      8  C   UNL     1       3.740   5.289  19.631  0.00  0.00    +0.000 C 
BRANCH   8   9
ATOM      9  C   UNL     1       3.007   3.992  19.977  0.00  0.00    +0.000 C 
ATOM     10  C   UNL     1       2.161   4.070  21.230  0.00  0.00    +0.000 C 
ATOM     11  C   UNL     1       1.210   2.910  21.035  0.00  0.00    +0.000 C 
ATOM     12  O   UNL     1       1.012   2.763  19.621  0.00  0.00    +0.000 OA
ATOM     13  C   UNL     1       1.980   3.576  18.938  0.00  0.00    +0.000 C 
ENDBRANCH   8   9
ENDBRANCH   5   8
ENDBRANCH   1   2
BRANCH   1  14
ATOM     14  C   UNL     1       8.415   8.128  18.344  0.00  0.00    +0.000 C 
BRANCH  14  16
ATOM     15  O   UNL     1       8.201  10.443  17.707  0.00  0.00    +0.000 OA
ATOM     16  C   UNL     1       8.659   9.623  18.502  0.00  0.00    +0.000 C 
ATOM     17  N   UNL     1       9.419   9.922  19.625  0.00  0.00    +0.000 N 
ATOM     18  H   UNL     1       9.918   9.160  20.073  0.00  0.00    +0.000 HD
BRANCH  17  19
ATOM     19  C   UNL     1       9.640  11.203  20.192  0.00  0.00    +0.000 A 
ATOM     20  C   UNL     1       8.929  11.660  21.308  0.00  0.00    +0.000 A 
ATOM     21  C   UNL     1       9.214  12.905  21.885  0.00  0.00    +0.000 A 
ATOM     22  C   UNL     1      10.220  13.707  21.363  0.00  0.00    +0.000 A 
ATOM     23  C   UNL     1      10.938  13.277  20.250  0.00  0.00    +0.000 A 
ATOM     24  C   UNL     1      10.651  12.035  19.669  0.00  0.00    +0.000 A 
ATOM     25 CL   UNL     1      11.555  11.566  18.270  0.00  0.00    +0.000 Cl
ENDBRANCH  17  19
ENDBRANCH  14  16
ENDBRANCH   1  14
TORSDOF 6
ENDMDL
MODEL 2
REMARK VINA RESULT:      -7.5      1.845      2.349
REMARK  Name = 
REMARK  6 active torsions:
REMARK  status: ('A' for Active; 'I' for Inactive)
REMARK    1  A    between atoms: C_2  and  C_3
REMARK    2  A    between atoms: C_3  and  C_4
REMARK    3  A    between atoms: C_4  and  C_5
REMARK    4  A    between atoms: N_8  and  C_9
REMARK    5  A    between atoms: C_9  and  C_10
REMARK    6  A    between atoms: N_17  and  C_18
REMARK                            x       y       z     vdW  Elec       q    Type
REMARK                         _______ _______ _______ _____ _____    ______ ____
ROOT
ATOM      1  C   UNL     1       7.425   7.564  17.399  0.00  0.00    +0.000 C 
ENDROOT
BRANCH   1   2
ATOM      2  C   UNL     1       7.325   6.030  17.224  0.00  0.00    +0.000 C 
ATOM      3  C   UNL     1       6.404   5.643  16.061  0.00  0.00    +0.000 C 
ATOM      4  C   UNL     1       4.928   5.893  16.371  0.00  0.00    +0.000 C 
ATOM      5  N   UNL     1       4.472   5.216  17.595  0.00  0.00    +0.000 NA
ATOM      6  C   UNL     1       5.345   5.487  18.750  0.00  0.00    +0.000 C 
ATOM      7  C   UNL     1       6.834   5.271  18.464  0.00  0.00    +0.000 C 
BRANCH   5   8
ATOM      8  C   UNL     1       3.079   5.589  17.932  0.00  0.00    +0.000 C 
BRANCH   8   9
ATOM      9  C   UNL     1       2.941   6.977  18.561  0.00  0.00    +0.000 C 
ATOM     10  C   UNL     1       2.107   7.947  17.751  0.00  0.00    +0.000 C 
ATOM     11  C   UNL     1       1.727   8.975  18.792  0.00  0.00    +0.000 C 
ATOM     12  O   UNL     1       1.642   8.287  20.049  0.00  0.00    +0.000 OA
ATOM     13  C   UNL     1       2.204   6.974  19.889  0.00  0.00    +0.000 C 
ENDBRANCH   8   9
ENDBRANCH   5   8
ENDBRANCH   1   2
BRANCH   1  14
ATOM     14  C   UNL     1       8.415   7.994  18.494  0.00  0.00    +0.000 C 
BRANCH  14  16
ATOM     15  O   UNL     1       8.029  10.269  17.797  0.00  0.00    +0.000 OA
ATOM     16  C   UNL     1       8.606   9.503  18.568  0.00  0.00    +0.000 C 
ATOM     17  N   UNL     1       9.468   9.880  19.589  0.00  0.00    +0.000 N 
ATOM     18  H   UNL     1      10.046   9.159  20.008  0.00  0.00    +0.000 HD
BRANCH  17  19
ATOM     19  C   UNL     1       9.689  11.192  20.080  0.00  0.00    +0.000 A 
ATOM     20  C   UNL     1       9.093  11.662  21.256  0.00  0.00    +0.000 A 
ATOM     21  C   UNL     1       9.381  12.941  21.749  0.00  0.00    +0.000 A 
ATOM     22  C   UNL     1      10.278  13.766  21.084  0.00  0.00    +0.000 A 
ATOM     23  C   UNL     1      10.881  13.323  19.909  0.00  0.00    +0.000 A 
ATOM     24  C   UNL     1      10.590  12.047  19.411  0.00  0.00    +0.000 A 
ATOM     25 CL   UNL     1      11.346  11.561  17.932  0.00  0.00    +0.000 Cl
ENDBRANCH  17  19
ENDBRANCH  14  16
ENDBRANCH   1  14
TORSDOF 6
ENDMDL
MODEL 3
REMARK VINA RESULT:      -7.5      1.431      1.816
REMARK  Name = 
REMARK  6 active torsions:
REMARK  status: ('A' for Active; 'I' for Inactive)
REMARK    1  A    between atoms: C_2  and  C_3
REMARK    2  A    between atoms: C_3  and  C_4
REMARK    3  A    between atoms: C_4  and  C_5
REMARK    4  A    between atoms: N_8  and  C_9
REMARK    5  A    between atoms: C_9  and  C_10
REMARK    6  A    between atoms: N_17  and  C_18
REMARK                            x       y       z     vdW  Elec       q    Type
REMARK                         _______ _______ _______ _____ _____    ______ ____
ROOT
ATOM      1  C   UNL     1       7.412   8.262  17.719  0.00  0.00    +0.000 C 
ENDROOT
BRANCH   1   2
ATOM      2  C   UNL     1       7.418   6.793  17.236  0.00  0.00    +0.000 C 
ATOM      3  C   UNL     1       6.126   6.425  16.496  0.00  0.00    +0.000 C 
ATOM      4  C   UNL     1       4.923   6.311  17.434  0.00  0.00    +0.000 C 
ATOM      5  N   UNL     1       5.138   5.358  18.535  0.00  0.00    +0.000 NA
ATOM      6  C   UNL     1       6.396   5.606  19.258  0.00  0.00    +0.000 C 
ATOM      7  C   UNL     1       7.617   5.751  18.345  0.00  0.00    +0.000 C 
BRANCH   5   8
ATOM      8  C   UNL     1       4.008   5.375  19.491  0.00  0.00    +0.000 C 
BRANCH   8   9
ATOM      9  C   UNL     1       3.166   4.097  19.483  0.00  0.00    +0.000 C 
ATOM     10  C   UNL     1       1.905   4.188  18.651  0.00  0.00    +0.000 C 
ATOM     11  C   UNL     1       1.586   2.729  18.412  0.00  0.00    +0.000 C 
ATOM     12  O   UNL     1       2.836   2.026  18.381  0.00  0.00    +0.000 OA
ATOM     13  C   UNL     1       3.868   2.909  18.850  0.00  0.00    +0.000 C 
ENDBRANCH   8   9
ENDBRANCH   5   8
ENDBRANCH   1   2
BRANCH   1  14
ATOM     14  C   UNL     1       8.612   8.621  18.611  0.00  0.00    +0.000 C 
BRANCH  14  16
ATOM     15  O   UNL     1       8.421  10.884  17.804  0.00  0.00    +0.000 OA
ATOM     16  C   UNL     1       8.932  10.109  18.612  0.00  0.00    +0.000 C 
ATOM     17  N   UNL     1       9.824  10.461  19.617  0.00  0.00    +0.000 N 
ATOM     18  H   UNL     1      10.339   9.714  20.072  0.00  0.00    +0.000 HD
BRANCH  17  19
ATOM     19  C   UNL     1      10.158  11.771  20.045  0.00  0.00    +0.000 A 
ATOM     20  C   UNL     1      11.056  12.582  19.342  0.00  0.00    +0.000 A 
ATOM     21  C   UNL     1      11.318  13.895  19.756  0.00  0.00    +0.000 A 
ATOM     22  C   UNL     1      10.677  14.422  20.870  0.00  0.00    +0.000 A 
ATOM     23  C   UNL     1       9.782  13.633  21.588  0.00  0.00    +0.000 A 
ATOM     24  C   UNL     1       9.524  12.319  21.180  0.00  0.00    +0.000 A 
ATOM     25 CL   UNL     1       8.426  11.375  22.128  0.00  0.00    +0.000 Cl
ENDBRANCH  17  19
ENDBRANCH  14  16
ENDBRANCH   1  14
TORSDOF 6
ENDMDL
MODEL 4
REMARK VINA RESULT:      -7.3      1.454      2.038
REMARK  Name = 
REMARK  6 active torsions:
REMARK  status: ('A' for Active; 'I' for Inactive)
REMARK    1  A    between atoms: C_2  and  C_3
REMARK    2  A    between atoms: C_3  and  C_4
REMARK    3  A    between atoms: C_4  and  C_5
REMARK    4  A    between atoms: N_8  and  C_9
REMARK    5  A    between atoms: C_9  and  C_10
REMARK    6  A    between atoms: N_17  and  C_18
REMARK                            x       y       z     vdW  Elec       q    Type
REMARK                         _______ _______ _______ _____ _____    ______ ____
ROOT
ATOM      1  C   UNL     1       7.483   6.771  17.517  0.00  0.00    +0.000 C 
ENDROOT
BRANCH   1   2
ATOM      2  C   UNL     1       7.204   5.298  17.898  0.00  0.00    +0.000 C 
ATOM      3  C   UNL     1       6.410   4.563  16.811  0.00  0.00    +0.000 C 
ATOM      4  C   UNL     1       4.952   5.018  16.738  0.00  0.00    +0.000 C 
ATOM      5  N   UNL     1       4.243   4.894  18.021  0.00  0.00    +0.000 NA
ATOM      6  C   UNL     1       4.975   5.523  19.133  0.00  0.00    +0.000 C 
ATOM      7  C   UNL     1       6.447   5.107  19.219  0.00  0.00    +0.000 C 
BRANCH   5   8
ATOM      8  C   UNL     1       2.880   5.467  17.942  0.00  0.00    +0.000 C 
BRANCH   8   9
ATOM      9  C   UNL     1       1.764   4.461  18.232  0.00  0.00    +0.000 C 
ATOM     10  C   UNL     1       2.107   3.031  17.874  0.00  0.00    +0.000 C 
ATOM     11  C   UNL     1       1.109   2.255  18.704  0.00  0.00    +0.000 C 
ATOM     12  O   UNL     1       0.858   3.028  19.888  0.00  0.00    +0.000 OA
ATOM     13  C   UNL     1       1.425   4.336  19.708  0.00  0.00    +0.000 C 
ENDBRANCH   8   9
ENDBRANCH   5   8
ENDBRANCH   1   2
BRANCH   1  14
ATOM     14  C   UNL     1       8.136   7.585  18.646  0.00  0.00    +0.000 C 
BRANCH  14  16
ATOM     15  O   UNL     1       7.670   9.621  17.443  0.00  0.00    +0.000 OA
ATOM     16  C   UNL     1       8.370   9.043  18.274  0.00  0.00    +0.000 C 
ATOM     17  N   UNL     1       9.422   9.610  18.981  0.00  0.00    +0.000 N 
ATOM     18  H   UNL     1      10.055   8.983  19.467  0.00  0.00    +0.000 HD
BRANCH  17  19
ATOM     19  C   UNL     1       9.763  10.985  19.051  0.00  0.00    +0.000 A 
ATOM     20  C   UNL     1      10.321  11.673  17.968  0.00  0.00    +0.000 A 
ATOM     21  C   UNL     1      10.589  13.047  18.047  0.00  0.00    +0.000 A 
ATOM     22  C   UNL     1      10.293  13.755  19.205  0.00  0.00    +0.000 A 
ATOM     23  C   UNL     1       9.741  13.090  20.298  0.00  0.00    +0.000 A 
ATOM     24  C   UNL     1       9.478  11.717  20.222  0.00  0.00    +0.000 A 
ATOM     25 CL   UNL     1       8.821  10.939  21.621  0.00  0.00    +0.000 Cl
ENDBRANCH  17  19
ENDBRANCH  14  16
ENDBRANCH   1  14
TORSDOF 6
ENDMDL
MODEL 5
REMARK VINA RESULT:      -7.3      1.860      2.030
REMARK  Name = 
REMARK  6 active torsions:
REMARK  status: ('A' for Active; 'I' for Inactive)
REMARK    1  A    between atoms: C_2  and  C_3
REMARK    2  A    between atoms: C_3  and  C_4
REMARK    3  A    between atoms: C_4  and  C_5
REMARK    4  A    between atoms: N_8  and  C_9
REMARK    5  A    between atoms: C_9  and  C_10
REMARK    6  A    between atoms: N_17  and  C_18
REMARK                            x       y       z     vdW  Elec       q    Type
REMARK                         _______ _______ _______ _____ _____    ______ ____
ROOT
ATOM      1  C   UNL     1       7.828   7.500  18.082  0.00  0.00    +0.000 C 
ENDROOT
BRANCH   1   2
ATOM      2  C   UNL     1       7.215   6.580  17.000  0.00  0.00    +0.000 C 
ATOM      3  C   UNL     1       5.710   6.821  16.825  0.00  0.00    +0.000 C 
ATOM      4  C   UNL     1       4.890   6.298  18.005  0.00  0.00    +0.000 C 
ATOM      5  N   UNL     1       5.122   4.872  18.282  0.00  0.00    +0.000 NA
ATOM      6  C   UNL     1       6.553   4.545  18.401  0.00  0.00    +0.000 C 
ATOM      7  C   UNL     1       7.407   5.078  17.247  0.00  0.00    +0.000 C 
BRANCH   5   8
ATOM      8  C   UNL     1       4.414   4.438  19.508  0.00  0.00    +0.000 C 
BRANCH   8   9
ATOM      9  C   UNL     1       3.266   3.459  19.251  0.00  0.00    +0.000 C 
ATOM     10  C   UNL     1       1.910   4.115  19.101  0.00  0.00    +0.000 C 
ATOM     11  C   UNL     1       1.126   3.044  18.377  0.00  0.00    +0.000 C 
ATOM     12  O   UNL     1       2.058   2.323  17.558  0.00  0.00    +0.000 OA
ATOM     13  C   UNL     1       3.390   2.705  17.938  0.00  0.00    +0.000 C 
ENDBRANCH   8   9
ENDBRANCH   5   8
ENDBRANCH   1   2
BRANCH   1  14
ATOM     14  C   UNL     1       7.983   8.961  17.629  0.00  0.00    +0.000 C 
BRANCH  14  16
ATOM     15  O   UNL     1       9.131   9.385  19.706  0.00  0.00    +0.000 OA
ATOM     16  C   UNL     1       8.811   9.801  18.593  0.00  0.00    +0.000 C 
ATOM     17  N   UNL     1       9.155  11.036  18.062  0.00  0.00    +0.000 N 
ATOM     18  H   UNL     1       8.655  11.350  17.236  0.00  0.00    +0.000 HD
BRANCH  17  19
ATOM     19  C   UNL     1      10.095  11.961  18.585  0.00  0.00    +0.000 A 
ATOM     20  C   UNL     1      11.370  11.573  19.009  0.00  0.00    +0.000 A 
ATOM     21  C   UNL     1      12.299  12.520  19.462  0.00  0.00    +0.000 A 
ATOM     22  C   UNL     1      11.972  13.869  19.487  0.00  0.00    +0.000 A 
ATOM     23  C   UNL     1      10.706  14.280  19.075  0.00  0.00    +0.000 A 
ATOM     24  C   UNL     1       9.775  13.335  18.627  0.00  0.00    +0.000 A 
ATOM     25 CL   UNL     1       8.209  13.899  18.155  0.00  0.00    +0.000 Cl
ENDBRANCH  17  19
ENDBRANCH  14  16
ENDBRANCH   1  14
TORSDOF 6
ENDMDL
MODEL 6
REMARK VINA RESULT:      -7.2      5.411      7.628
REMARK  Name = 
REMARK  6 active torsions:
REMARK  status: ('A' for Active; 'I' for Inactive)
REMARK    1  A    between atoms: C_2  and  C_3
REMARK    2  A    between atoms: C_3  and  C_4
REMARK    3  A    between atoms: C_4  and  C_5
REMARK    4  A    between atoms: N_8  and  C_9
REMARK    5  A    between atoms: C_9  and  C_10
REMARK    6  A    between atoms: N_17  and  C_18
REMARK                            x       y       z     vdW  Elec       q    Type
REMARK                         _______ _______ _______ _____ _____    ______ ____
ROOT
ATOM      1  C   UNL     1       1.280   4.427  20.352  0.00  0.00    +0.000 C 
ENDROOT
BRANCH   1   2
ATOM      2  C   UNL     1       1.797   2.984  20.146  0.00  0.00    +0.000 C 
ATOM      3  C   UNL     1       3.318   2.888  20.317  0.00  0.00    +0.000 C 
ATOM      4  C   UNL     1       4.082   3.529  19.158  0.00  0.00    +0.000 C 
ATOM      5  N   UNL     1       3.708   2.980  17.846  0.00  0.00    +0.000 NA
ATOM      6  C   UNL     1       2.252   2.978  17.629  0.00  0.00    +0.000 C 
ATOM      7  C   UNL     1       1.455   2.365  18.784  0.00  0.00    +0.000 C 
BRANCH   5   8
ATOM      8  C   UNL     1       4.370   3.715  16.744  0.00  0.00    +0.000 C 
BRANCH   8   9
ATOM      9  C   UNL     1       5.229   4.893  17.209  0.00  0.00    +0.000 C 
ATOM     10  C   UNL     1       6.718   4.684  17.034  0.00  0.00    +0.000 C 
ATOM     11  C   UNL     1       7.237   6.104  17.069  0.00  0.00    +0.000 C 
ATOM     12  O   UNL     1       6.206   6.940  16.524  0.00  0.00    +0.000 OA
ATOM     13  C   UNL     1       5.001   6.166  16.411  0.00  0.00    +0.000 C 
ENDBRANCH   8   9
ENDBRANCH   5   8
ENDBRANCH   1   2
BRANCH   1  14
ATOM     14  C   UNL     1       2.372   5.414  20.797  0.00  0.00    +0.000 C 
BRANCH  14  16
ATOM     15  O   UNL     1       2.738   7.030  19.047  0.00  0.00    +0.000 OA
ATOM     16  C   UNL     1       2.242   6.784  20.146  0.00  0.00    +0.000 C 
ATOM     17  N   UNL     1       1.506   7.672  20.919  0.00  0.00    +0.000 N 
ATOM     18  H   UNL     1       1.341   7.427  21.890  0.00  0.00    +0.000 HD
BRANCH  17  19
ATOM     19  C   UNL     1       1.004   8.938  20.523  0.00  0.00    +0.000 A 
ATOM     20  C   UNL     1       1.185   9.444  19.230  0.00  0.00    +0.000 A 
ATOM     21  C   UNL     1       0.623  10.670  18.851  0.00  0.00    +0.000 A 
ATOM     22  C   UNL     1      -0.138  11.404  19.752  0.00  0.00    +0.000 A 
ATOM     23  C   UNL     1      -0.327  10.924  21.046  0.00  0.00    +0.000 A 
ATOM     24  C   UNL     1       0.238   9.701  21.429  0.00  0.00    +0.000 A 
ATOM     25 CL   UNL     1      -0.006   9.169  23.057  0.00  0.00    +0.000 Cl
ENDBRANCH  17  19
ENDBRANCH  14  16
ENDBRANCH   1  14
TORSDOF 6
ENDMDL
MODEL 7
REMARK VINA RESULT:      -7.2      5.794      7.616
REMARK  Name = 
REMARK  6 active torsions:
REMARK  status: ('A' for Active; 'I' for Inactive)
REMARK    1  A    between atoms: C_2  and  C_3
REMARK    2  A    between atoms: C_3  and  C_4
REMARK    3  A    between atoms: C_4  and  C_5
REMARK    4  A    between atoms: N_8  and  C_9
REMARK    5  A    between atoms: C_9  and  C_10
REMARK    6  A    between atoms: N_17  and  C_18
REMARK                            x       y       z     vdW  Elec       q    Type
REMARK                         _______ _______ _______ _____ _____    ______ ____
ROOT
ATOM      1  C   UNL     1       2.442   4.048  21.040  0.00  0.00    +0.000 C 
ENDROOT
BRANCH   1   2
ATOM      2  C   UNL     1       2.500   2.834  20.083  0.00  0.00    +0.000 C 
ATOM      3  C   UNL     1       3.938   2.485  19.683  0.00  0.00    +0.000 C 
ATOM      4  C   UNL     1       4.547   3.509  18.724  0.00  0.00    +0.000 C 
ATOM      5  N   UNL     1       3.742   3.712  17.509  0.00  0.00    +0.000 NA
ATOM      6  C   UNL     1       2.328   3.990  17.808  0.00  0.00    +0.000 C 
ATOM      7  C   UNL     1       1.695   2.997  18.787  0.00  0.00    +0.000 C 
BRANCH   5   8
ATOM      8  C   UNL     1       4.293   4.802  16.672  0.00  0.00    +0.000 C 
BRANCH   8   9
ATOM      9  C   UNL     1       5.608   4.448  15.975  0.00  0.00    +0.000 C 
ATOM     10  C   UNL     1       5.536   4.472  14.463  0.00  0.00    +0.000 C 
ATOM     11  C   UNL     1       6.995   4.604  14.085  0.00  0.00    +0.000 C 
ATOM     12  O   UNL     1       7.634   5.346  15.134  0.00  0.00    +0.000 OA
ATOM     13  C   UNL     1       6.728   5.439  16.245  0.00  0.00    +0.000 C 
ENDBRANCH   8   9
ENDBRANCH   5   8
ENDBRANCH   1   2
BRANCH   1  14
ATOM     14  C   UNL     1       1.334   5.055  20.688  0.00  0.00    +0.000 C 
BRANCH  14  16
ATOM     15  O   UNL     1       2.966   6.609  19.830  0.00  0.00    +0.000 OA
ATOM     16  C   UNL     1       1.870   6.443  20.365  0.00  0.00    +0.000 C 
ATOM     17  N   UNL     1       0.984   7.451  20.723  0.00  0.00    +0.000 N 
ATOM     18  H   UNL     1       0.222   7.209  21.348  0.00  0.00    +0.000 HD
BRANCH  17  19
ATOM     19  C   UNL     1       1.058   8.822  20.366  0.00  0.00    +0.000 A 
ATOM     20  C   UNL     1       1.321   9.241  19.056  0.00  0.00    +0.000 A 
ATOM     21  C   UNL     1       1.325  10.602  18.722  0.00  0.00    +0.000 A 
ATOM     22  C   UNL     1       1.055  11.564  19.687  0.00  0.00    +0.000 A 
ATOM     23  C   UNL     1       0.796  11.172  20.999  0.00  0.00    +0.000 A 
ATOM     24  C   UNL     1       0.797   9.813  21.335  0.00  0.00    +0.000 A 
ATOM     25 CL   UNL     1       0.498   9.386  22.985  0.00  0.00    +0.000 Cl
ENDBRANCH  17  19
ENDBRANCH  14  16
ENDBRANCH   1  14
TORSDOF 6
ENDMDL
MODEL 8
REMARK VINA RESULT:      -7.2      1.840      2.324
REMARK  Name = 
REMARK  6 active torsions:
REMARK  status: ('A' for Active; 'I' for Inactive)
REMARK    1  A    between atoms: C_2  and  C_3
REMARK    2  A    between atoms: C_3  and  C_4
REMARK    3  A    between atoms: C_4  and  C_5
REMARK    4  A    between atoms: N_8  and  C_9
REMARK    5  A    between atoms: C_9  and  C_10
REMARK    6  A    between atoms: N_17  and  C_18
REMARK                            x       y       z     vdW  Elec       q    Type
REMARK                         _______ _______ _______ _____ _____    ______ ____
ROOT
ATOM      1  C   UNL     1       6.440   6.813  17.578  0.00  0.00    +0.000 C 
ENDROOT
BRANCH   1   2
ATOM      2  C   UNL     1       5.203   6.698  16.655  0.00  0.00    +0.000 C 
ATOM      3  C   UNL     1       3.890   6.797  17.439  0.00  0.00    +0.000 C 
ATOM      4  C   UNL     1       3.612   5.552  18.282  0.00  0.00    +0.000 C 
ATOM      5  N   UNL     1       3.612   4.310  17.494  0.00  0.00    +0.000 NA
ATOM      6  C   UNL     1       4.818   4.170  16.661  0.00  0.00    +0.000 C 
ATOM      7  C   UNL     1       5.138   5.410  15.823  0.00  0.00    +0.000 C 
BRANCH   5   8
ATOM      8  C   UNL     1       3.472   3.119  18.364  0.00  0.00    +0.000 C 
BRANCH   8   9
ATOM      9  C   UNL     1       2.870   3.418  19.738  0.00  0.00    +0.000 C 
ATOM     10  C   UNL     1       1.393   3.108  19.851  0.00  0.00    +0.000 C 
ATOM     11  C   UNL     1       1.212   3.000  21.348  0.00  0.00    +0.000 C 
ATOM     12  O   UNL     1       2.450   2.509  21.885  0.00  0.00    +0.000 OA
ATOM     13  C   UNL     1       3.449   2.568  20.855  0.00  0.00    +0.000 C 
ENDBRANCH   8   9
ENDBRANCH   5   8
ENDBRANCH   1   2
BRANCH   1  14
ATOM     14  C   UNL     1       7.547   7.717  17.011  0.00  0.00    +0.000 C 
BRANCH  14  16
ATOM     15  O   UNL     1       8.711   8.049  19.096  0.00  0.00    +0.000 OA
ATOM     16  C   UNL     1       8.238   8.555  18.078  0.00  0.00    +0.000 C 
ATOM     17  N   UNL     1       8.277   9.904  17.753  0.00  0.00    +0.000 N 
ATOM     18  H   UNL     1       7.670  10.226  17.006  0.00  0.00    +0.000 HD
BRANCH  17  19
ATOM     19  C   UNL     1       9.031  10.918  18.397  0.00  0.00    +0.000 A 
ATOM     20  C   UNL     1      10.067  10.627  19.291  0.00  0.00    +0.000 A 
ATOM     21  C   UNL     1      10.835  11.650  19.863  0.00  0.00    +0.000 A 
ATOM     22  C   UNL     1      10.589  12.978  19.541  0.00  0.00    +0.000 A 
ATOM     23  C   UNL     1       9.560  13.294  18.657  0.00  0.00    +0.000 A 
ATOM     24  C   UNL     1       8.788  12.273  18.089  0.00  0.00    +0.000 A 
ATOM     25 CL   UNL     1       7.504  12.726  17.020  0.00  0.00    +0.000 Cl
ENDBRANCH  17  19
ENDBRANCH  14  16
ENDBRANCH   1  14
TORSDOF 6
ENDMDL
MODEL 9
REMARK VINA RESULT:      -7.1      3.306     10.150
REMARK  Name = 
REMARK  6 active torsions:
REMARK  status: ('A' for Active; 'I' for Inactive)
REMARK    1  A    between atoms: C_2  and  C_3
REMARK    2  A    between atoms: C_3  and  C_4
REMARK    3  A    between atoms: C_4  and  C_5
REMARK    4  A    between atoms: N_8  and  C_9
REMARK    5  A    between atoms: C_9  and  C_10
REMARK    6  A    between atoms: N_17  and  C_18
REMARK                            x       y       z     vdW  Elec       q    Type
REMARK                         _______ _______ _______ _____ _____    ______ ____
ROOT
ATOM      1  C   UNL     1       8.401   9.970  18.565  0.00  0.00    +0.000 C 
ENDROOT
BRANCH   1   2
ATOM      2  C   UNL     1       9.816  10.487  18.915  0.00  0.00    +0.000 C 
ATOM      3  C   UNL     1       9.823  11.311  20.208  0.00  0.00    +0.000 C 
ATOM      4  C   UNL     1       9.160  12.679  20.039  0.00  0.00    +0.000 C 
ATOM      5  N   UNL     1       9.751  13.477  18.954  0.00  0.00    +0.000 NA
ATOM      6  C   UNL     1       9.839  12.731  17.687  0.00  0.00    +0.000 C 
ATOM      7  C   UNL     1      10.475  11.345  17.827  0.00  0.00    +0.000 C 
BRANCH   5   8
ATOM      8  C   UNL     1       8.998  14.733  18.736  0.00  0.00    +0.000 C 
BRANCH   8   9
ATOM      9  C   UNL     1       9.882  15.977  18.621  0.00  0.00    +0.000 C 
ATOM     10  C   UNL     1      11.294  15.786  19.130  0.00  0.00    +0.000 C 
ATOM     11  C   UNL     1      12.026  16.919  18.446  0.00  0.00    +0.000 C 
ATOM     12  O   UNL     1      11.366  17.148  17.192  0.00  0.00    +0.000 OA
ATOM     13  C   UNL     1      10.129  16.419  17.188  0.00  0.00    +0.000 C 
ENDBRANCH   8   9
ENDBRANCH   5   8
ENDBRANCH   1   2
BRANCH   1  14
ATOM     14  C   UNL     1       8.384   8.965  17.402  0.00  0.00    +0.000 C 
BRANCH  14  16
ATOM     15  O   UNL     1       8.067   6.947  18.682  0.00  0.00    +0.000 OA
ATOM     16  C   UNL     1       7.686   7.657  17.752  0.00  0.00    +0.000 C 
ATOM     17  N   UNL     1       6.600   7.397  16.928  0.00  0.00    +0.000 N 
ATOM     18  H   UNL     1       6.520   7.934  16.070  0.00  0.00    +0.000 HD
BRANCH  17  19
ATOM     19  C   UNL     1       5.605   6.403  17.112  0.00  0.00    +0.000 A 
ATOM     20  C   UNL     1       4.399   6.665  17.773  0.00  0.00    +0.000 A 
ATOM     21  C   UNL     1       3.409   5.679  17.884  0.00  0.00    +0.000 A 
ATOM     22  C   UNL     1       3.602   4.423  17.325  0.00  0.00    +0.000 A 
ATOM     23  C   UNL     1       4.796   4.137  16.666  0.00  0.00    +0.000 A 
ATOM     24  C   UNL     1       5.789   5.118  16.559  0.00  0.00    +0.000 A 
ATOM     25 CL   UNL     1       7.262   4.698  15.756  0.00  0.00    +0.000 Cl
ENDBRANCH  17  19
ENDBRANCH  14  16
ENDBRANCH   1  14
TORSDOF 6
ENDMDL
