MODEL 1
REMARK VINA RESULT:      -7.2      0.000      0.000
REMARK  Name = 
REMARK  15 active torsions:
REMARK  status: ('A' for Active; 'I' for Inactive)
REMARK    1  A    between atoms: C_1  and  O_2
REMARK    2  A    between atoms: O_2  and  C_3
REMARK    3  A    between atoms: C_6  and  C_7
REMARK    4  A    between atoms: C_7  and  C_9
REMARK    5  A    between atoms: C_9  and  C_10
REMARK    6  A    between atoms: C_10  and  S_11
REMARK    7  A    between atoms: C_10  and  C_21
REMARK    8  A    between atoms: S_11  and  C_12
REMARK    9  A    between atoms: C_12  and  C_13
REMARK   10  A    between atoms: C_13  and  N_14
REMARK   11  A    between atoms: C_13  and  C_18
REMARK   12  A    between atoms: C_15  and  C_16
REMARK   13  A    between atoms: C_18  and  O_20
REMARK   14  A    between atoms: C_29  and  O_30
REMARK   15  A    between atoms: O_30  and  C_31
REMARK                            x       y       z     vdW  Elec       q    Type
REMARK                         _______ _______ _______ _____ _____    ______ ____
ROOT
ATOM      1  C   UNK A   1       2.502   6.319  18.019  0.00  0.00    +0.000 C 
ENDROOT
BRANCH   1   2
ATOM      2  C   UNK A   1       2.155   5.281  19.079  0.00  0.00    +0.000 A 
ATOM      3  C   UNK A   1       1.359   4.173  18.748  0.00  0.00    +0.000 A 
ATOM      4  C   UNK A   1       1.051   3.207  19.712  0.00  0.00    +0.000 A 
ATOM      5  C   UNK A   1       1.528   3.344  21.013  0.00  0.00    +0.000 A 
ATOM      6 CL   UNK A   1       1.163   2.146  22.193  0.00  0.00    +0.000 Cl
ATOM      7  C   UNK A   1       2.301   4.445  21.365  0.00  0.00    +0.000 A 
ATOM      8  C   UNK A   1       2.610   5.409  20.405  0.00  0.00    +0.000 A 
ENDBRANCH   1   2
BRANCH   1   9
ATOM      9  C   UNK A   1       2.892   7.642  18.691  0.00  0.00    +0.000 C 
BRANCH   9  10
ATOM     10  C   UNK A   1       1.899   8.744  18.389  0.00  0.00    +0.000 C 
ATOM     11  O   UNK A   1       1.647   9.129  17.252  0.00  0.00    +0.000 OA
BRANCH  10  15
ATOM     12  C   UNK A   1       0.129  10.610  21.806  0.00  0.00    +0.000 A 
ATOM     13  C   UNK A   1       0.499   9.255  21.840  0.00  0.00    +0.000 A 
ATOM     14  C   UNK A   1       1.053   8.640  20.719  0.00  0.00    +0.000 A 
ATOM     15  C   UNK A   1       1.182   9.361  19.535  0.00  0.00    +0.000 A 
ATOM     16  C   UNK A   1       0.693  10.666  19.460  0.00  0.00    +0.000 A 
ATOM     17  C   UNK A   1       0.165  11.305  20.589  0.00  0.00    +0.000 A 
BRANCH  12  19
ATOM     18  C   UNK A   1      -1.687  11.260  23.152  0.00  0.00    +0.000 C 
ATOM     19  O   UNK A   1      -0.270  11.243  22.953  0.00  0.00    +0.000 OA
ENDBRANCH  12  19
BRANCH  17  20
ATOM     20  O   UNK A   1      -0.217  12.587  20.306  0.00  0.00    +0.000 OA
ATOM     21  C   UNK A   1      -1.046  12.833  19.180  0.00  0.00    +0.000 C 
ENDBRANCH  17  20
ENDBRANCH  10  15
ENDBRANCH   9  10
ENDBRANCH   1   9
BRANCH   1  22
ATOM     22  S   UNK A   1       3.877   5.740  16.920  0.00  0.00    +0.000 S 
BRANCH  22  23
ATOM     23  C   UNK A   1       5.311   5.888  18.046  0.00  0.00    +0.000 C 
BRANCH  23  24
ATOM     24  C   UNK A   1       5.964   4.557  18.465  0.00  0.00    +0.000 C 
BRANCH  24  25
ATOM     25  N   UNK A   1       5.161   3.393  18.055  0.00  0.00    +0.000 N 
ATOM     26  C   UNK A   0       4.643   2.515  18.972  0.00  0.00    +0.000 C 
ATOM     27  C   UNK A   0       3.805   1.403  18.404  0.00  0.00    +0.000 C 
ATOM     28  O   UNK A   0       4.935   2.585  20.164  0.00  0.00    +0.000 OA
ATOM     29  H   UNK A   1       4.635   3.500  17.192  0.00  0.00    +0.000 HD
ENDBRANCH  24  25
BRANCH  24  30
ATOM     30  C   UNK A   1       7.391   4.538  17.872  0.00  0.00    +0.000 C 
ATOM     31  O   UNK A   1       8.409   4.374  18.533  0.00  0.00    +0.000 OA
BRANCH  30  32
ATOM     32  O   UNK A   1       7.442   4.616  16.522  0.00  0.00    +0.000 OA
ATOM     33  H   UNK A   1       8.109   4.004  16.119  0.00  0.00    +0.000 HD
ENDBRANCH  30  32
ENDBRANCH  24  30
ENDBRANCH  23  24
ENDBRANCH  22  23
ENDBRANCH   1  22
TORSDOF 12
ENDMDL
MODEL 2
REMARK VINA RESULT:      -7.2      2.203      2.987
REMARK  Name = 
REMARK  15 active torsions:
REMARK  status: ('A' for Active; 'I' for Inactive)
REMARK    1  A    between atoms: C_1  and  O_2
REMARK    2  A    between atoms: O_2  and  C_3
REMARK    3  A    between atoms: C_6  and  C_7
REMARK    4  A    between atoms: C_7  and  C_9
REMARK    5  A    between atoms: C_9  and  C_10
REMARK    6  A    between atoms: C_10  and  S_11
REMARK    7  A    between atoms: C_10  and  C_21
REMARK    8  A    between atoms: S_11  and  C_12
REMARK    9  A    between atoms: C_12  and  C_13
REMARK   10  A    between atoms: C_13  and  N_14
REMARK   11  A    between atoms: C_13  and  C_18
REMARK   12  A    between atoms: C_15  and  C_16
REMARK   13  A    between atoms: C_18  and  O_20
REMARK   14  A    between atoms: C_29  and  O_30
REMARK   15  A    between atoms: O_30  and  C_31
REMARK                            x       y       z     vdW  Elec       q    Type
REMARK                         _______ _______ _______ _____ _____    ______ ____
ROOT
ATOM      1  C   UNK A   1       3.455   4.895  17.866  0.00  0.00    +0.000 C 
ENDROOT
BRANCH   1   2
ATOM      2  C   UNK A   1       2.781   4.183  19.033  0.00  0.00    +0.000 A 
ATOM      3  C   UNK A   1       3.547   3.427  19.936  0.00  0.00    +0.000 A 
ATOM      4  C   UNK A   1       2.938   2.785  21.019  0.00  0.00    +0.000 A 
ATOM      5  C   UNK A   1       1.561   2.885  21.204  0.00  0.00    +0.000 A 
ATOM      6 CL   UNK A   1       0.815   2.109  22.546  0.00  0.00    +0.000 Cl
ATOM      7  C   UNK A   1       0.784   3.612  20.308  0.00  0.00    +0.000 A 
ATOM      8  C   UNK A   1       1.390   4.255  19.228  0.00  0.00    +0.000 A 
ENDBRANCH   1   2
BRANCH   1   9
ATOM      9  C   UNK A   1       4.012   6.248  18.330  0.00  0.00    +0.000 C 
BRANCH   9  10
ATOM     10  C   UNK A   1       3.183   7.406  17.816  0.00  0.00    +0.000 C 
ATOM     11  O   UNK A   1       3.251   7.822  16.664  0.00  0.00    +0.000 OA
BRANCH  10  15
ATOM     12  C   UNK A   1       0.682   9.398  20.657  0.00  0.00    +0.000 A 
ATOM     13  C   UNK A   1       1.269   8.158  20.962  0.00  0.00    +0.000 A 
ATOM     14  C   UNK A   1       2.064   7.496  20.028  0.00  0.00    +0.000 A 
ATOM     15  C   UNK A   1       2.226   8.042  18.757  0.00  0.00    +0.000 A 
ATOM     16  C   UNK A   1       1.537   9.204  18.407  0.00  0.00    +0.000 A 
ATOM     17  C   UNK A   1       0.762   9.895  19.348  0.00  0.00    +0.000 A 
BRANCH  12  19
ATOM     18  C   UNK A   1      -0.081   9.426  22.882  0.00  0.00    +0.000 C 
ATOM     19  O   UNK A   1       0.032  10.109  21.629  0.00  0.00    +0.000 OA
ENDBRANCH  12  19
BRANCH  17  20
ATOM     20  O   UNK A   1       0.209  11.024  18.810  0.00  0.00    +0.000 OA
ATOM     21  C   UNK A   1       0.901  12.258  18.922  0.00  0.00    +0.000 C 
ENDBRANCH  17  20
ENDBRANCH  10  15
ENDBRANCH   9  10
ENDBRANCH   1   9
BRANCH   1  22
ATOM     22  S   UNK A   1       4.815   3.871  17.133  0.00  0.00    +0.000 S 
BRANCH  22  23
ATOM     23  C   UNK A   1       5.044   4.699  15.518  0.00  0.00    +0.000 C 
BRANCH  23  24
ATOM     24  C   UNK A   1       6.316   5.559  15.388  0.00  0.00    +0.000 C 
BRANCH  24  25
ATOM     25  N   UNK A   1       7.095   5.587  16.637  0.00  0.00    +0.000 N 
ATOM     26  C   UNK A   0       7.337   6.757  17.309  0.00  0.00    +0.000 C 
ATOM     27  C   UNK A   0       8.107   6.621  18.594  0.00  0.00    +0.000 C 
ATOM     28  O   UNK A   0       7.030   7.848  16.831  0.00  0.00    +0.000 OA
ATOM     29  H   UNK A   1       7.049   4.746  17.207  0.00  0.00    +0.000 HD
ENDBRANCH  24  25
BRANCH  24  30
ATOM     30  C   UNK A   1       7.124   5.007  14.191  0.00  0.00    +0.000 C 
ATOM     31  O   UNK A   1       6.741   4.101  13.462  0.00  0.00    +0.000 OA
BRANCH  30  32
ATOM     32  O   UNK A   1       8.272   5.674  13.930  0.00  0.00    +0.000 OA
ATOM     33  H   UNK A   1       8.814   5.255  13.216  0.00  0.00    +0.000 HD
ENDBRANCH  30  32
ENDBRANCH  24  30
ENDBRANCH  23  24
ENDBRANCH  22  23
ENDBRANCH   1  22
TORSDOF 12
ENDMDL
MODEL 3
REMARK VINA RESULT:      -7.1      1.729      2.474
REMARK  Name = 
REMARK  15 active torsions:
REMARK  status: ('A' for Active; 'I' for Inactive)
REMARK    1  A    between atoms: C_1  and  O_2
REMARK    2  A    between atoms: O_2  and  C_3
REMARK    3  A    between atoms: C_6  and  C_7
REMARK    4  A    between atoms: C_7  and  C_9
REMARK    5  A    between atoms: C_9  and  C_10
REMARK    6  A    between atoms: C_10  and  S_11
REMARK    7  A    between atoms: C_10  and  C_21
REMARK    8  A    between atoms: S_11  and  C_12
REMARK    9  A    between atoms: C_12  and  C_13
REMARK   10  A    between atoms: C_13  and  N_14
REMARK   11  A    between atoms: C_13  and  C_18
REMARK   12  A    between atoms: C_15  and  C_16
REMARK   13  A    between atoms: C_18  and  O_20
REMARK   14  A    between atoms: C_29  and  O_30
REMARK   15  A    between atoms: O_30  and  C_31
REMARK                            x       y       z     vdW  Elec       q    Type
REMARK                         _______ _______ _______ _____ _____    ______ ____
ROOT
ATOM      1  C   UNK A   1       2.704   5.933  18.028  0.00  0.00    +0.000 C 
ENDROOT
BRANCH   1   2
ATOM      2  C   UNK A   1       2.282   4.952  19.114  0.00  0.00    +0.000 A 
ATOM      3  C   UNK A   1       2.805   5.068  20.413  0.00  0.00    +0.000 A 
ATOM      4  C   UNK A   1       2.408   4.181  21.420  0.00  0.00    +0.000 A 
ATOM      5  C   UNK A   1       1.495   3.169  21.136  0.00  0.00    +0.000 A 
ATOM      6 CL   UNK A   1       0.994   2.090  22.380  0.00  0.00    +0.000 Cl
ATOM      7  C   UNK A   1       0.982   3.025  19.852  0.00  0.00    +0.000 A 
ATOM      8  C   UNK A   1       1.375   3.910  18.846  0.00  0.00    +0.000 A 
ENDBRANCH   1   2
BRANCH   1   9
ATOM      9  C   UNK A   1       3.105   7.273  18.659  0.00  0.00    +0.000 C 
BRANCH   9  10
ATOM     10  C   UNK A   1       2.102   8.364  18.353  0.00  0.00    +0.000 C 
ATOM     11  O   UNK A   1       1.828   8.724  17.212  0.00  0.00    +0.000 OA
BRANCH  10  15
ATOM     12  C   UNK A   1       0.386  10.294  21.762  0.00  0.00    +0.000 A 
ATOM     13  C   UNK A   1       0.751   8.938  21.813  0.00  0.00    +0.000 A 
ATOM     14  C   UNK A   1       1.287   8.302  20.695  0.00  0.00    +0.000 A 
ATOM     15  C   UNK A   1       1.403   9.004  19.497  0.00  0.00    +0.000 A 
ATOM     16  C   UNK A   1       0.919  10.309  19.408  0.00  0.00    +0.000 A 
ATOM     17  C   UNK A   1       0.409  10.969  20.533  0.00  0.00    +0.000 A 
BRANCH  12  19
ATOM     18  C   UNK A   1      -1.406  10.943  23.140  0.00  0.00    +0.000 C 
ATOM     19  O   UNK A   1       0.006  10.947  22.903  0.00  0.00    +0.000 OA
ENDBRANCH  12  19
BRANCH  17  20
ATOM     20  O   UNK A   1       0.029  12.248  20.235  0.00  0.00    +0.000 OA
ATOM     21  C   UNK A   1       0.815  13.334  20.702  0.00  0.00    +0.000 C 
ENDBRANCH  17  20
ENDBRANCH  10  15
ENDBRANCH   9  10
ENDBRANCH   1   9
BRANCH   1  22
ATOM     22  S   UNK A   1       4.107   5.269  17.015  0.00  0.00    +0.000 S 
BRANCH  22  23
ATOM     23  C   UNK A   1       5.383   6.549  17.303  0.00  0.00    +0.000 C 
BRANCH  23  24
ATOM     24  C   UNK A   1       6.837   6.102  17.060  0.00  0.00    +0.000 C 
BRANCH  24  25
ATOM     25  N   UNK A   1       7.142   5.965  15.626  0.00  0.00    +0.000 N 
ATOM     26  C   UNK A   0       7.019   4.764  14.975  0.00  0.00    +0.000 C 
ATOM     27  C   UNK A   0       7.320   4.791  13.502  0.00  0.00    +0.000 C 
ATOM     28  O   UNK A   0       6.778   3.725  15.585  0.00  0.00    +0.000 OA
ATOM     29  H   UNK A   1       6.996   6.797  15.060  0.00  0.00    +0.000 HD
ENDBRANCH  24  25
BRANCH  24  30
ATOM     30  C   UNK A   1       7.756   7.121  17.772  0.00  0.00    +0.000 C 
ATOM     31  O   UNK A   1       8.001   8.242  17.344  0.00  0.00    +0.000 OA
BRANCH  30  32
ATOM     32  O   UNK A   1       8.208   6.724  18.983  0.00  0.00    +0.000 OA
ATOM     33  H   UNK A   1       8.485   7.475  19.565  0.00  0.00    +0.000 HD
ENDBRANCH  30  32
ENDBRANCH  24  30
ENDBRANCH  23  24
ENDBRANCH  22  23
ENDBRANCH   1  22
TORSDOF 12
ENDMDL
MODEL 4
REMARK VINA RESULT:      -6.9      2.085      2.926
REMARK  Name = 
REMARK  15 active torsions:
REMARK  status: ('A' for Active; 'I' for Inactive)
REMARK    1  A    between atoms: C_1  and  O_2
REMARK    2  A    between atoms: O_2  and  C_3
REMARK    3  A    between atoms: C_6  and  C_7
REMARK    4  A    between atoms: C_7  and  C_9
REMARK    5  A    between atoms: C_9  and  C_10
REMARK    6  A    between atoms: C_10  and  S_11
REMARK    7  A    between atoms: C_10  and  C_21
REMARK    8  A    between atoms: S_11  and  C_12
REMARK    9  A    between atoms: C_12  and  C_13
REMARK   10  A    between atoms: C_13  and  N_14
REMARK   11  A    between atoms: C_13  and  C_18
REMARK   12  A    between atoms: C_15  and  C_16
REMARK   13  A    between atoms: C_18  and  O_20
REMARK   14  A    between atoms: C_29  and  O_30
REMARK   15  A    between atoms: O_30  and  C_31
REMARK                            x       y       z     vdW  Elec       q    Type
REMARK                         _______ _______ _______ _____ _____    ______ ____
ROOT
ATOM      1  C   UNK A   1       3.044   4.809  17.940  0.00  0.00    +0.000 C 
ENDROOT
BRANCH   1   2
ATOM      2  C   UNK A   1       2.477   4.074  19.149  0.00  0.00    +0.000 A 
ATOM      3  C   UNK A   1       3.341   3.502  20.096  0.00  0.00    +0.000 A 
ATOM      4  C   UNK A   1       2.828   2.841  21.217  0.00  0.00    +0.000 A 
ATOM      5  C   UNK A   1       1.451   2.738  21.396  0.00  0.00    +0.000 A 
ATOM      6 CL   UNK A   1       0.821   1.940  22.784  0.00  0.00    +0.000 Cl
ATOM      7  C   UNK A   1       0.579   3.281  20.458  0.00  0.00    +0.000 A 
ATOM      8  C   UNK A   1       1.089   3.942  19.339  0.00  0.00    +0.000 A 
ENDBRANCH   1   2
BRANCH   1   9
ATOM      9  C   UNK A   1       3.793   6.068  18.397  0.00  0.00    +0.000 C 
BRANCH   9  10
ATOM     10  C   UNK A   1       3.098   7.334  17.948  0.00  0.00    +0.000 C 
ATOM     11  O   UNK A   1       3.263   7.835  16.840  0.00  0.00    +0.000 OA
BRANCH  10  15
ATOM     12  C   UNK A   1       0.620   9.369  20.779  0.00  0.00    +0.000 A 
ATOM     13  C   UNK A   1       1.305   8.196  21.138  0.00  0.00    +0.000 A 
ATOM     14  C   UNK A   1       2.093   7.518  20.209  0.00  0.00    +0.000 A 
ATOM     15  C   UNK A   1       2.150   7.977  18.894  0.00  0.00    +0.000 A 
ATOM     16  C   UNK A   1       1.366   9.062  18.503  0.00  0.00    +0.000 A 
ATOM     17  C   UNK A   1       0.596   9.770  19.436  0.00  0.00    +0.000 A 
BRANCH  12  19
ATOM     18  C   UNK A   1      -0.485   9.347  22.855  0.00  0.00    +0.000 C 
ATOM     19  O   UNK A   1      -0.025  10.108  21.733  0.00  0.00    +0.000 OA
ENDBRANCH  12  19
BRANCH  17  20
ATOM     20  O   UNK A   1      -0.060  10.818  18.851  0.00  0.00    +0.000 OA
ATOM     21  C   UNK A   1      -1.134  10.556  17.961  0.00  0.00    +0.000 C 
ENDBRANCH  17  20
ENDBRANCH  10  15
ENDBRANCH   9  10
ENDBRANCH   1   9
BRANCH   1  22
ATOM     22  S   UNK A   1       4.175   3.726  16.950  0.00  0.00    +0.000 S 
BRANCH  22  23
ATOM     23  C   UNK A   1       5.811   4.353  17.479  0.00  0.00    +0.000 C 
BRANCH  23  24
ATOM     24  C   UNK A   1       6.753   4.791  16.341  0.00  0.00    +0.000 C 
BRANCH  24  25
ATOM     25  N   UNK A   1       6.366   4.205  15.046  0.00  0.00    +0.000 N 
ATOM     26  C   UNK A   0       7.022   4.524  13.885  0.00  0.00    +0.000 C 
ATOM     27  C   UNK A   0       6.544   3.810  12.652  0.00  0.00    +0.000 C 
ATOM     28  O   UNK A   0       7.874   5.411  13.852  0.00  0.00    +0.000 OA
ATOM     29  H   UNK A   1       5.954   3.276  15.085  0.00  0.00    +0.000 HD
ENDBRANCH  24  25
BRANCH  24  30
ATOM     30  C   UNK A   1       6.760   6.336  16.319  0.00  0.00    +0.000 C 
ATOM     31  O   UNK A   1       7.663   7.026  16.776  0.00  0.00    +0.000 OA
BRANCH  30  32
ATOM     32  O   UNK A   1       5.724   6.896  15.655  0.00  0.00    +0.000 OA
ATOM     33  H   UNK A   1       5.996   7.636  15.055  0.00  0.00    +0.000 HD
ENDBRANCH  30  32
ENDBRANCH  24  30
ENDBRANCH  23  24
ENDBRANCH  22  23
ENDBRANCH   1  22
TORSDOF 12
ENDMDL
MODEL 5
REMARK VINA RESULT:      -6.8      1.225      1.799
REMARK  Name = 
REMARK  15 active torsions:
REMARK  status: ('A' for Active; 'I' for Inactive)
REMARK    1  A    between atoms: C_1  and  O_2
REMARK    2  A    between atoms: O_2  and  C_3
REMARK    3  A    between atoms: C_6  and  C_7
REMARK    4  A    between atoms: C_7  and  C_9
REMARK    5  A    between atoms: C_9  and  C_10
REMARK    6  A    between atoms: C_10  and  S_11
REMARK    7  A    between atoms: C_10  and  C_21
REMARK    8  A    between atoms: S_11  and  C_12
REMARK    9  A    between atoms: C_12  and  C_13
REMARK   10  A    between atoms: C_13  and  N_14
REMARK   11  A    between atoms: C_13  and  C_18
REMARK   12  A    between atoms: C_15  and  C_16
REMARK   13  A    between atoms: C_18  and  O_20
REMARK   14  A    between atoms: C_29  and  O_30
REMARK   15  A    between atoms: O_30  and  C_31
REMARK                            x       y       z     vdW  Elec       q    Type
REMARK                         _______ _______ _______ _____ _____    ______ ____
ROOT
ATOM      1  C   UNK A   1       2.570   6.638  17.942  0.00  0.00    +0.000 C 
ENDROOT
BRANCH   1   2
ATOM      2  C   UNK A   1       2.250   5.525  18.933  0.00  0.00    +0.000 A 
ATOM      3  C   UNK A   1       1.772   4.287  18.473  0.00  0.00    +0.000 A 
ATOM      4  C   UNK A   1       1.492   3.255  19.375  0.00  0.00    +0.000 A 
ATOM      5  C   UNK A   1       1.679   3.454  20.741  0.00  0.00    +0.000 A 
ATOM      6 CL   UNK A   1       1.351   2.178  21.848  0.00  0.00    +0.000 Cl
ATOM      7  C   UNK A   1       2.131   4.680  21.217  0.00  0.00    +0.000 A 
ATOM      8  C   UNK A   1       2.413   5.710  20.318  0.00  0.00    +0.000 A 
ENDBRANCH   1   2
BRANCH   1   9
ATOM      9  C   UNK A   1       2.836   7.948  18.695  0.00  0.00    +0.000 C 
BRANCH   9  10
ATOM     10  C   UNK A   1       1.756   8.976  18.439  0.00  0.00    +0.000 C 
ATOM     11  O   UNK A   1       1.445   9.360  17.316  0.00  0.00    +0.000 OA
BRANCH  10  15
ATOM     12  C   UNK A   1      -0.060  10.644  21.934  0.00  0.00    +0.000 A 
ATOM     13  C   UNK A   1       0.409   9.320  21.932  0.00  0.00    +0.000 A 
ATOM     14  C   UNK A   1       0.979   8.767  20.786  0.00  0.00    +0.000 A 
ATOM     15  C   UNK A   1       1.024   9.518  19.613  0.00  0.00    +0.000 A 
ATOM     16  C   UNK A   1       0.439  10.784  19.576  0.00  0.00    +0.000 A 
ATOM     17  C   UNK A   1      -0.107  11.362  20.730  0.00  0.00    +0.000 A 
BRANCH  12  19
ATOM     18  C   UNK A   1      -1.878  11.511  23.150  0.00  0.00    +0.000 C 
ATOM     19  O   UNK A   1      -0.476  11.225  23.101  0.00  0.00    +0.000 OA
ENDBRANCH  12  19
BRANCH  17  20
ATOM     20  O   UNK A   1      -0.589  12.617  20.482  0.00  0.00    +0.000 OA
ATOM     21  C   UNK A   1      -1.003  12.955  19.167  0.00  0.00    +0.000 C 
ENDBRANCH  17  20
ENDBRANCH  10  15
ENDBRANCH   9  10
ENDBRANCH   1   9
BRANCH   1  22
ATOM     22  S   UNK A   1       4.030   6.211  16.884  0.00  0.00    +0.000 S 
BRANCH  22  23
ATOM     23  C   UNK A   1       5.290   5.839  18.158  0.00  0.00    +0.000 C 
BRANCH  23  24
ATOM     24  C   UNK A   1       6.129   4.571  17.912  0.00  0.00    +0.000 C 
BRANCH  24  25
ATOM     25  N   UNK A   1       5.975   4.064  16.538  0.00  0.00    +0.000 N 
ATOM     26  C   UNK A   0       6.666   4.611  15.486  0.00  0.00    +0.000 C 
ATOM     27  C   UNK A   0       6.440   3.956  14.152  0.00  0.00    +0.000 C 
ATOM     28  O   UNK A   0       7.340   5.630  15.622  0.00  0.00    +0.000 OA
ATOM     29  H   UNK A   1       5.738   3.079  16.452  0.00  0.00    +0.000 HD
ENDBRANCH  24  25
BRANCH  24  30
ATOM     30  C   UNK A   1       7.594   4.913  18.263  0.00  0.00    +0.000 C 
ATOM     31  O   UNK A   1       7.932   5.871  18.948  0.00  0.00    +0.000 OA
BRANCH  30  32
ATOM     32  O   UNK A   1       8.503   4.006  17.837  0.00  0.00    +0.000 OA
ATOM     33  H   UNK A   1       8.172   3.436  17.098  0.00  0.00    +0.000 HD
ENDBRANCH  30  32
ENDBRANCH  24  30
ENDBRANCH  23  24
ENDBRANCH  22  23
ENDBRANCH   1  22
TORSDOF 12
ENDMDL
MODEL 6
REMARK VINA RESULT:      -6.7      1.450      2.346
REMARK  Name = 
REMARK  15 active torsions:
REMARK  status: ('A' for Active; 'I' for Inactive)
REMARK    1  A    between atoms: C_1  and  O_2
REMARK    2  A    between atoms: O_2  and  C_3
REMARK    3  A    between atoms: C_6  and  C_7
REMARK    4  A    between atoms: C_7  and  C_9
REMARK    5  A    between atoms: C_9  and  C_10
REMARK    6  A    between atoms: C_10  and  S_11
REMARK    7  A    between atoms: C_10  and  C_21
REMARK    8  A    between atoms: S_11  and  C_12
REMARK    9  A    between atoms: C_12  and  C_13
REMARK   10  A    between atoms: C_13  and  N_14
REMARK   11  A    between atoms: C_13  and  C_18
REMARK   12  A    between atoms: C_15  and  C_16
REMARK   13  A    between atoms: C_18  and  O_20
REMARK   14  A    between atoms: C_29  and  O_30
REMARK   15  A    between atoms: O_30  and  C_31
REMARK                            x       y       z     vdW  Elec       q    Type
REMARK                         _______ _______ _______ _____ _____    ______ ____
ROOT
ATOM      1  C   UNK A   1       2.851   7.533  17.703  0.00  0.00    +0.000 C 
ENDROOT
BRANCH   1   2
ATOM      2  C   UNK A   1       2.387   6.345  18.536  0.00  0.00    +0.000 A 
ATOM      3  C   UNK A   1       2.454   6.396  19.938  0.00  0.00    +0.000 A 
ATOM      4  C   UNK A   1       2.013   5.316  20.709  0.00  0.00    +0.000 A 
ATOM      5  C   UNK A   1       1.510   4.175  20.088  0.00  0.00    +0.000 A 
ATOM      6 CL   UNK A   1       0.952   2.854  21.039  0.00  0.00    +0.000 Cl
ATOM      7  C   UNK A   1       1.455   4.097  18.701  0.00  0.00    +0.000 A 
ATOM      8  C   UNK A   1       1.893   5.175  17.929  0.00  0.00    +0.000 A 
ENDBRANCH   1   2
BRANCH   1   9
ATOM      9  C   UNK A   1       2.475   8.844  18.405  0.00  0.00    +0.000 C 
BRANCH   9  10
ATOM     10  C   UNK A   1       1.046   9.251  18.114  0.00  0.00    +0.000 C 
ATOM     11  O   UNK A   1       0.420   8.854  17.137  0.00  0.00    +0.000 OA
BRANCH  10  15
ATOM     12  C   UNK A   1      -1.134  11.626  20.924  0.00  0.00    +0.000 A 
ATOM     13  C   UNK A   1      -1.351  11.769  19.543  0.00  0.00    +0.000 A 
ATOM     14  C   UNK A   1      -0.623  11.013  18.626  0.00  0.00    +0.000 A 
ATOM     15  C   UNK A   1       0.373  10.153  19.083  0.00  0.00    +0.000 A 
ATOM     16  C   UNK A   1       0.681  10.109  20.443  0.00  0.00    +0.000 A 
ATOM     17  C   UNK A   1      -0.065  10.839  21.377  0.00  0.00    +0.000 A 
BRANCH  12  19
ATOM     18  C   UNK A   1      -1.501  13.554  22.222  0.00  0.00    +0.000 C 
ATOM     19  O   UNK A   1      -1.955  12.257  21.819  0.00  0.00    +0.000 OA
ENDBRANCH  12  19
BRANCH  17  20
ATOM     20  O   UNK A   1       0.377  10.621  22.653  0.00  0.00    +0.000 OA
ATOM     21  C   UNK A   1      -0.077   9.477  23.360  0.00  0.00    +0.000 C 
ENDBRANCH  17  20
ENDBRANCH  10  15
ENDBRANCH   9  10
ENDBRANCH   1   9
BRANCH   1  22
ATOM     22  S   UNK A   1       4.679   7.482  17.400  0.00  0.00    +0.000 S 
BRANCH  22  23
ATOM     23  C   UNK A   1       4.829   5.945  16.418  0.00  0.00    +0.000 C 
BRANCH  23  24
ATOM     24  C   UNK A   1       5.910   4.957  16.895  0.00  0.00    +0.000 C 
BRANCH  24  25
ATOM     25  N   UNK A   1       5.341   3.849  17.680  0.00  0.00    +0.000 N 
ATOM     26  C   UNK A   0       5.254   3.904  19.048  0.00  0.00    +0.000 C 
ATOM     27  C   UNK A   0       4.606   2.718  19.705  0.00  0.00    +0.000 C 
ATOM     28  O   UNK A   0       5.767   4.821  19.687  0.00  0.00    +0.000 OA
ATOM     29  H   UNK A   1       4.632   3.291  17.210  0.00  0.00    +0.000 HD
ENDBRANCH  24  25
BRANCH  24  30
ATOM     30  C   UNK A   1       6.673   4.471  15.642  0.00  0.00    +0.000 C 
ATOM     31  O   UNK A   1       7.551   5.113  15.079  0.00  0.00    +0.000 OA
BRANCH  30  32
ATOM     32  O   UNK A   1       6.372   3.211  15.251  0.00  0.00    +0.000 OA
ATOM     33  H   UNK A   1       6.476   3.067  14.277  0.00  0.00    +0.000 HD
ENDBRANCH  30  32
ENDBRANCH  24  30
ENDBRANCH  23  24
ENDBRANCH  22  23
ENDBRANCH   1  22
TORSDOF 12
ENDMDL
MODEL 7
REMARK VINA RESULT:      -6.7      1.594      2.756
REMARK  Name = 
REMARK  15 active torsions:
REMARK  status: ('A' for Active; 'I' for Inactive)
REMARK    1  A    between atoms: C_1  and  O_2
REMARK    2  A    between atoms: O_2  and  C_3
REMARK    3  A    between atoms: C_6  and  C_7
REMARK    4  A    between atoms: C_7  and  C_9
REMARK    5  A    between atoms: C_9  and  C_10
REMARK    6  A    between atoms: C_10  and  S_11
REMARK    7  A    between atoms: C_10  and  C_21
REMARK    8  A    between atoms: S_11  and  C_12
REMARK    9  A    between atoms: C_12  and  C_13
REMARK   10  A    between atoms: C_13  and  N_14
REMARK   11  A    between atoms: C_13  and  C_18
REMARK   12  A    between atoms: C_15  and  C_16
REMARK   13  A    between atoms: C_18  and  O_20
REMARK   14  A    between atoms: C_29  and  O_30
REMARK   15  A    between atoms: O_30  and  C_31
REMARK                            x       y       z     vdW  Elec       q    Type
REMARK                         _______ _______ _______ _____ _____    ______ ____
ROOT
ATOM      1  C   UNK A   1       2.361   6.624  18.373  0.00  0.00    +0.000 C 
ENDROOT
BRANCH   1   2
ATOM      2  C   UNK A   1       2.067   5.474  19.328  0.00  0.00    +0.000 A 
ATOM      3  C   UNK A   1       1.280   4.390  18.908  0.00  0.00    +0.000 A 
ATOM      4  C   UNK A   1       1.021   3.322  19.774  0.00  0.00    +0.000 A 
ATOM      5  C   UNK A   1       1.537   3.333  21.067  0.00  0.00    +0.000 A 
ATOM      6 CL   UNK A   1       1.233   2.012  22.126  0.00  0.00    +0.000 Cl
ATOM      7  C   UNK A   1       2.302   4.408  21.509  0.00  0.00    +0.000 A 
ATOM      8  C   UNK A   1       2.563   5.474  20.645  0.00  0.00    +0.000 A 
ENDBRANCH   1   2
BRANCH   1   9
ATOM      9  C   UNK A   1       2.228   7.964  19.109  0.00  0.00    +0.000 C 
BRANCH   9  10
ATOM     10  C   UNK A   1       1.641   9.040  18.223  0.00  0.00    +0.000 C 
ATOM     11  O   UNK A   1       2.062   9.289  17.098  0.00  0.00    +0.000 OA
BRANCH  10  15
ATOM     12  C   UNK A   1      -1.566  11.517  19.592  0.00  0.00    +0.000 A 
ATOM     13  C   UNK A   1      -0.438  11.293  20.399  0.00  0.00    +0.000 A 
ATOM     14  C   UNK A   1       0.597  10.467  19.964  0.00  0.00    +0.000 A 
ATOM     15  C   UNK A   1       0.479   9.806  18.742  0.00  0.00    +0.000 A 
ATOM     16  C   UNK A   1      -0.698   9.922  18.001  0.00  0.00    +0.000 A 
ATOM     17  C   UNK A   1      -1.729  10.776  18.413  0.00  0.00    +0.000 A 
BRANCH  12  19
ATOM     18  C   UNK A   1      -1.950  13.668  20.464  0.00  0.00    +0.000 C 
ATOM     19  O   UNK A   1      -2.501  12.447  19.959  0.00  0.00    +0.000 OA
ENDBRANCH  12  19
BRANCH  17  20
ATOM     20  O   UNK A   1      -2.769  10.770  17.525  0.00  0.00    +0.000 OA
ATOM     21  C   UNK A   1      -2.496  10.846  16.134  0.00  0.00    +0.000 C 
ENDBRANCH  17  20
ENDBRANCH  10  15
ENDBRANCH   9  10
ENDBRANCH   1   9
BRANCH   1  22
ATOM     22  S   UNK A   1       4.052   6.479  17.628  0.00  0.00    +0.000 S 
BRANCH  22  23
ATOM     23  C   UNK A   1       4.103   4.695  17.223  0.00  0.00    +0.000 C 
BRANCH  23  24
ATOM     24  C   UNK A   1       5.254   3.902  17.871  0.00  0.00    +0.000 C 
BRANCH  24  25
ATOM     25  N   UNK A   1       6.133   4.762  18.681  0.00  0.00    +0.000 N 
ATOM     26  C   UNK A   0       7.405   5.076  18.279  0.00  0.00    +0.000 C 
ATOM     27  C   UNK A   0       8.164   6.003  19.188  0.00  0.00    +0.000 C 
ATOM     28  O   UNK A   0       7.915   4.547  17.293  0.00  0.00    +0.000 OA
ATOM     29  H   UNK A   1       5.663   5.455  19.259  0.00  0.00    +0.000 HD
ENDBRANCH  24  25
BRANCH  24  30
ATOM     30  C   UNK A   1       4.618   2.756  18.691  0.00  0.00    +0.000 C 
ATOM     31  O   UNK A   1       4.759   2.614  19.899  0.00  0.00    +0.000 OA
BRANCH  30  32
ATOM     32  O   UNK A   1       3.789   1.951  17.987  0.00  0.00    +0.000 OA
ATOM     33  H   UNK A   1       2.998   2.424  17.625  0.00  0.00    +0.000 HD
ENDBRANCH  30  32
ENDBRANCH  24  30
ENDBRANCH  23  24
ENDBRANCH  22  23
ENDBRANCH   1  22
TORSDOF 12
ENDMDL
MODEL 8
REMARK VINA RESULT:      -6.6      2.948      4.446
REMARK  Name = 
REMARK  15 active torsions:
REMARK  status: ('A' for Active; 'I' for Inactive)
REMARK    1  A    between atoms: C_1  and  O_2
REMARK    2  A    between atoms: O_2  and  C_3
REMARK    3  A    between atoms: C_6  and  C_7
REMARK    4  A    between atoms: C_7  and  C_9
REMARK    5  A    between atoms: C_9  and  C_10
REMARK    6  A    between atoms: C_10  and  S_11
REMARK    7  A    between atoms: C_10  and  C_21
REMARK    8  A    between atoms: S_11  and  C_12
REMARK    9  A    between atoms: C_12  and  C_13
REMARK   10  A    between atoms: C_13  and  N_14
REMARK   11  A    between atoms: C_13  and  C_18
REMARK   12  A    between atoms: C_15  and  C_16
REMARK   13  A    between atoms: C_18  and  O_20
REMARK   14  A    between atoms: C_29  and  O_30
REMARK   15  A    between atoms: O_30  and  C_31
REMARK                            x       y       z     vdW  Elec       q    Type
REMARK                         _______ _______ _______ _____ _____    ______ ____
ROOT
ATOM      1  C   UNK A   1       5.169   6.087  17.850  0.00  0.00    +0.000 C 
ENDROOT
BRANCH   1   2
ATOM      2  C   UNK A   1       5.558   5.469  16.513  0.00  0.00    +0.000 A 
ATOM      3  C   UNK A   1       6.876   5.577  16.041  0.00  0.00    +0.000 A 
ATOM      4  C   UNK A   1       7.244   4.997  14.823  0.00  0.00    +0.000 A 
ATOM      5  C   UNK A   1       6.299   4.312  14.063  0.00  0.00    +0.000 A 
ATOM      6 CL   UNK A   1       6.757   3.584  12.573  0.00  0.00    +0.000 Cl
ATOM      7  C   UNK A   1       4.984   4.212  14.504  0.00  0.00    +0.000 A 
ATOM      8  C   UNK A   1       4.615   4.789  15.721  0.00  0.00    +0.000 A 
ENDBRANCH   1   2
BRANCH   1   9
ATOM      9  C   UNK A   1       3.641   6.154  17.972  0.00  0.00    +0.000 C 
BRANCH   9  10
ATOM     10  C   UNK A   1       3.120   7.562  17.783  0.00  0.00    +0.000 C 
ATOM     11  O   UNK A   1       3.463   8.287  16.855  0.00  0.00    +0.000 OA
BRANCH  10  15
ATOM     12  C   UNK A   1       0.499   9.196  20.741  0.00  0.00    +0.000 A 
ATOM     13  C   UNK A   1       1.195   7.999  20.982  0.00  0.00    +0.000 A 
ATOM     14  C   UNK A   1       2.031   7.453  20.010  0.00  0.00    +0.000 A 
ATOM     15  C   UNK A   1       2.125   8.069  18.763  0.00  0.00    +0.000 A 
ATOM     16  C   UNK A   1       1.333   9.181  18.476  0.00  0.00    +0.000 A 
ATOM     17  C   UNK A   1       0.515   9.758  19.457  0.00  0.00    +0.000 A 
BRANCH  12  19
ATOM     18  C   UNK A   1       0.305   9.518  23.063  0.00  0.00    +0.000 C 
ATOM     19  O   UNK A   1      -0.196   9.803  21.753  0.00  0.00    +0.000 OA
ENDBRANCH  12  19
BRANCH  17  20
ATOM     20  O   UNK A   1      -0.141  10.857  18.978  0.00  0.00    +0.000 OA
ATOM     21  C   UNK A   1      -1.535  10.779  18.723  0.00  0.00    +0.000 C 
ENDBRANCH  17  20
ENDBRANCH  10  15
ENDBRANCH   9  10
ENDBRANCH   1   9
BRANCH   1  22
ATOM     22  S   UNK A   1       5.874   5.133  19.275  0.00  0.00    +0.000 S 
BRANCH  22  23
ATOM     23  C   UNK A   1       5.158   3.477  18.975  0.00  0.00    +0.000 C 
BRANCH  23  24
ATOM     24  C   UNK A   1       4.381   2.867  20.158  0.00  0.00    +0.000 C 
BRANCH  24  25
ATOM     25  N   UNK A   1       2.935   2.789  19.889  0.00  0.00    +0.000 N 
ATOM     26  C   UNK A   0       2.031   3.556  20.579  0.00  0.00    +0.000 C 
ATOM     27  C   UNK A   0       0.596   3.401  20.161  0.00  0.00    +0.000 C 
ATOM     28  O   UNK A   0       2.374   4.242  21.541  0.00  0.00    +0.000 OA
ATOM     29  H   UNK A   1       2.674   2.537  18.939  0.00  0.00    +0.000 HD
ENDBRANCH  24  25
BRANCH  24  30
ATOM     30  C   UNK A   1       5.008   1.486  20.457  0.00  0.00    +0.000 C 
ATOM     31  O   UNK A   1       5.495   1.171  21.536  0.00  0.00    +0.000 OA
BRANCH  30  32
ATOM     32  O   UNK A   1       4.894   0.585  19.454  0.00  0.00    +0.000 OA
ATOM     33  H   UNK A   1       4.460  -0.259  19.733  0.00  0.00    +0.000 HD
ENDBRANCH  30  32
ENDBRANCH  24  30
ENDBRANCH  23  24
ENDBRANCH  22  23
ENDBRANCH   1  22
TORSDOF 12
ENDMDL
MODEL 9
REMARK VINA RESULT:      -6.5      1.637      2.624
REMARK  Name = 
REMARK  15 active torsions:
REMARK  status: ('A' for Active; 'I' for Inactive)
REMARK    1  A    between atoms: C_1  and  O_2
REMARK    2  A    between atoms: O_2  and  C_3
REMARK    3  A    between atoms: C_6  and  C_7
REMARK    4  A    between atoms: C_7  and  C_9
REMARK    5  A    between atoms: C_9  and  C_10
REMARK    6  A    between atoms: C_10  and  S_11
REMARK    7  A    between atoms: C_10  and  C_21
REMARK    8  A    between atoms: S_11  and  C_12
REMARK    9  A    between atoms: C_12  and  C_13
REMARK   10  A    between atoms: C_13  and  N_14
REMARK   11  A    between atoms: C_13  and  C_18
REMARK   12  A    between atoms: C_15  and  C_16
REMARK   13  A    between atoms: C_18  and  O_20
REMARK   14  A    between atoms: C_29  and  O_30
REMARK   15  A    between atoms: O_30  and  C_31
REMARK                            x       y       z     vdW  Elec       q    Type
REMARK                         _______ _______ _______ _____ _____    ______ ____
ROOT
ATOM      1  C   UNK A   1       2.704   7.105  17.640  0.00  0.00    +0.000 C 
ENDROOT
BRANCH   1   2
ATOM      2  C   UNK A   1       2.310   5.977  18.585  0.00  0.00    +0.000 A 
ATOM      3  C   UNK A   1       1.876   4.744  18.070  0.00  0.00    +0.000 A 
ATOM      4  C   UNK A   1       1.529   3.698  18.931  0.00  0.00    +0.000 A 
ATOM      5  C   UNK A   1       1.605   3.876  20.310  0.00  0.00    +0.000 A 
ATOM      6 CL   UNK A   1       1.195   2.583  21.368  0.00  0.00    +0.000 Cl
ATOM      7  C   UNK A   1       2.013   5.096  20.839  0.00  0.00    +0.000 A 
ATOM      8  C   UNK A   1       2.361   6.141  19.981  0.00  0.00    +0.000 A 
ENDBRANCH   1   2
BRANCH   1   9
ATOM      9  C   UNK A   1       2.664   8.447  18.383  0.00  0.00    +0.000 C 
BRANCH   9  10
ATOM     10  C   UNK A   1       1.355   9.174  18.167  0.00  0.00    +0.000 C 
ATOM     11  O   UNK A   1       0.586   8.916  17.247  0.00  0.00    +0.000 OA
BRANCH  10  15
ATOM     12  C   UNK A   1      -0.036  12.133  20.925  0.00  0.00    +0.000 A 
ATOM     13  C   UNK A   1       0.126  12.441  19.563  0.00  0.00    +0.000 A 
ATOM     14  C   UNK A   1       0.602  11.485  18.668  0.00  0.00    +0.000 A 
ATOM     15  C   UNK A   1       0.981  10.231  19.143  0.00  0.00    +0.000 A 
ATOM     16  C   UNK A   1       0.947   9.967  20.513  0.00  0.00    +0.000 A 
ATOM     17  C   UNK A   1       0.438  10.909  21.417  0.00  0.00    +0.000 A 
BRANCH  12  19
ATOM     18  C   UNK A   1       0.151  14.170  22.087  0.00  0.00    +0.000 C 
ATOM     19  O   UNK A   1      -0.647  13.026  21.764  0.00  0.00    +0.000 OA
ENDBRANCH  12  19
BRANCH  17  20
ATOM     20  O   UNK A   1       0.459  10.434  22.699  0.00  0.00    +0.000 OA
ATOM     21  C   UNK A   1      -0.671   9.738  23.201  0.00  0.00    +0.000 C 
ENDBRANCH  17  20
ENDBRANCH  10  15
ENDBRANCH   9  10
ENDBRANCH   1   9
BRANCH   1  22
ATOM     22  S   UNK A   1       4.389   6.834  16.917  0.00  0.00    +0.000 S 
BRANCH  22  23
ATOM     23  C   UNK A   1       5.209   5.921  18.274  0.00  0.00    +0.000 C 
BRANCH  23  24
ATOM     24  C   UNK A   1       6.595   5.338  17.938  0.00  0.00    +0.000 C 
BRANCH  24  25
ATOM     25  N   UNK A   1       6.920   5.474  16.508  0.00  0.00    +0.000 N 
ATOM     26  C   UNK A   0       6.595   4.500  15.599  0.00  0.00    +0.000 C 
ATOM     27  C   UNK A   0       6.950   4.803  14.169  0.00  0.00    +0.000 C 
ATOM     28  O   UNK A   0       6.138   3.416  15.955  0.00  0.00    +0.000 OA
ATOM     29  H   UNK A   1       6.957   6.425  16.150  0.00  0.00    +0.000 HD
ENDBRANCH  24  25
BRANCH  24  30
ATOM     30  C   UNK A   1       7.624   6.039  18.854  0.00  0.00    +0.000 C 
ATOM     31  O   UNK A   1       8.158   7.110  18.596  0.00  0.00    +0.000 OA
BRANCH  30  32
ATOM     32  O   UNK A   1       7.829   5.426  20.043  0.00  0.00    +0.000 OA
ATOM     33  H   UNK A   1       7.341   5.852  20.792  0.00  0.00    +0.000 HD
ENDBRANCH  30  32
ENDBRANCH  24  30
ENDBRANCH  23  24
ENDBRANCH  22  23
ENDBRANCH   1  22
TORSDOF 12
ENDMDL
