MODEL 1
REMARK VINA RESULT:      -7.5      0.000      0.000
REMARK  Name = 
REMARK  3 active torsions:
REMARK  status: ('A' for Active; 'I' for Inactive)
REMARK    1  A    between atoms: C_2  and  C_3
REMARK    2  A    between atoms: C_4  and  C_5
REMARK    3  A    between atoms: N_17  and  C_18
REMARK                            x       y       z     vdW  Elec       q    Type
REMARK                         _______ _______ _______ _____ _____    ______ ____
ROOT
ATOM      1  C   UNL     1       3.598   5.016  19.399  0.00  0.00    +0.000 C 
ATOM      2  C   UNL     1       3.149   4.913  17.885  0.00  0.00    +0.000 C 
ATOM      3  C   UNL     1       2.104   3.796  17.630  0.00  0.00    +0.000 C 
ATOM      4  C   UNL     1       1.729   2.886  18.851  0.00  0.00    +0.000 C 
ATOM      5  C   UNL     1       0.741   3.561  19.807  0.00  0.00    +0.000 C 
ATOM      6  C   UNL     1       1.633   4.217  20.858  0.00  0.00    +0.000 C 
ATOM      7  C   UNL     1       3.058   3.909  20.391  0.00  0.00    +0.000 C 
ATOM      8  N   UNL     1       2.869   2.607  19.742  0.00  0.00    +0.000 NA
ATOM      9  C   UNL     1       4.073   2.031  19.159  0.00  0.00    +0.000 C 
ENDROOT
BRANCH   2  10
ATOM     10  C   UNL     1       4.338   4.971  16.837  0.00  0.00    +0.000 A 
ATOM     11  C   UNL     1       4.840   6.174  16.250  0.00  0.00    +0.000 A 
ATOM     12  C   UNL     1       5.763   6.151  15.198  0.00  0.00    +0.000 A 
ATOM     13  C   UNL     1       6.247   4.943  14.712  0.00  0.00    +0.000 A 
ATOM     14 CL   UNL     1       7.370   4.941  13.359  0.00  0.00    +0.000 Cl
ATOM     15  C   UNL     1       5.824   3.749  15.299  0.00  0.00    +0.000 A 
ATOM     16  C   UNL     1       4.880   3.760  16.343  0.00  0.00    +0.000 A 
ENDBRANCH   2  10
BRANCH   1  18
ATOM     17  C   UNL     1       6.253   5.335  19.487  0.00  0.00    +0.000 C 
ATOM     18  C   UNL     1       5.060   5.182  19.466  0.00  0.00    +0.000 C 
ENDBRANCH   1  18
TORSDOF 2
ENDMDL
MODEL 2
REMARK VINA RESULT:      -7.3      0.308      1.176
REMARK  Name = 
REMARK  3 active torsions:
REMARK  status: ('A' for Active; 'I' for Inactive)
REMARK    1  A    between atoms: C_2  and  C_3
REMARK    2  A    between atoms: C_4  and  C_5
REMARK    3  A    between atoms: N_17  and  C_18
REMARK                            x       y       z     vdW  Elec       q    Type
REMARK                         _______ _______ _______ _____ _____    ______ ____
ROOT
ATOM      1  C   UNL     1       3.697   5.074  19.486  0.00  0.00    +0.000 C 
ATOM      2  C   UNL     1       3.058   5.023  18.039  0.00  0.00    +0.000 C 
ATOM      3  C   UNL     1       1.917   3.981  17.910  0.00  0.00    +0.000 C 
ATOM      4  C   UNL     1       1.636   3.079  19.162  0.00  0.00    +0.000 C 
ATOM      5  C   UNL     1       0.822   3.804  20.238  0.00  0.00    +0.000 C 
ATOM      6  C   UNL     1       1.879   4.384  21.174  0.00  0.00    +0.000 C 
ATOM      7  C   UNL     1       3.211   3.990  20.530  0.00  0.00    +0.000 C 
ATOM      8  N   UNL     1       2.857   2.713  19.902  0.00  0.00    +0.000 NA
ATOM      9  C   UNL     1       3.938   2.069  19.170  0.00  0.00    +0.000 C 
ENDROOT
BRANCH   2  10
ATOM     10  C   UNL     1       4.109   5.018  16.852  0.00  0.00    +0.000 A 
ATOM     11  C   UNL     1       4.699   3.838  16.299  0.00  0.00    +0.000 A 
ATOM     12  C   UNL     1       5.753   3.904  15.380  0.00  0.00    +0.000 A 
ATOM     13  C   UNL     1       6.239   5.132  14.951  0.00  0.00    +0.000 A 
ATOM     14 CL   UNL     1       7.594   5.185  13.834  0.00  0.00    +0.000 Cl
ATOM     15  C   UNL     1       5.650   6.306  15.425  0.00  0.00    +0.000 A 
ATOM     16  C   UNL     1       4.604   6.253  16.365  0.00  0.00    +0.000 A 
ENDBRANCH   2  10
BRANCH   1  18
ATOM     17  C   UNL     1       6.363   5.220  19.307  0.00  0.00    +0.000 C 
ATOM     18  C   UNL     1       5.163   5.143  19.371  0.00  0.00    +0.000 C 
ENDBRANCH   1  18
TORSDOF 2
ENDMDL
MODEL 3
REMARK VINA RESULT:      -6.8      1.804      2.809
REMARK  Name = 
REMARK  3 active torsions:
REMARK  status: ('A' for Active; 'I' for Inactive)
REMARK    1  A    between atoms: C_2  and  C_3
REMARK    2  A    between atoms: C_4  and  C_5
REMARK    3  A    between atoms: N_17  and  C_18
REMARK                            x       y       z     vdW  Elec       q    Type
REMARK                         _______ _______ _______ _____ _____    ______ ____
ROOT
ATOM      1  C   UNL     1       2.151   4.604  18.005  0.00  0.00    +0.000 C 
ATOM      2  C   UNL     1       3.511   3.890  17.623  0.00  0.00    +0.000 C 
ATOM      3  C   UNL     1       3.732   2.553  18.376  0.00  0.00    +0.000 C 
ATOM      4  C   UNL     1       2.663   2.161  19.454  0.00  0.00    +0.000 C 
ATOM      5  C   UNL     1       1.391   1.575  18.834  0.00  0.00    +0.000 C 
ATOM      6  C   UNL     1       0.465   2.779  18.680  0.00  0.00    +0.000 C 
ATOM      7  C   UNL     1       1.300   3.963  19.174  0.00  0.00    +0.000 C 
ATOM      8  N   UNL     1       2.132   3.318  20.196  0.00  0.00    +0.000 NA
ATOM      9  C   UNL     1       3.079   4.201  20.863  0.00  0.00    +0.000 C 
ENDROOT
BRANCH   2  10
ATOM     10  C   UNL     1       4.771   4.850  17.574  0.00  0.00    +0.000 A 
ATOM     11  C   UNL     1       5.692   5.032  18.654  0.00  0.00    +0.000 A 
ATOM     12  C   UNL     1       6.677   6.025  18.622  0.00  0.00    +0.000 A 
ATOM     13  C   UNL     1       6.810   6.850  17.513  0.00  0.00    +0.000 A 
ATOM     14 CL   UNL     1       8.026   8.120  17.519  0.00  0.00    +0.000 Cl
ATOM     15  C   UNL     1       5.967   6.666  16.415  0.00  0.00    +0.000 A 
ATOM     16  C   UNL     1       4.959   5.684  16.445  0.00  0.00    +0.000 A 
ENDBRANCH   2  10
BRANCH   1  18
ATOM     17  C   UNL     1       2.561   7.223  18.373  0.00  0.00    +0.000 C 
ATOM     18  C   UNL     1       2.392   6.045  18.194  0.00  0.00    +0.000 C 
ENDBRANCH   1  18
TORSDOF 2
ENDMDL
MODEL 4
REMARK VINA RESULT:      -6.7      3.155      5.725
REMARK  Name = 
REMARK  3 active torsions:
REMARK  status: ('A' for Active; 'I' for Inactive)
REMARK    1  A    between atoms: C_2  and  C_3
REMARK    2  A    between atoms: C_4  and  C_5
REMARK    3  A    between atoms: N_17  and  C_18
REMARK                            x       y       z     vdW  Elec       q    Type
REMARK                         _______ _______ _______ _____ _____    ______ ____
ROOT
ATOM      1  C   UNL     1       3.943   3.963  16.833  0.00  0.00    +0.000 C 
ATOM      2  C   UNL     1       3.056   5.006  17.626  0.00  0.00    +0.000 C 
ATOM      3  C   UNL     1       3.717   6.403  17.749  0.00  0.00    +0.000 C 
ATOM      4  C   UNL     1       5.171   6.552  17.180  0.00  0.00    +0.000 C 
ATOM      5  C   UNL     1       5.194   6.700  15.656  0.00  0.00    +0.000 C 
ATOM      6  C   UNL     1       5.382   5.273  15.147  0.00  0.00    +0.000 C 
ATOM      7  C   UNL     1       5.399   4.418  16.418  0.00  0.00    +0.000 C 
ATOM      8  N   UNL     1       6.000   5.350  17.379  0.00  0.00    +0.000 NA
ATOM      9  C   UNL     1       6.143   4.828  18.731  0.00  0.00    +0.000 C 
ENDROOT
BRANCH   2  10
ATOM     10  C   UNL     1       2.414   4.447  18.964  0.00  0.00    +0.000 A 
ATOM     11  C   UNL     1       2.988   4.607  20.264  0.00  0.00    +0.000 A 
ATOM     12  C   UNL     1       2.476   3.938  21.382  0.00  0.00    +0.000 A 
ATOM     13  C   UNL     1       1.362   3.117  21.263  0.00  0.00    +0.000 A 
ATOM     14 CL   UNL     1       0.769   2.253  22.674  0.00  0.00    +0.000 Cl
ATOM     15  C   UNL     1       0.739   2.982  20.021  0.00  0.00    +0.000 A 
ATOM     16  C   UNL     1       1.259   3.633  18.886  0.00  0.00    +0.000 A 
ENDBRANCH   2  10
BRANCH   1  18
ATOM     17  C   UNL     1       3.899   1.598  18.085  0.00  0.00    +0.000 C 
ATOM     18  C   UNL     1       3.926   2.670  17.539  0.00  0.00    +0.000 C 
ENDBRANCH   1  18
TORSDOF 2
ENDMDL
MODEL 5
REMARK VINA RESULT:      -6.3      1.960      2.957
REMARK  Name = 
REMARK  3 active torsions:
REMARK  status: ('A' for Active; 'I' for Inactive)
REMARK    1  A    between atoms: C_2  and  C_3
REMARK    2  A    between atoms: C_4  and  C_5
REMARK    3  A    between atoms: N_17  and  C_18
REMARK                            x       y       z     vdW  Elec       q    Type
REMARK                         _______ _______ _______ _____ _____    ______ ____
ROOT
ATOM      1  C   UNL     1       2.170   4.590  18.042  0.00  0.00    +0.000 C 
ATOM      2  C   UNL     1       3.644   4.044  17.862  0.00  0.00    +0.000 C 
ATOM      3  C   UNL     1       3.934   2.776  18.705  0.00  0.00    +0.000 C 
ATOM      4  C   UNL     1       2.796   2.288  19.667  0.00  0.00    +0.000 C 
ATOM      5  C   UNL     1       1.693   1.520  18.932  0.00  0.00    +0.000 C 
ATOM      6  C   UNL     1       0.652   2.588  18.606  0.00  0.00    +0.000 C 
ATOM      7  C   UNL     1       1.266   3.887  19.133  0.00  0.00    +0.000 C 
ATOM      8  N   UNL     1       2.037   3.393  20.279  0.00  0.00    +0.000 NA
ATOM      9  C   UNL     1       2.776   4.415  21.007  0.00  0.00    +0.000 C 
ENDROOT
BRANCH   2  10
ATOM     10  C   UNL     1       4.772   5.157  17.914  0.00  0.00    +0.000 A 
ATOM     11  C   UNL     1       5.020   6.106  16.873  0.00  0.00    +0.000 A 
ATOM     12  C   UNL     1       6.142   6.943  16.892  0.00  0.00    +0.000 A 
ATOM     13  C   UNL     1       7.038   6.897  17.952  0.00  0.00    +0.000 A 
ATOM     14 CL   UNL     1       8.463   7.925  17.927  0.00  0.00    +0.000 Cl
ATOM     15  C   UNL     1       6.799   6.024  19.015  0.00  0.00    +0.000 A 
ATOM     16  C   UNL     1       5.685   5.163  18.996  0.00  0.00    +0.000 A 
ENDBRANCH   2  10
BRANCH   1  18
ATOM     17  C   UNL     1       2.201   7.251  18.318  0.00  0.00    +0.000 C 
ATOM     18  C   UNL     1       2.204   6.056  18.183  0.00  0.00    +0.000 C 
ENDBRANCH   1  18
TORSDOF 2
ENDMDL
MODEL 6
REMARK VINA RESULT:      -6.2      3.507      5.526
REMARK  Name = 
REMARK  3 active torsions:
REMARK  status: ('A' for Active; 'I' for Inactive)
REMARK    1  A    between atoms: C_2  and  C_3
REMARK    2  A    between atoms: C_4  and  C_5
REMARK    3  A    between atoms: N_17  and  C_18
REMARK                            x       y       z     vdW  Elec       q    Type
REMARK                         _______ _______ _______ _____ _____    ______ ____
ROOT
ATOM      1  C   UNL     1       3.855   4.870  16.872  0.00  0.00    +0.000 C 
ATOM      2  C   UNL     1       4.187   6.375  17.232  0.00  0.00    +0.000 C 
ATOM      3  C   UNL     1       5.648   6.582  17.708  0.00  0.00    +0.000 C 
ATOM      4  C   UNL     1       6.533   5.297  17.861  0.00  0.00    +0.000 C 
ATOM      5  C   UNL     1       7.067   4.786  16.519  0.00  0.00    +0.000 C 
ATOM      6  C   UNL     1       6.035   3.750  16.081  0.00  0.00    +0.000 C 
ATOM      7  C   UNL     1       4.969   3.789  17.179  0.00  0.00    +0.000 C 
ATOM      8  N   UNL     1       5.782   4.128  18.352  0.00  0.00    +0.000 NA
ATOM      9  C   UNL     1       5.038   4.262  19.597  0.00  0.00    +0.000 C 
ENDROOT
BRANCH   2  10
ATOM     10  C   UNL     1       3.086   7.104  18.109  0.00  0.00    +0.000 A 
ATOM     11  C   UNL     1       2.330   8.239  17.677  0.00  0.00    +0.000 A 
ATOM     12  C   UNL     1       1.506   8.952  18.556  0.00  0.00    +0.000 A 
ATOM     13  C   UNL     1       1.373   8.551  19.879  0.00  0.00    +0.000 A 
ATOM     14 CL   UNL     1       0.368   9.492  20.972  0.00  0.00    +0.000 Cl
ATOM     15  C   UNL     1       2.050   7.413  20.322  0.00  0.00    +0.000 A 
ATOM     16  C   UNL     1       2.898   6.701  19.453  0.00  0.00    +0.000 A 
ENDBRANCH   2  10
BRANCH   1  18
ATOM     17  C   UNL     1       1.466   4.190  17.866  0.00  0.00    +0.000 C 
ATOM     18  C   UNL     1       2.540   4.512  17.430  0.00  0.00    +0.000 C 
ENDBRANCH   1  18
TORSDOF 2
ENDMDL
MODEL 7
REMARK VINA RESULT:      -6.1      1.302      2.400
REMARK  Name = 
REMARK  3 active torsions:
REMARK  status: ('A' for Active; 'I' for Inactive)
REMARK    1  A    between atoms: C_2  and  C_3
REMARK    2  A    between atoms: C_4  and  C_5
REMARK    3  A    between atoms: N_17  and  C_18
REMARK                            x       y       z     vdW  Elec       q    Type
REMARK                         _______ _______ _______ _____ _____    ______ ____
ROOT
ATOM      1  C   UNL     1       3.704   3.318  19.574  0.00  0.00    +0.000 C 
ATOM      2  C   UNL     1       4.392   4.667  19.111  0.00  0.00    +0.000 C 
ATOM      3  C   UNL     1       3.463   5.902  19.237  0.00  0.00    +0.000 C 
ATOM      4  C   UNL     1       1.986   5.635  19.691  0.00  0.00    +0.000 C 
ATOM      5  C   UNL     1       1.865   5.418  21.202  0.00  0.00    +0.000 C 
ATOM      6  C   UNL     1       1.952   3.903  21.368  0.00  0.00    +0.000 C 
ATOM      7  C   UNL     1       2.168   3.379  19.945  0.00  0.00    +0.000 C 
ATOM      8  N   UNL     1       1.432   4.376  19.160  0.00  0.00    +0.000 NA
ATOM      9  C   UNL     1       1.460   4.165  17.720  0.00  0.00    +0.000 C 
ENDROOT
BRANCH   2  10
ATOM     10  C   UNL     1       5.194   4.566  17.748  0.00  0.00    +0.000 A 
ATOM     11  C   UNL     1       6.609   4.382  17.654  0.00  0.00    +0.000 A 
ATOM     12  C   UNL     1       7.286   4.483  16.433  0.00  0.00    +0.000 A 
ATOM     13  C   UNL     1       6.588   4.737  15.259  0.00  0.00    +0.000 A 
ATOM     14 CL   UNL     1       7.467   4.907  13.747  0.00  0.00    +0.000 Cl
ATOM     15  C   UNL     1       5.198   4.866  15.302  0.00  0.00    +0.000 A 
ATOM     16  C   UNL     1       4.510   4.786  16.527  0.00  0.00    +0.000 A 
ENDBRANCH   2  10
BRANCH   1  18
ATOM     17  C   UNL     1       4.247   1.363  17.831  0.00  0.00    +0.000 C 
ATOM     18  C   UNL     1       4.019   2.252  18.608  0.00  0.00    +0.000 C 
ENDBRANCH   1  18
TORSDOF 2
ENDMDL
MODEL 8
REMARK VINA RESULT:      -6.0      1.937      3.313
REMARK  Name = 
REMARK  3 active torsions:
REMARK  status: ('A' for Active; 'I' for Inactive)
REMARK    1  A    between atoms: C_2  and  C_3
REMARK    2  A    between atoms: C_4  and  C_5
REMARK    3  A    between atoms: N_17  and  C_18
REMARK                            x       y       z     vdW  Elec       q    Type
REMARK                         _______ _______ _______ _____ _____    ______ ____
ROOT
ATOM      1  C   UNL     1       3.843   3.093  18.194  0.00  0.00    +0.000 C 
ATOM      2  C   UNL     1       4.424   4.090  19.277  0.00  0.00    +0.000 C 
ATOM      3  C   UNL     1       3.340   4.665  20.224  0.00  0.00    +0.000 C 
ATOM      4  C   UNL     1       1.852   4.273  19.920  0.00  0.00    +0.000 C 
ATOM      5  C   UNL     1       1.502   2.865  20.411  0.00  0.00    +0.000 C 
ATOM      6  C   UNL     1       1.749   1.976  19.194  0.00  0.00    +0.000 C 
ATOM      7  C   UNL     1       2.270   2.938  18.123  0.00  0.00    +0.000 C 
ATOM      8  N   UNL     1       1.560   4.171  18.479  0.00  0.00    +0.000 NA
ATOM      9  C   UNL     1       1.861   5.318  17.633  0.00  0.00    +0.000 C 
ENDROOT
BRANCH   2  10
ATOM     10  C   UNL     1       5.454   5.154  18.712  0.00  0.00    +0.000 A 
ATOM     11  C   UNL     1       6.852   5.165  19.013  0.00  0.00    +0.000 A 
ATOM     12  C   UNL     1       7.678   6.230  18.636  0.00  0.00    +0.000 A 
ATOM     13  C   UNL     1       7.162   7.303  17.921  0.00  0.00    +0.000 A 
ATOM     14 CL   UNL     1       8.212   8.649  17.502  0.00  0.00    +0.000 Cl
ATOM     15  C   UNL     1       5.814   7.301  17.558  0.00  0.00    +0.000 A 
ATOM     16  C   UNL     1       4.970   6.245  17.950  0.00  0.00    +0.000 A 
ENDBRANCH   2  10
BRANCH   1  18
ATOM     17  C   UNL     1       4.913   3.639  15.803  0.00  0.00    +0.000 C 
ATOM     18  C   UNL     1       4.450   3.386  16.884  0.00  0.00    +0.000 C 
ENDBRANCH   1  18
TORSDOF 2
ENDMDL
MODEL 9
REMARK VINA RESULT:      -6.0      3.531      5.637
REMARK  Name = 
REMARK  3 active torsions:
REMARK  status: ('A' for Active; 'I' for Inactive)
REMARK    1  A    between atoms: C_2  and  C_3
REMARK    2  A    between atoms: C_4  and  C_5
REMARK    3  A    between atoms: N_17  and  C_18
REMARK                            x       y       z     vdW  Elec       q    Type
REMARK                         _______ _______ _______ _____ _____    ______ ____
ROOT
ATOM      1  C   UNL     1       3.820   4.990  16.870  0.00  0.00    +0.000 C 
ATOM      2  C   UNL     1       4.205   6.508  17.096  0.00  0.00    +0.000 C 
ATOM      3  C   UNL     1       5.722   6.727  17.330  0.00  0.00    +0.000 C 
ATOM      4  C   UNL     1       6.619   5.443  17.413  0.00  0.00    +0.000 C 
ATOM      5  C   UNL     1       6.939   4.859  16.033  0.00  0.00    +0.000 C 
ATOM      6  C   UNL     1       5.851   3.811  15.813  0.00  0.00    +0.000 C 
ATOM      7  C   UNL     1       4.967   3.917  17.059  0.00  0.00    +0.000 C 
ATOM      8  N   UNL     1       5.951   4.308  18.073  0.00  0.00    +0.000 NA
ATOM      9  C   UNL     1       5.407   4.512  19.409  0.00  0.00    +0.000 C 
ENDROOT
BRANCH   2  10
ATOM     10  C   UNL     1       3.253   7.291  18.092  0.00  0.00    +0.000 A 
ATOM     11  C   UNL     1       3.011   6.908  19.449  0.00  0.00    +0.000 A 
ATOM     12  C   UNL     1       2.024   7.528  20.224  0.00  0.00    +0.000 A 
ATOM     13  C   UNL     1       1.264   8.565  19.699  0.00  0.00    +0.000 A 
ATOM     14 CL   UNL     1      -0.001   9.293  20.679  0.00  0.00    +0.000 Cl
ATOM     15  C   UNL     1       1.510   9.006  18.398  0.00  0.00    +0.000 A 
ATOM     16  C   UNL     1       2.486   8.377  17.602  0.00  0.00    +0.000 A 
ENDBRANCH   2  10
BRANCH   1  18
ATOM     17  C   UNL     1       1.602   4.395  18.243  0.00  0.00    +0.000 C 
ATOM     18  C   UNL     1       2.606   4.673  17.642  0.00  0.00    +0.000 C 
ENDBRANCH   1  18
TORSDOF 2
ENDMDL
