MODEL 1
REMARK VINA RESULT:      -8.5      0.000      0.000
REMARK  Name = 
REMARK  9 active torsions:
REMARK  status: ('A' for Active; 'I' for Inactive)
REMARK    1  A    between atoms: C_1  and  C_2
REMARK    2  A    between atoms: C_3  and  C_4
REMARK    3  A    between atoms: C_13  and  C_14
REMARK    4  A    between atoms: C_14  and  C_15
REMARK    5  A    between atoms: N_17  and  C_18
REMARK    6  A    between atoms: C_18  and  C_19
REMARK    7  A    between atoms: N_26  and  C_27
REMARK    8  A    between atoms: C_27  and  C_28
REMARK    9  A    between atoms: C_28  and  C_29
REMARK                            x       y       z     vdW  Elec       q    Type
REMARK                         _______ _______ _______ _____ _____    ______ ____
ROOT
ATOM      1  C   UNL     1       0.962   7.971  21.829  0.00  0.00    +0.000 C 
ATOM      2  C   UNL     1       0.974   9.044  20.754  0.00  0.00    +0.000 C 
ATOM      3  C   UNL     1       0.422  10.286  20.908  0.00  0.00    +0.000 C 
ATOM      4  C   UNL     1       0.482  11.212  19.732  0.00  0.00    +0.000 C 
ATOM      5  C   UNL     1       0.362  10.527  18.396  0.00  0.00    +0.000 C 
ATOM      6  C   UNL     1       1.419   9.465  18.344  0.00  0.00    +0.000 C 
ATOM      7  O   UNL     1       1.984   9.268  17.269  0.00  0.00    +0.000 OA
ATOM      8  N   UNL     1       1.619   8.717  19.525  0.00  0.00    +0.000 N 
ENDROOT
BRANCH   3   9
ATOM      9  C   UNL     1      -0.311  10.765  22.153  0.00  0.00    +0.000 C 
ATOM     10  O   UNL     1       0.033  10.329  23.240  0.00  0.00    +0.000 OA
ATOM     11  N   UNL     1      -1.402  11.641  22.054  0.00  0.00    +0.000 N 
ATOM     12  C   UNL     1      -2.093  12.075  20.829  0.00  0.00    +0.000 C 
ATOM     13  C   UNL     1      -2.789  13.423  20.957  0.00  0.00    +0.000 C 
ATOM     14  O   UNL     1      -3.683  13.420  22.067  0.00  0.00    +0.000 OA
ATOM     15  C   UNL     1      -2.951  13.176  23.276  0.00  0.00    +0.000 C 
ATOM     16  C   UNL     1      -2.233  11.822  23.254  0.00  0.00    +0.000 C 
ENDBRANCH   3   9
BRANCH   5  17
ATOM     17  C   UNL     1      -1.020   9.944  18.100  0.00  0.00    +0.000 C 
BRANCH  17  18
ATOM     18  C   UNL     1      -1.923  10.988  17.459  0.00  0.00    +0.000 C 
ATOM     19  O   UNL     1      -1.601  12.170  17.349  0.00  0.00    +0.000 OA
ATOM     20  N   UNL     1      -3.127  10.491  17.031  0.00  0.00    +0.000 N 
ATOM     21  H   UNL     1      -3.272   9.495  16.959  0.00  0.00    +0.000 HD
BRANCH  20  22
ATOM     22  C   UNL     1      -4.102  11.346  16.390  0.00  0.00    +0.000 C 
BRANCH  22  23
ATOM     23  C   UNL     1      -5.283  11.471  17.276  0.00  0.00    +0.000 A 
ATOM     24  C   UNL     1      -5.716  10.767  18.382  0.00  0.00    +0.000 A 
ATOM     25  C   UNL     1      -6.917  11.383  18.805  0.00  0.00    +0.000 A 
ATOM     26  C   UNL     1      -7.148  12.416  17.929  0.00  0.00    +0.000 A 
ATOM     27  O   UNL     1      -6.164  12.477  16.994  0.00  0.00    +0.000 OA
ENDBRANCH  22  23
ENDBRANCH  20  22
ENDBRANCH  17  18
ENDBRANCH   5  17
BRANCH   8  28
ATOM     28  C   UNL     1       2.449   7.492  19.396  0.00  0.00    +0.000 C 
BRANCH  28  29
ATOM     29  C   UNL     1       1.950   6.448  18.376  0.00  0.00    +0.000 C 
BRANCH  29  30
ATOM     30  C   UNL     1       1.757   5.063  18.956  0.00  0.00    +0.000 C 
ATOM     31  C   UNL     1       1.714   4.879  20.290  0.00  0.00    +0.000 C 
ATOM     32  C   UNL     1       1.518   3.552  20.952  0.00  0.00    +0.000 C 
ATOM     33  C   UNL     1       1.712   2.382  19.990  0.00  0.00    +0.000 C 
ATOM     34  C   UNL     1       1.024   2.651  18.656  0.00  0.00    +0.000 C 
ATOM     35  C   UNL     1       1.573   3.918  17.992  0.00  0.00    +0.000 C 
ENDBRANCH  29  30
ENDBRANCH  28  29
ENDBRANCH   8  28
TORSDOF 8
ENDMDL
MODEL 2
REMARK VINA RESULT:      -8.0      1.388      1.994
REMARK  Name = 
REMARK  9 active torsions:
REMARK  status: ('A' for Active; 'I' for Inactive)
REMARK    1  A    between atoms: C_1  and  C_2
REMARK    2  A    between atoms: C_3  and  C_4
REMARK    3  A    between atoms: C_13  and  C_14
REMARK    4  A    between atoms: C_14  and  C_15
REMARK    5  A    between atoms: N_17  and  C_18
REMARK    6  A    between atoms: C_18  and  C_19
REMARK    7  A    between atoms: N_26  and  C_27
REMARK    8  A    between atoms: C_27  and  C_28
REMARK    9  A    between atoms: C_28  and  C_29
REMARK                            x       y       z     vdW  Elec       q    Type
REMARK                         _______ _______ _______ _____ _____    ______ ____
ROOT
ATOM      1  C   UNL     1       0.932   8.039  21.846  0.00  0.00    +0.000 C 
ATOM      2  C   UNL     1       0.948   9.106  20.767  0.00  0.00    +0.000 C 
ATOM      3  C   UNL     1       0.391  10.348  20.911  0.00  0.00    +0.000 C 
ATOM      4  C   UNL     1       0.456  11.268  19.732  0.00  0.00    +0.000 C 
ATOM      5  C   UNL     1       0.348  10.578  18.398  0.00  0.00    +0.000 C 
ATOM      6  C   UNL     1       1.410   9.520  18.359  0.00  0.00    +0.000 C 
ATOM      7  O   UNL     1       1.983   9.319  17.289  0.00  0.00    +0.000 OA
ATOM      8  N   UNL     1       1.603   8.776  19.544  0.00  0.00    +0.000 N 
ENDROOT
BRANCH   3   9
ATOM      9  C   UNL     1      -0.354  10.829  22.148  0.00  0.00    +0.000 C 
ATOM     10  O   UNL     1      -0.014  10.402  23.241  0.00  0.00    +0.000 OA
ATOM     11  N   UNL     1      -1.449  11.697  22.038  0.00  0.00    +0.000 N 
ATOM     12  C   UNL     1      -2.135  12.120  20.806  0.00  0.00    +0.000 C 
ATOM     13  C   UNL     1      -2.841  13.464  20.922  0.00  0.00    +0.000 C 
ATOM     14  O   UNL     1      -3.742  13.462  22.026  0.00  0.00    +0.000 OA
ATOM     15  C   UNL     1      -3.016  13.230  23.241  0.00  0.00    +0.000 C 
ATOM     16  C   UNL     1      -2.289  11.880  23.232  0.00  0.00    +0.000 C 
ENDBRANCH   3   9
BRANCH   5  17
ATOM     17  C   UNL     1      -1.029   9.989  18.094  0.00  0.00    +0.000 C 
BRANCH  17  18
ATOM     18  C   UNL     1      -1.923  11.020  17.422  0.00  0.00    +0.000 C 
ATOM     19  O   UNL     1      -1.605  12.202  17.303  0.00  0.00    +0.000 OA
ATOM     20  N   UNL     1      -3.117  10.512  16.977  0.00  0.00    +0.000 N 
ATOM     21  H   UNL     1      -3.257   9.515  16.915  0.00  0.00    +0.000 HD
BRANCH  20  22
ATOM     22  C   UNL     1      -4.082  11.354  16.306  0.00  0.00    +0.000 C 
BRANCH  22  23
ATOM     23  C   UNL     1      -5.255  11.539  17.193  0.00  0.00    +0.000 A 
ATOM     24  C   UNL     1      -6.229  12.513  17.283  0.00  0.00    +0.000 A 
ATOM     25  C   UNL     1      -7.096  12.119  18.329  0.00  0.00    +0.000 A 
ATOM     26  C   UNL     1      -6.593  10.937  18.818  0.00  0.00    +0.000 A 
ATOM     27  O   UNL     1      -5.474  10.576  18.138  0.00  0.00    +0.000 OA
ENDBRANCH  22  23
ENDBRANCH  20  22
ENDBRANCH  17  18
ENDBRANCH   5  17
BRANCH   8  28
ATOM     28  C   UNL     1       2.438   7.554  19.427  0.00  0.00    +0.000 C 
BRANCH  28  29
ATOM     29  C   UNL     1       2.076   6.603  18.267  0.00  0.00    +0.000 C 
BRANCH  29  30
ATOM     30  C   UNL     1       3.265   5.887  17.663  0.00  0.00    +0.000 C 
ATOM     31  C   UNL     1       3.311   4.541  17.632  0.00  0.00    +0.000 C 
ATOM     32  C   UNL     1       4.438   3.750  17.047  0.00  0.00    +0.000 C 
ATOM     33  C   UNL     1       5.683   4.598  16.797  0.00  0.00    +0.000 C 
ATOM     34  C   UNL     1       5.314   5.937  16.166  0.00  0.00    +0.000 C 
ATOM     35  C   UNL     1       4.361   6.732  17.064  0.00  0.00    +0.000 C 
ENDBRANCH  29  30
ENDBRANCH  28  29
ENDBRANCH   8  28
TORSDOF 8
ENDMDL
MODEL 3
REMARK VINA RESULT:      -7.9      3.269      4.413
REMARK  Name = 
REMARK  9 active torsions:
REMARK  status: ('A' for Active; 'I' for Inactive)
REMARK    1  A    between atoms: C_1  and  C_2
REMARK    2  A    between atoms: C_3  and  C_4
REMARK    3  A    between atoms: C_13  and  C_14
REMARK    4  A    between atoms: C_14  and  C_15
REMARK    5  A    between atoms: N_17  and  C_18
REMARK    6  A    between atoms: C_18  and  C_19
REMARK    7  A    between atoms: N_26  and  C_27
REMARK    8  A    between atoms: C_27  and  C_28
REMARK    9  A    between atoms: C_28  and  C_29
REMARK                            x       y       z     vdW  Elec       q    Type
REMARK                         _______ _______ _______ _____ _____    ______ ____
ROOT
ATOM      1  C   UNL     1      -0.521   8.890  20.304  0.00  0.00    +0.000 C 
ATOM      2  C   UNL     1       0.394  10.094  20.170  0.00  0.00    +0.000 C 
ATOM      3  C   UNL     1       0.434  11.127  21.066  0.00  0.00    +0.000 C 
ATOM      4  C   UNL     1       1.366  12.260  20.761  0.00  0.00    +0.000 C 
ATOM      5  C   UNL     1       1.511  12.568  19.294  0.00  0.00    +0.000 C 
ATOM      6  C   UNL     1       1.915  11.295  18.612  0.00  0.00    +0.000 C 
ATOM      7  O   UNL     1       2.717  11.369  17.682  0.00  0.00    +0.000 OA
ATOM      8  N   UNL     1       1.267  10.116  19.042  0.00  0.00    +0.000 N 
ENDROOT
BRANCH   3   9
ATOM      9  C   UNL     1      -0.449  11.245  22.299  0.00  0.00    +0.000 C 
ATOM     10  O   UNL     1      -0.114  10.661  23.318  0.00  0.00    +0.000 OA
ATOM     11  N   UNL     1      -1.656  11.958  22.256  0.00  0.00    +0.000 N 
ATOM     12  C   UNL     1      -2.322  12.518  21.068  0.00  0.00    +0.000 C 
ATOM     13  C   UNL     1      -3.232  13.700  21.370  0.00  0.00    +0.000 C 
ATOM     14  O   UNL     1      -4.187  13.354  22.370  0.00  0.00    +0.000 OA
ATOM     15  C   UNL     1      -3.510  12.988  23.580  0.00  0.00    +0.000 C 
ATOM     16  C   UNL     1      -2.585  11.781  23.382  0.00  0.00    +0.000 C 
ENDBRANCH   3   9
BRANCH   5  17
ATOM     17  C   UNL     1       0.268  13.173  18.643  0.00  0.00    +0.000 C 
BRANCH  17  18
ATOM     18  C   UNL     1       0.145  14.651  18.981  0.00  0.00    +0.000 C 
ATOM     19  O   UNL     1      -0.927  15.181  19.268  0.00  0.00    +0.000 OA
ATOM     20  N   UNL     1       1.333  15.334  18.921  0.00  0.00    +0.000 N 
ATOM     21  H   UNL     1       2.207  14.834  18.877  0.00  0.00    +0.000 HD
BRANCH  20  22
ATOM     22  C   UNL     1       1.397  16.747  19.222  0.00  0.00    +0.000 C 
BRANCH  22  23
ATOM     23  C   UNL     1       0.965  17.510  18.027  0.00  0.00    +0.000 A 
ATOM     24  C   UNL     1       1.616  17.919  16.880  0.00  0.00    +0.000 A 
ATOM     25  C   UNL     1       0.656  18.603  16.097  0.00  0.00    +0.000 A 
ATOM     26  C   UNL     1      -0.515  18.578  16.816  0.00  0.00    +0.000 A 
ATOM     27  O   UNL     1      -0.338  17.919  17.991  0.00  0.00    +0.000 OA
ENDBRANCH  22  23
ENDBRANCH  20  22
ENDBRANCH  17  18
ENDBRANCH   5  17
BRANCH   8  28
ATOM     28  C   UNL     1       1.448   8.915  18.188  0.00  0.00    +0.000 C 
BRANCH  28  29
ATOM     29  C   UNL     1       2.689   8.052  18.497  0.00  0.00    +0.000 C 
BRANCH  29  30
ATOM     30  C   UNL     1       2.368   6.622  18.873  0.00  0.00    +0.000 C 
ATOM     31  C   UNL     1       2.088   6.296  20.150  0.00  0.00    +0.000 C 
ATOM     32  C   UNL     1       1.750   4.913  20.612  0.00  0.00    +0.000 C 
ATOM     33  C   UNL     1       2.083   3.849  19.570  0.00  0.00    +0.000 C 
ATOM     34  C   UNL     1       1.646   4.290  18.177  0.00  0.00    +0.000 C 
ATOM     35  C   UNL     1       2.330   5.598  17.767  0.00  0.00    +0.000 C 
ENDBRANCH  29  30
ENDBRANCH  28  29
ENDBRANCH   8  28
TORSDOF 8
ENDMDL
MODEL 4
REMARK VINA RESULT:      -7.9      4.268      8.460
REMARK  Name = 
REMARK  9 active torsions:
REMARK  status: ('A' for Active; 'I' for Inactive)
REMARK    1  A    between atoms: C_1  and  C_2
REMARK    2  A    between atoms: C_3  and  C_4
REMARK    3  A    between atoms: C_13  and  C_14
REMARK    4  A    between atoms: C_14  and  C_15
REMARK    5  A    between atoms: N_17  and  C_18
REMARK    6  A    between atoms: C_18  and  C_19
REMARK    7  A    between atoms: N_26  and  C_27
REMARK    8  A    between atoms: C_27  and  C_28
REMARK    9  A    between atoms: C_28  and  C_29
REMARK                            x       y       z     vdW  Elec       q    Type
REMARK                         _______ _______ _______ _____ _____    ______ ____
ROOT
ATOM      1  C   UNL     1       1.208   5.183  17.683  0.00  0.00    +0.000 C 
ATOM      2  C   UNL     1       2.623   5.264  18.228  0.00  0.00    +0.000 C 
ATOM      3  C   UNL     1       3.018   6.144  19.199  0.00  0.00    +0.000 C 
ATOM      4  C   UNL     1       4.463   6.122  19.594  0.00  0.00    +0.000 C 
ATOM      5  C   UNL     1       5.411   5.817  18.464  0.00  0.00    +0.000 C 
ATOM      6  C   UNL     1       4.966   4.524  17.849  0.00  0.00    +0.000 C 
ATOM      7  O   UNL     1       5.833   3.745  17.456  0.00  0.00    +0.000 OA
ATOM      8  N   UNL     1       3.573   4.347  17.692  0.00  0.00    +0.000 N 
ENDROOT
BRANCH   3   9
ATOM      9  C   UNL     1       2.119   7.187  19.847  0.00  0.00    +0.000 C 
ATOM     10  O   UNL     1       1.546   6.904  20.887  0.00  0.00    +0.000 OA
ATOM     11  N   UNL     1       1.901   8.430  19.234  0.00  0.00    +0.000 N 
ATOM     12  C   UNL     1       2.314   8.847  17.885  0.00  0.00    +0.000 C 
ATOM     13  C   UNL     1       2.485  10.351  17.728  0.00  0.00    +0.000 C 
ATOM     14  O   UNL     1       1.299  11.034  18.127  0.00  0.00    +0.000 OA
ATOM     15  C   UNL     1       1.021  10.754  19.506  0.00  0.00    +0.000 C 
ATOM     16  C   UNL     1       0.805   9.258  19.761  0.00  0.00    +0.000 C 
ENDBRANCH   3   9
BRANCH   5  17
ATOM     17  C   UNL     1       5.525   6.919  17.412  0.00  0.00    +0.000 C 
BRANCH  17  18
ATOM     18  C   UNL     1       6.689   6.651  16.471  0.00  0.00    +0.000 C 
ATOM     19  O   UNL     1       7.799   7.158  16.623  0.00  0.00    +0.000 OA
ATOM     20  N   UNL     1       6.381   5.807  15.434  0.00  0.00    +0.000 N 
ATOM     21  H   UNL     1       5.532   5.263  15.454  0.00  0.00    +0.000 HD
BRANCH  20  22
ATOM     22  C   UNL     1       7.375   5.439  14.451  0.00  0.00    +0.000 C 
BRANCH  22  23
ATOM     23  C   UNL     1       6.761   4.508  13.475  0.00  0.00    +0.000 A 
ATOM     24  C   UNL     1       5.601   3.760  13.483  0.00  0.00    +0.000 A 
ATOM     25  C   UNL     1       5.555   3.079  12.244  0.00  0.00    +0.000 A 
ATOM     26  C   UNL     1       6.690   3.446  11.562  0.00  0.00    +0.000 A 
ATOM     27  O   UNL     1       7.432   4.312  12.301  0.00  0.00    +0.000 OA
ENDBRANCH  22  23
ENDBRANCH  20  22
ENDBRANCH  17  18
ENDBRANCH   5  17
BRANCH   8  28
ATOM     28  C   UNL     1       3.146   3.214  16.833  0.00  0.00    +0.000 C 
BRANCH  28  29
ATOM     29  C   UNL     1       2.673   1.948  17.579  0.00  0.00    +0.000 C 
BRANCH  29  30
ATOM     30  C   UNL     1       2.359   2.177  19.042  0.00  0.00    +0.000 C 
ATOM     31  C   UNL     1       3.339   2.143  19.966  0.00  0.00    +0.000 C 
ATOM     32  C   UNL     1       3.125   2.367  21.430  0.00  0.00    +0.000 C 
ATOM     33  C   UNL     1       1.652   2.299  21.825  0.00  0.00    +0.000 C 
ATOM     34  C   UNL     1       0.782   3.055  20.827  0.00  0.00    +0.000 C 
ATOM     35  C   UNL     1       0.930   2.483  19.414  0.00  0.00    +0.000 C 
ENDBRANCH  29  30
ENDBRANCH  28  29
ENDBRANCH   8  28
TORSDOF 8
ENDMDL
MODEL 5
REMARK VINA RESULT:      -7.9      2.806      7.804
REMARK  Name = 
REMARK  9 active torsions:
REMARK  status: ('A' for Active; 'I' for Inactive)
REMARK    1  A    between atoms: C_1  and  C_2
REMARK    2  A    between atoms: C_3  and  C_4
REMARK    3  A    between atoms: C_13  and  C_14
REMARK    4  A    between atoms: C_14  and  C_15
REMARK    5  A    between atoms: N_17  and  C_18
REMARK    6  A    between atoms: C_18  and  C_19
REMARK    7  A    between atoms: N_26  and  C_27
REMARK    8  A    between atoms: C_27  and  C_28
REMARK    9  A    between atoms: C_28  and  C_29
REMARK                            x       y       z     vdW  Elec       q    Type
REMARK                         _______ _______ _______ _____ _____    ______ ____
ROOT
ATOM      1  C   UNL     1       1.447  13.329  21.420  0.00  0.00    +0.000 C 
ATOM      2  C   UNL     1       0.927  12.188  20.564  0.00  0.00    +0.000 C 
ATOM      3  C   UNL     1      -0.133  11.394  20.910  0.00  0.00    +0.000 C 
ATOM      4  C   UNL     1      -0.490  10.284  19.971  0.00  0.00    +0.000 C 
ATOM      5  C   UNL     1       0.688   9.655  19.275  0.00  0.00    +0.000 C 
ATOM      6  C   UNL     1       1.443  10.759  18.596  0.00  0.00    +0.000 C 
ATOM      7  O   UNL     1       1.943  10.522  17.498  0.00  0.00    +0.000 OA
ATOM      8  N   UNL     1       1.589  11.961  19.322  0.00  0.00    +0.000 N 
ENDROOT
BRANCH   3   9
ATOM      9  C   UNL     1      -0.919  11.509  22.208  0.00  0.00    +0.000 C 
ATOM     10  O   UNL     1      -0.521  10.903  23.191  0.00  0.00    +0.000 OA
ATOM     11  N   UNL     1      -2.111  12.245  22.265  0.00  0.00    +0.000 N 
ATOM     12  C   UNL     1      -2.853  12.835  21.139  0.00  0.00    +0.000 C 
ATOM     13  C   UNL     1      -3.715  14.029  21.525  0.00  0.00    +0.000 C 
ATOM     14  O   UNL     1      -4.600  13.686  22.588  0.00  0.00    +0.000 OA
ATOM     15  C   UNL     1      -3.841  13.288  23.739  0.00  0.00    +0.000 C 
ATOM     16  C   UNL     1      -2.957  12.068  23.456  0.00  0.00    +0.000 C 
ENDBRANCH   3   9
BRANCH   5  17
ATOM     17  C   UNL     1       1.604   8.838  20.185  0.00  0.00    +0.000 C 
BRANCH  17  18
ATOM     18  C   UNL     1       2.144   7.617  19.455  0.00  0.00    +0.000 C 
ATOM     19  O   UNL     1       2.033   7.464  18.240  0.00  0.00    +0.000 OA
ATOM     20  N   UNL     1       2.750   6.702  20.278  0.00  0.00    +0.000 N 
ATOM     21  H   UNL     1       2.994   6.950  21.225  0.00  0.00    +0.000 HD
BRANCH  20  22
ATOM     22  C   UNL     1       3.325   5.486  19.748  0.00  0.00    +0.000 C 
BRANCH  22  23
ATOM     23  C   UNL     1       2.349   4.384  19.910  0.00  0.00    +0.000 A 
ATOM     24  C   UNL     1       1.524   3.714  19.028  0.00  0.00    +0.000 A 
ATOM     25  C   UNL     1       0.832   2.740  19.787  0.00  0.00    +0.000 A 
ATOM     26  C   UNL     1       1.270   2.881  21.082  0.00  0.00    +0.000 A 
ATOM     27  O   UNL     1       2.189   3.878  21.169  0.00  0.00    +0.000 OA
ENDBRANCH  22  23
ENDBRANCH  20  22
ENDBRANCH  17  18
ENDBRANCH   5  17
BRANCH   8  28
ATOM     28  C   UNL     1       2.566  12.941  18.783  0.00  0.00    +0.000 C 
BRANCH  28  29
ATOM     29  C   UNL     1       1.989  14.010  17.831  0.00  0.00    +0.000 C 
BRANCH  29  30
ATOM     30  C   UNL     1       1.441  15.231  18.537  0.00  0.00    +0.000 C 
ATOM     31  C   UNL     1       2.271  16.193  18.987  0.00  0.00    +0.000 C 
ATOM     32  C   UNL     1       1.820  17.437  19.685  0.00  0.00    +0.000 C 
ATOM     33  C   UNL     1       0.366  17.358  20.143  0.00  0.00    +0.000 C 
ATOM     34  C   UNL     1      -0.519  16.759  19.055  0.00  0.00    +0.000 C 
ATOM     35  C   UNL     1      -0.056  15.349  18.674  0.00  0.00    +0.000 C 
ENDBRANCH  29  30
ENDBRANCH  28  29
ENDBRANCH   8  28
TORSDOF 8
ENDMDL
MODEL 6
REMARK VINA RESULT:      -7.8      3.075      7.646
REMARK  Name = 
REMARK  9 active torsions:
REMARK  status: ('A' for Active; 'I' for Inactive)
REMARK    1  A    between atoms: C_1  and  C_2
REMARK    2  A    between atoms: C_3  and  C_4
REMARK    3  A    between atoms: C_13  and  C_14
REMARK    4  A    between atoms: C_14  and  C_15
REMARK    5  A    between atoms: N_17  and  C_18
REMARK    6  A    between atoms: C_18  and  C_19
REMARK    7  A    between atoms: N_26  and  C_27
REMARK    8  A    between atoms: C_27  and  C_28
REMARK    9  A    between atoms: C_28  and  C_29
REMARK                            x       y       z     vdW  Elec       q    Type
REMARK                         _______ _______ _______ _____ _____    ______ ____
ROOT
ATOM      1  C   UNL     1      -0.578  13.719  18.128  0.00  0.00    +0.000 C 
ATOM      2  C   UNL     1      -0.106  12.937  19.341  0.00  0.00    +0.000 C 
ATOM      3  C   UNL     1       1.208  12.662  19.609  0.00  0.00    +0.000 C 
ATOM      4  C   UNL     1       1.499  11.841  20.827  0.00  0.00    +0.000 C 
ATOM      5  C   UNL     1       0.463  10.791  21.132  0.00  0.00    +0.000 C 
ATOM      6  C   UNL     1      -0.863  11.487  21.214  0.00  0.00    +0.000 C 
ATOM      7  O   UNL     1      -1.668  11.095  22.057  0.00  0.00    +0.000 OA
ATOM      8  N   UNL     1      -1.110  12.488  20.249  0.00  0.00    +0.000 N 
ENDROOT
BRANCH   3   9
ATOM      9  C   UNL     1       2.379  13.060  18.723  0.00  0.00    +0.000 C 
ATOM     10  O   UNL     1       2.867  12.221  17.983  0.00  0.00    +0.000 OA
ATOM     11  N   UNL     1       2.931  14.347  18.795  0.00  0.00    +0.000 N 
ATOM     12  C   UNL     1       2.628  15.397  19.781  0.00  0.00    +0.000 C 
ATOM     13  C   UNL     1       2.891  16.810  19.280  0.00  0.00    +0.000 C 
ATOM     14  O   UNL     1       4.230  16.933  18.808  0.00  0.00    +0.000 OA
ATOM     15  C   UNL     1       4.443  16.023  17.720  0.00  0.00    +0.000 C 
ATOM     16  C   UNL     1       4.228  14.563  18.135  0.00  0.00    +0.000 C 
ENDBRANCH   3   9
BRANCH   5  17
ATOM     17  C   UNL     1       0.417   9.632  20.137  0.00  0.00    +0.000 C 
BRANCH  17  18
ATOM     18  C   UNL     1       1.377   8.527  20.548  0.00  0.00    +0.000 C 
ATOM     19  O   UNL     1       1.636   8.272  21.723  0.00  0.00    +0.000 OA
ATOM     20  N   UNL     1       1.934   7.853  19.491  0.00  0.00    +0.000 N 
ATOM     21  H   UNL     1       1.553   7.956  18.562  0.00  0.00    +0.000 HD
BRANCH  20  22
ATOM     22  C   UNL     1       2.862   6.766  19.703  0.00  0.00    +0.000 C 
BRANCH  22  23
ATOM     23  C   UNL     1       2.117   5.486  19.666  0.00  0.00    +0.000 A 
ATOM     24  C   UNL     1       1.406   4.777  20.614  0.00  0.00    +0.000 A 
ATOM     25  C   UNL     1       0.904   3.627  19.962  0.00  0.00    +0.000 A 
ATOM     26  C   UNL     1       1.344   3.699  18.662  0.00  0.00    +0.000 A 
ATOM     27  O   UNL     1       2.084   4.823  18.472  0.00  0.00    +0.000 OA
ENDBRANCH  22  23
ENDBRANCH  20  22
ENDBRANCH  17  18
ENDBRANCH   5  17
BRANCH   8  28
ATOM     28  C   UNL     1      -2.509  12.973  20.145  0.00  0.00    +0.000 C 
BRANCH  28  29
ATOM     29  C   UNL     1      -3.560  11.911  19.758  0.00  0.00    +0.000 C 
BRANCH  29  30
ATOM     30  C   UNL     1      -3.349  11.306  18.387  0.00  0.00    +0.000 C 
ATOM     31  C   UNL     1      -4.049  11.753  17.326  0.00  0.00    +0.000 C 
ATOM     32  C   UNL     1      -3.900  11.224  15.935  0.00  0.00    +0.000 C 
ATOM     33  C   UNL     1      -3.133   9.904  15.888  0.00  0.00    +0.000 C 
ATOM     34  C   UNL     1      -1.909   9.950  16.796  0.00  0.00    +0.000 C 
ATOM     35  C   UNL     1      -2.305  10.227  18.250  0.00  0.00    +0.000 C 
ENDBRANCH  29  30
ENDBRANCH  28  29
ENDBRANCH   8  28
TORSDOF 8
ENDMDL
MODEL 7
REMARK VINA RESULT:      -7.8      3.224      4.457
REMARK  Name = 
REMARK  9 active torsions:
REMARK  status: ('A' for Active; 'I' for Inactive)
REMARK    1  A    between atoms: C_1  and  C_2
REMARK    2  A    between atoms: C_3  and  C_4
REMARK    3  A    between atoms: C_13  and  C_14
REMARK    4  A    between atoms: C_14  and  C_15
REMARK    5  A    between atoms: N_17  and  C_18
REMARK    6  A    between atoms: C_18  and  C_19
REMARK    7  A    between atoms: N_26  and  C_27
REMARK    8  A    between atoms: C_27  and  C_28
REMARK    9  A    between atoms: C_28  and  C_29
REMARK                            x       y       z     vdW  Elec       q    Type
REMARK                         _______ _______ _______ _____ _____    ______ ____
ROOT
ATOM      1  C   UNL     1       2.010  11.946  20.552  0.00  0.00    +0.000 C 
ATOM      2  C   UNL     1       0.867  12.086  19.562  0.00  0.00    +0.000 C 
ATOM      3  C   UNL     1       0.377  13.287  19.125  0.00  0.00    +0.000 C 
ATOM      4  C   UNL     1      -0.783  13.248  18.179  0.00  0.00    +0.000 C 
ATOM      5  C   UNL     1      -1.749  12.118  18.425  0.00  0.00    +0.000 C 
ATOM      6  C   UNL     1      -0.955  10.846  18.411  0.00  0.00    +0.000 C 
ATOM      7  O   UNL     1      -1.474   9.849  17.911  0.00  0.00    +0.000 OA
ATOM      8  N   UNL     1       0.300  10.879  19.058  0.00  0.00    +0.000 N 
ENDROOT
BRANCH   3   9
ATOM      9  C   UNL     1       0.871  14.649  19.588  0.00  0.00    +0.000 C 
ATOM     10  O   UNL     1       0.166  15.305  20.339  0.00  0.00    +0.000 OA
ATOM     11  N   UNL     1       2.084  15.174  19.118  0.00  0.00    +0.000 N 
ATOM     12  C   UNL     1       2.935  14.635  18.045  0.00  0.00    +0.000 C 
ATOM     13  C   UNL     1       4.401  15.028  18.164  0.00  0.00    +0.000 C 
ATOM     14  O   UNL     1       4.534  16.445  18.251  0.00  0.00    +0.000 OA
ATOM     15  C   UNL     1       3.845  16.924  19.413  0.00  0.00    +0.000 C 
ATOM     16  C   UNL     1       2.347  16.599  19.374  0.00  0.00    +0.000 C 
ENDBRANCH   3   9
BRANCH   5  17
ATOM     17  C   UNL     1      -2.565  12.246  19.711  0.00  0.00    +0.000 C 
BRANCH  17  18
ATOM     18  C   UNL     1      -4.053  12.318  19.403  0.00  0.00    +0.000 C 
ATOM     19  O   UNL     1      -4.801  13.146  19.920  0.00  0.00    +0.000 OA
ATOM     20  N   UNL     1      -4.481  11.370  18.509  0.00  0.00    +0.000 N 
ATOM     21  H   UNL     1      -3.814  10.845  17.963  0.00  0.00    +0.000 HD
BRANCH  20  22
ATOM     22  C   UNL     1      -5.865  11.302  18.098  0.00  0.00    +0.000 C 
BRANCH  22  23
ATOM     23  C   UNL     1      -6.626  10.528  19.107  0.00  0.00    +0.000 A 
ATOM     24  C   UNL     1      -6.804   9.176  19.325  0.00  0.00    +0.000 A 
ATOM     25  C   UNL     1      -7.632   9.060  20.466  0.00  0.00    +0.000 A 
ATOM     26  C   UNL     1      -7.916  10.343  20.867  0.00  0.00    +0.000 A 
ATOM     27  O   UNL     1      -7.312  11.243  20.047  0.00  0.00    +0.000 OA
ENDBRANCH  22  23
ENDBRANCH  20  22
ENDBRANCH  17  18
ENDBRANCH   5  17
BRANCH   8  28
ATOM     28  C   UNL     1       0.953   9.567  19.297  0.00  0.00    +0.000 C 
BRANCH  28  29
ATOM     29  C   UNL     1       1.875   9.061  18.167  0.00  0.00    +0.000 C 
BRANCH  29  30
ATOM     30  C   UNL     1       2.519   7.722  18.450  0.00  0.00    +0.000 C 
ATOM     31  C   UNL     1       2.181   7.017  19.548  0.00  0.00    +0.000 C 
ATOM     32  C   UNL     1       2.756   5.683  19.904  0.00  0.00    +0.000 C 
ATOM     33  C   UNL     1       4.007   5.349  19.095  0.00  0.00    +0.000 C 
ATOM     34  C   UNL     1       3.818   5.703  17.624  0.00  0.00    +0.000 C 
ATOM     35  C   UNL     1       3.511   7.194  17.445  0.00  0.00    +0.000 C 
ENDBRANCH  29  30
ENDBRANCH  28  29
ENDBRANCH   8  28
TORSDOF 8
ENDMDL
MODEL 8
REMARK VINA RESULT:      -7.7      3.488      5.459
REMARK  Name = 
REMARK  9 active torsions:
REMARK  status: ('A' for Active; 'I' for Inactive)
REMARK    1  A    between atoms: C_1  and  C_2
REMARK    2  A    between atoms: C_3  and  C_4
REMARK    3  A    between atoms: C_13  and  C_14
REMARK    4  A    between atoms: C_14  and  C_15
REMARK    5  A    between atoms: N_17  and  C_18
REMARK    6  A    between atoms: C_18  and  C_19
REMARK    7  A    between atoms: N_26  and  C_27
REMARK    8  A    between atoms: C_27  and  C_28
REMARK    9  A    between atoms: C_28  and  C_29
REMARK                            x       y       z     vdW  Elec       q    Type
REMARK                         _______ _______ _______ _____ _____    ______ ____
ROOT
ATOM      1  C   UNL     1      -0.619   9.152  20.132  0.00  0.00    +0.000 C 
ATOM      2  C   UNL     1       0.338  10.328  20.045  0.00  0.00    +0.000 C 
ATOM      3  C   UNL     1       0.397  11.336  20.969  0.00  0.00    +0.000 C 
ATOM      4  C   UNL     1       1.370  12.444  20.710  0.00  0.00    +0.000 C 
ATOM      5  C   UNL     1       1.551  12.785  19.254  0.00  0.00    +0.000 C 
ATOM      6  C   UNL     1       1.924  11.518  18.544  0.00  0.00    +0.000 C 
ATOM      7  O   UNL     1       2.744  11.590  17.631  0.00  0.00    +0.000 OA
ATOM      8  N   UNL     1       1.230  10.351  18.933  0.00  0.00    +0.000 N 
ENDROOT
BRANCH   3   9
ATOM      9  C   UNL     1      -0.503  11.450  22.191  0.00  0.00    +0.000 C 
ATOM     10  O   UNL     1      -0.213  10.818  23.194  0.00  0.00    +0.000 OA
ATOM     11  N   UNL     1      -1.677  12.216  22.151  0.00  0.00    +0.000 N 
ATOM     12  C   UNL     1      -2.297  12.844  20.973  0.00  0.00    +0.000 C 
ATOM     13  C   UNL     1      -3.160  14.055  21.300  0.00  0.00    +0.000 C 
ATOM     14  O   UNL     1      -4.148  13.717  22.270  0.00  0.00    +0.000 OA
ATOM     15  C   UNL     1      -3.509  13.281  23.478  0.00  0.00    +0.000 C 
ATOM     16  C   UNL     1      -2.634  12.043  23.256  0.00  0.00    +0.000 C 
ENDBRANCH   3   9
BRANCH   5  17
ATOM     17  C   UNL     1       0.339  13.448  18.600  0.00  0.00    +0.000 C 
BRANCH  17  18
ATOM     18  C   UNL     1       0.428  14.963  18.705  0.00  0.00    +0.000 C 
ATOM     19  O   UNL     1      -0.562  15.682  18.829  0.00  0.00    +0.000 OA
ATOM     20  N   UNL     1       1.709  15.450  18.638  0.00  0.00    +0.000 N 
ATOM     21  H   UNL     1       2.497  14.828  18.735  0.00  0.00    +0.000 HD
BRANCH  20  22
ATOM     22  C   UNL     1       1.975  16.868  18.731  0.00  0.00    +0.000 C 
BRANCH  22  23
ATOM     23  C   UNL     1       3.230  17.070  19.492  0.00  0.00    +0.000 A 
ATOM     24  C   UNL     1       3.509  17.205  20.837  0.00  0.00    +0.000 A 
ATOM     25  C   UNL     1       4.912  17.356  20.943  0.00  0.00    +0.000 A 
ATOM     26  C   UNL     1       5.400  17.313  19.658  0.00  0.00    +0.000 A 
ATOM     27  O   UNL     1       4.387  17.143  18.769  0.00  0.00    +0.000 OA
ENDBRANCH  22  23
ENDBRANCH  20  22
ENDBRANCH  17  18
ENDBRANCH   5  17
BRANCH   8  28
ATOM     28  C   UNL     1       1.385   9.167  18.050  0.00  0.00    +0.000 C 
BRANCH  28  29
ATOM     29  C   UNL     1       2.618   8.281  18.326  0.00  0.00    +0.000 C 
BRANCH  29  30
ATOM     30  C   UNL     1       2.278   6.875  18.774  0.00  0.00    +0.000 C 
ATOM     31  C   UNL     1       2.211   5.869  17.880  0.00  0.00    +0.000 C 
ATOM     32  C   UNL     1       1.893   4.450  18.230  0.00  0.00    +0.000 C 
ATOM     33  C   UNL     1       1.318   4.308  19.637  0.00  0.00    +0.000 C 
ATOM     34  C   UNL     1       2.096   5.159  20.635  0.00  0.00    +0.000 C 
ATOM     35  C   UNL     1       2.064   6.641  20.248  0.00  0.00    +0.000 C 
ENDBRANCH  29  30
ENDBRANCH  28  29
ENDBRANCH   8  28
TORSDOF 8
ENDMDL
MODEL 9
REMARK VINA RESULT:      -7.7      2.129      3.322
REMARK  Name = 
REMARK  9 active torsions:
REMARK  status: ('A' for Active; 'I' for Inactive)
REMARK    1  A    between atoms: C_1  and  C_2
REMARK    2  A    between atoms: C_3  and  C_4
REMARK    3  A    between atoms: C_13  and  C_14
REMARK    4  A    between atoms: C_14  and  C_15
REMARK    5  A    between atoms: N_17  and  C_18
REMARK    6  A    between atoms: C_18  and  C_19
REMARK    7  A    between atoms: N_26  and  C_27
REMARK    8  A    between atoms: C_27  and  C_28
REMARK    9  A    between atoms: C_28  and  C_29
REMARK                            x       y       z     vdW  Elec       q    Type
REMARK                         _______ _______ _______ _____ _____    ______ ____
ROOT
ATOM      1  C   UNL     1      -0.769  10.860  22.711  0.00  0.00    +0.000 C 
ATOM      2  C   UNL     1      -0.969  11.415  21.312  0.00  0.00    +0.000 C 
ATOM      3  C   UNL     1      -1.384  12.692  21.048  0.00  0.00    +0.000 C 
ATOM      4  C   UNL     1      -1.573  13.066  19.611  0.00  0.00    +0.000 C 
ATOM      5  C   UNL     1      -2.077  11.947  18.738  0.00  0.00    +0.000 C 
ATOM      6  C   UNL     1      -1.136  10.792  18.911  0.00  0.00    +0.000 C 
ATOM      7  O   UNL     1      -0.882  10.104  17.923  0.00  0.00    +0.000 OA
ATOM      8  N   UNL     1      -0.686  10.537  20.225  0.00  0.00    +0.000 N 
ENDROOT
BRANCH   3   9
ATOM      9  C   UNL     1      -1.739  13.728  22.105  0.00  0.00    +0.000 C 
ATOM     10  O   UNL     1      -0.858  14.458  22.531  0.00  0.00    +0.000 OA
ATOM     11  N   UNL     1      -3.038  13.806  22.629  0.00  0.00    +0.000 N 
ATOM     12  C   UNL     1      -4.149  12.866  22.409  0.00  0.00    +0.000 C 
ATOM     13  C   UNL     1      -5.528  13.490  22.580  0.00  0.00    +0.000 C 
ATOM     14  O   UNL     1      -5.640  14.115  23.855  0.00  0.00    +0.000 OA
ATOM     15  C   UNL     1      -4.659  15.155  23.971  0.00  0.00    +0.000 C 
ATOM     16  C   UNL     1      -3.229  14.619  23.840  0.00  0.00    +0.000 C 
ENDBRANCH   3   9
BRANCH   5  17
ATOM     17  C   UNL     1      -3.521  11.528  19.009  0.00  0.00    +0.000 C 
BRANCH  17  18
ATOM     18  C   UNL     1      -4.403  11.811  17.803  0.00  0.00    +0.000 C 
ATOM     19  O   UNL     1      -4.094  11.480  16.659  0.00  0.00    +0.000 OA
ATOM     20  N   UNL     1      -5.563  12.478  18.107  0.00  0.00    +0.000 N 
ATOM     21  H   UNL     1      -5.871  12.555  19.065  0.00  0.00    +0.000 HD
BRANCH  20  22
ATOM     22  C   UNL     1      -6.520  12.818  17.079  0.00  0.00    +0.000 C 
BRANCH  22  23
ATOM     23  C   UNL     1      -6.769  14.279  17.122  0.00  0.00    +0.000 A 
ATOM     24  C   UNL     1      -7.184  15.196  16.176  0.00  0.00    +0.000 A 
ATOM     25  C   UNL     1      -7.251  16.446  16.833  0.00  0.00    +0.000 A 
ATOM     26  C   UNL     1      -6.866  16.218  18.133  0.00  0.00    +0.000 A 
ATOM     27  O   UNL     1      -6.569  14.906  18.318  0.00  0.00    +0.000 OA
ENDBRANCH  22  23
ENDBRANCH  20  22
ENDBRANCH  17  18
ENDBRANCH   5  17
BRANCH   8  28
ATOM     28  C   UNL     1       0.005   9.241  20.445  0.00  0.00    +0.000 C 
BRANCH  28  29
ATOM     29  C   UNL     1       1.448   9.150  19.907  0.00  0.00    +0.000 C 
BRANCH  29  30
ATOM     30  C   UNL     1       1.894   7.743  19.575  0.00  0.00    +0.000 C 
ATOM     31  C   UNL     1       2.564   7.488  18.433  0.00  0.00    +0.000 C 
ATOM     32  C   UNL     1       3.051   6.133  18.027  0.00  0.00    +0.000 C 
ATOM     33  C   UNL     1       2.426   5.012  18.854  0.00  0.00    +0.000 C 
ATOM     34  C   UNL     1       2.400   5.374  20.335  0.00  0.00    +0.000 C 
ATOM     35  C   UNL     1       1.601   6.658  20.580  0.00  0.00    +0.000 C 
ENDBRANCH  29  30
ENDBRANCH  28  29
ENDBRANCH   8  28
TORSDOF 8
ENDMDL
