MODEL 1
REMARK VINA RESULT:      -9.8      0.000      0.000
REMARK  Name = 
REMARK  5 active torsions:
REMARK  status: ('A' for Active; 'I' for Inactive)
REMARK    1  A    between atoms: C_5  and  C_6
REMARK    2  A    between atoms: C_9  and  C_10
REMARK    3  A    between atoms: C_15  and  S_16
REMARK    4  A    between atoms: S_16  and  N_19
REMARK    5  A    between atoms: N_19  and  C_20
REMARK                            x       y       z     vdW  Elec       q    Type
REMARK                         _______ _______ _______ _____ _____    ______ ____
ROOT
ATOM      1  C   UNL     1       0.611   9.613  20.787  0.00  0.00    +0.000 A 
ATOM      2  C   UNL     1       0.235   9.092  22.066  0.00  0.00    +0.000 A 
ATOM      3  C   UNL     1      -0.468   9.805  23.048  0.00  0.00    +0.000 A 
ATOM      4  C   UNL     1      -0.847  11.104  22.809  0.00  0.00    +0.000 A 
ATOM      5  C   UNL     1      -0.510  11.675  21.595  0.00  0.00    +0.000 A 
ATOM      6  C   UNL     1       0.211  10.967  20.588  0.00  0.00    +0.000 A 
ENDROOT
BRANCH   1  10
ATOM      7  C   UNL     1       3.068   6.985  18.187  0.00  0.00    +0.000 A 
ATOM      8  C   UNL     1       2.480   8.148  17.708  0.00  0.00    +0.000 A 
ATOM      9  C   UNL     1       1.635   8.928  18.513  0.00  0.00    +0.000 A 
ATOM     10  C   UNL     1       1.382   8.683  19.862  0.00  0.00    +0.000 A 
ATOM     11  C   UNL     1       1.943   7.462  20.306  0.00  0.00    +0.000 A 
ATOM     12  C   UNL     1       2.748   6.641  19.494  0.00  0.00    +0.000 A 
ATOM     13  F   UNL     1       3.226   5.510  20.037  0.00  0.00    +0.000 F 
BRANCH   7  18
ATOM     14  N   UNL     1       6.366   3.968  14.875  0.00  0.00    +0.000 N 
ATOM     15  C   UNL     1       5.586   4.720  15.747  0.00  0.00    +0.000 A 
ATOM     16  C   UNL     1       4.582   4.150  16.518  0.00  0.00    +0.000 A 
ATOM     17  N   UNL     1       3.775   4.874  17.330  0.00  0.00    +0.000 NA
ATOM     18  C   UNL     1       3.976   6.214  17.332  0.00  0.00    +0.000 A 
ATOM     19  C   UNL     1       4.992   6.773  16.567  0.00  0.00    +0.000 A 
ATOM     20  N   UNL     1       5.811   6.045  15.763  0.00  0.00    +0.000 NA
ATOM     21  H   UNL     1       6.811   3.185  15.341  0.00  0.00    +0.000 HD
ATOM     22  H   UNL     1       7.045   4.606  14.467  0.00  0.00    +0.000 HD
ENDBRANCH   7  18
ENDBRANCH   1  10
BRANCH   6  23
ATOM     23  S   UNL     1       0.393  11.961  19.115  0.00  0.00    +0.000 S 
ATOM     24  O   UNL     1      -0.117  13.284  19.417  0.00  0.00    +0.000 OA
ATOM     25  O   UNL     1       1.747  11.826  18.623  0.00  0.00    +0.000 OA
BRANCH  23  26
ATOM     26  N   UNL     1      -0.626  11.301  17.939  0.00  0.00    +0.000 NA
ATOM     27  H   UNL     1      -0.630  10.287  18.034  0.00  0.00    +0.000 HD
BRANCH  26  28
ATOM     28  C   UNL     1      -1.918  11.912  17.594  0.00  0.00    +0.000 C 
ATOM     29  C   UNL     1      -2.990  11.663  18.674  0.00  0.00    +0.000 C 
ATOM     30  C   UNL     1      -4.023  10.786  17.957  0.00  0.00    +0.000 C 
ATOM     31  C   UNL     1      -3.385   9.411  17.663  0.00  0.00    +0.000 C 
ATOM     32  C   UNL     1      -2.530   9.692  16.422  0.00  0.00    +0.000 C 
ATOM     33  C   UNL     1      -2.560  11.231  16.339  0.00  0.00    +0.000 C 
ATOM     34  C   UNL     1      -4.059  11.453  16.585  0.00  0.00    +0.000 C 
ENDBRANCH  26  28
ENDBRANCH  23  26
ENDBRANCH   6  23
TORSDOF 5
ENDMDL
MODEL 2
REMARK VINA RESULT:      -9.5      0.818      1.264
REMARK  Name = 
REMARK  5 active torsions:
REMARK  status: ('A' for Active; 'I' for Inactive)
REMARK    1  A    between atoms: C_5  and  C_6
REMARK    2  A    between atoms: C_9  and  C_10
REMARK    3  A    between atoms: C_15  and  S_16
REMARK    4  A    between atoms: S_16  and  N_19
REMARK    5  A    between atoms: N_19  and  C_20
REMARK                            x       y       z     vdW  Elec       q    Type
REMARK                         _______ _______ _______ _____ _____    ______ ____
ROOT
ATOM      1  C   UNL     1       0.379  10.010  20.918  0.00  0.00    +0.000 A 
ATOM      2  C   UNL     1      -0.065   9.618  22.221  0.00  0.00    +0.000 A 
ATOM      3  C   UNL     1      -0.722  10.457  23.132  0.00  0.00    +0.000 A 
ATOM      4  C   UNL     1      -0.984  11.762  22.790  0.00  0.00    +0.000 A 
ATOM      5  C   UNL     1      -0.576  12.213  21.548  0.00  0.00    +0.000 A 
ATOM      6  C   UNL     1       0.100  11.375  20.613  0.00  0.00    +0.000 A 
ENDROOT
BRANCH   1  10
ATOM      7  C   UNL     1       2.650   6.997  18.577  0.00  0.00    +0.000 A 
ATOM      8  C   UNL     1       2.188   8.176  18.005  0.00  0.00    +0.000 A 
ATOM      9  C   UNL     1       1.398   9.082  18.728  0.00  0.00    +0.000 A 
ATOM     10  C   UNL     1       1.085   8.953  20.081  0.00  0.00    +0.000 A 
ATOM     11  C   UNL     1       1.514   7.717  20.621  0.00  0.00    +0.000 A 
ATOM     12  C   UNL     1       2.261   6.773  19.892  0.00  0.00    +0.000 A 
ATOM     13  F   UNL     1       2.613   5.641  20.521  0.00  0.00    +0.000 F 
BRANCH   7  18
ATOM     14  N   UNL     1       6.041   3.636  15.724  0.00  0.00    +0.000 N 
ATOM     15  C   UNL     1       5.155   4.478  16.388  0.00  0.00    +0.000 A 
ATOM     16  C   UNL     1       5.359   5.849  16.468  0.00  0.00    +0.000 A 
ATOM     17  N   UNL     1       4.539   6.677  17.156  0.00  0.00    +0.000 NA
ATOM     18  C   UNL     1       3.504   6.090  17.805  0.00  0.00    +0.000 A 
ATOM     19  C   UNL     1       3.301   4.720  17.708  0.00  0.00    +0.000 A 
ATOM     20  N   UNL     1       4.116   3.890  17.004  0.00  0.00    +0.000 NA
ATOM     21  H   UNL     1       6.201   3.930  14.768  0.00  0.00    +0.000 HD
ATOM     22  H   UNL     1       5.648   2.700  15.776  0.00  0.00    +0.000 HD
ENDBRANCH   7  18
ENDBRANCH   1  10
BRANCH   6  23
ATOM     23  S   UNL     1       0.395  12.238  19.077  0.00  0.00    +0.000 S 
ATOM     24  O   UNL     1       0.104  13.641  19.304  0.00  0.00    +0.000 OA
ATOM     25  O   UNL     1       1.698  11.864  18.572  0.00  0.00    +0.000 OA
BRANCH  23  26
ATOM     26  N   UNL     1      -0.745  11.677  17.963  0.00  0.00    +0.000 NA
ATOM     27  H   UNL     1      -0.282  11.067  17.291  0.00  0.00    +0.000 HD
BRANCH  26  28
ATOM     28  C   UNL     1      -2.096  11.262  18.370  0.00  0.00    +0.000 C 
ATOM     29  C   UNL     1      -2.250   9.728  18.410  0.00  0.00    +0.000 C 
ATOM     30  C   UNL     1      -3.269   9.441  17.301  0.00  0.00    +0.000 C 
ATOM     31  C   UNL     1      -2.624   9.770  15.938  0.00  0.00    +0.000 C 
ATOM     32  C   UNL     1      -2.740  11.298  15.867  0.00  0.00    +0.000 C 
ATOM     33  C   UNL     1      -3.168  11.665  17.302  0.00  0.00    +0.000 C 
ATOM     34  C   UNL     1      -4.248  10.594  17.510  0.00  0.00    +0.000 C 
ENDBRANCH  26  28
ENDBRANCH  23  26
ENDBRANCH   6  23
TORSDOF 5
ENDMDL
MODEL 3
REMARK VINA RESULT:      -9.3      3.523      8.290
REMARK  Name = 
REMARK  5 active torsions:
REMARK  status: ('A' for Active; 'I' for Inactive)
REMARK    1  A    between atoms: C_5  and  C_6
REMARK    2  A    between atoms: C_9  and  C_10
REMARK    3  A    between atoms: C_15  and  S_16
REMARK    4  A    between atoms: S_16  and  N_19
REMARK    5  A    between atoms: N_19  and  C_20
REMARK                            x       y       z     vdW  Elec       q    Type
REMARK                         _______ _______ _______ _____ _____    ______ ____
ROOT
ATOM      1  C   UNL     1       2.083   4.866  20.270  0.00  0.00    +0.000 A 
ATOM      2  C   UNL     1       2.170   4.444  21.634  0.00  0.00    +0.000 A 
ATOM      3  C   UNL     1       2.352   3.118  22.055  0.00  0.00    +0.000 A 
ATOM      4  C   UNL     1       2.462   2.115  21.122  0.00  0.00    +0.000 A 
ATOM      5  C   UNL     1       2.378   2.450  19.782  0.00  0.00    +0.000 A 
ATOM      6  C   UNL     1       2.186   3.792  19.338  0.00  0.00    +0.000 A 
ENDROOT
BRANCH   1  10
ATOM      7  C   UNL     1       1.237   9.152  19.479  0.00  0.00    +0.000 A 
ATOM      8  C   UNL     1       1.931   8.361  18.573  0.00  0.00    +0.000 A 
ATOM      9  C   UNL     1       2.269   7.031  18.867  0.00  0.00    +0.000 A 
ATOM     10  C   UNL     1       1.872   6.352  20.018  0.00  0.00    +0.000 A 
ATOM     11  C   UNL     1       1.221   7.196  20.950  0.00  0.00    +0.000 A 
ATOM     12  C   UNL     1       0.924   8.547  20.691  0.00  0.00    +0.000 A 
ATOM     13  F   UNL     1       0.297   9.240  21.654  0.00  0.00    +0.000 F 
BRANCH   7  18
ATOM     14  N   UNL     1      -0.290  14.364  18.276  0.00  0.00    +0.000 N 
ATOM     15  C   UNL     1       0.098  13.049  18.515  0.00  0.00    +0.000 A 
ATOM     16  C   UNL     1      -0.824  12.039  18.752  0.00  0.00    +0.000 A 
ATOM     17  N   UNL     1      -0.464  10.766  19.043  0.00  0.00    +0.000 NA
ATOM     18  C   UNL     1       0.867  10.526  19.125  0.00  0.00    +0.000 A 
ATOM     19  C   UNL     1       1.781  11.540  18.873  0.00  0.00    +0.000 A 
ATOM     20  N   UNL     1       1.420  12.814  18.567  0.00  0.00    +0.000 NA
ATOM     21  H   UNL     1      -0.951  14.431  17.510  0.00  0.00    +0.000 HD
ATOM     22  H   UNL     1       0.561  14.890  18.094  0.00  0.00    +0.000 HD
ENDBRANCH   7  18
ENDBRANCH   1  10
BRANCH   6  23
ATOM     23  S   UNL     1       2.222   3.885  17.555  0.00  0.00    +0.000 S 
ATOM     24  O   UNL     1       2.352   2.531  17.050  0.00  0.00    +0.000 OA
ATOM     25  O   UNL     1       1.113   4.698  17.105  0.00  0.00    +0.000 OA
BRANCH  23  26
ATOM     26  N   UNL     1       3.638   4.704  17.126  0.00  0.00    +0.000 NA
ATOM     27  H   UNL     1       3.472   5.707  17.182  0.00  0.00    +0.000 HD
BRANCH  26  28
ATOM     28  C   UNL     1       4.965   4.254  17.574  0.00  0.00    +0.000 C 
ATOM     29  C   UNL     1       5.489   5.075  18.769  0.00  0.00    +0.000 C 
ATOM     30  C   UNL     1       6.714   5.798  18.197  0.00  0.00    +0.000 C 
ATOM     31  C   UNL     1       6.237   6.826  17.150  0.00  0.00    +0.000 C 
ATOM     32  C   UNL     1       5.978   5.956  15.913  0.00  0.00    +0.000 C 
ATOM     33  C   UNL     1       6.061   4.529  16.489  0.00  0.00    +0.000 C 
ATOM     34  C   UNL     1       7.325   4.689  17.344  0.00  0.00    +0.000 C 
ENDBRANCH  26  28
ENDBRANCH  23  26
ENDBRANCH   6  23
TORSDOF 5
ENDMDL
MODEL 4
REMARK VINA RESULT:      -9.1      3.488      8.380
REMARK  Name = 
REMARK  5 active torsions:
REMARK  status: ('A' for Active; 'I' for Inactive)
REMARK    1  A    between atoms: C_5  and  C_6
REMARK    2  A    between atoms: C_9  and  C_10
REMARK    3  A    between atoms: C_15  and  S_16
REMARK    4  A    between atoms: S_16  and  N_19
REMARK    5  A    between atoms: N_19  and  C_20
REMARK                            x       y       z     vdW  Elec       q    Type
REMARK                         _______ _______ _______ _____ _____    ______ ____
ROOT
ATOM      1  C   UNL     1       2.191   5.069  19.985  0.00  0.00    +0.000 A 
ATOM      2  C   UNL     1       1.105   4.327  20.548  0.00  0.00    +0.000 A 
ATOM      3  C   UNL     1       1.125   2.950  20.813  0.00  0.00    +0.000 A 
ATOM      4  C   UNL     1       2.253   2.217  20.529  0.00  0.00    +0.000 A 
ATOM      5  C   UNL     1       3.340   2.870  19.974  0.00  0.00    +0.000 A 
ATOM      6  C   UNL     1       3.333   4.267  19.692  0.00  0.00    +0.000 A 
ENDROOT
BRANCH   1  10
ATOM      7  C   UNL     1       1.300   9.368  19.322  0.00  0.00    +0.000 A 
ATOM      8  C   UNL     1       1.800   8.558  18.311  0.00  0.00    +0.000 A 
ATOM      9  C   UNL     1       2.159   7.223  18.551  0.00  0.00    +0.000 A 
ATOM     10  C   UNL     1       1.968   6.558  19.762  0.00  0.00    +0.000 A 
ATOM     11  C   UNL     1       1.516   7.422  20.789  0.00  0.00    +0.000 A 
ATOM     12  C   UNL     1       1.203   8.777  20.576  0.00  0.00    +0.000 A 
ATOM     13  F   UNL     1       0.778   9.489  21.632  0.00  0.00    +0.000 F 
BRANCH   7  18
ATOM     14  N   UNL     1      -0.330  14.599  18.362  0.00  0.00    +0.000 N 
ATOM     15  C   UNL     1       0.077  13.281  18.540  0.00  0.00    +0.000 A 
ATOM     16  C   UNL     1      -0.817  12.268  18.858  0.00  0.00    +0.000 A 
ATOM     17  N   UNL     1      -0.433  10.991  19.091  0.00  0.00    +0.000 NA
ATOM     18  C   UNL     1       0.899  10.748  19.029  0.00  0.00    +0.000 A 
ATOM     19  C   UNL     1       1.784  11.765  18.698  0.00  0.00    +0.000 A 
ATOM     20  N   UNL     1       1.397  13.043  18.450  0.00  0.00    +0.000 NA
ATOM     21  H   UNL     1      -1.067  14.679  17.671  0.00  0.00    +0.000 HD
ATOM     22  H   UNL     1       0.498  15.127  18.100  0.00  0.00    +0.000 HD
ENDBRANCH   7  18
ENDBRANCH   1  10
BRANCH   6  23
ATOM     23  S   UNL     1       4.921   4.803  19.076  0.00  0.00    +0.000 S 
ATOM     24  O   UNL     1       5.254   6.043  19.750  0.00  0.00    +0.000 OA
ATOM     25  O   UNL     1       5.849   3.694  19.147  0.00  0.00    +0.000 OA
BRANCH  23  26
ATOM     26  N   UNL     1       4.723   5.173  17.439  0.00  0.00    +0.000 NA
ATOM     27  H   UNL     1       3.817   5.620  17.306  0.00  0.00    +0.000 HD
BRANCH  26  28
ATOM     28  C   UNL     1       5.821   5.710  16.622  0.00  0.00    +0.000 C 
ATOM     29  C   UNL     1       5.323   6.298  15.287  0.00  0.00    +0.000 C 
ATOM     30  C   UNL     1       5.944   5.373  14.234  0.00  0.00    +0.000 C 
ATOM     31  C   UNL     1       5.293   3.979  14.355  0.00  0.00    +0.000 C 
ATOM     32  C   UNL     1       6.025   3.364  15.555  0.00  0.00    +0.000 C 
ATOM     33  C   UNL     1       6.784   4.575  16.135  0.00  0.00    +0.000 C 
ATOM     34  C   UNL     1       7.335   5.160  14.827  0.00  0.00    +0.000 C 
ENDBRANCH  26  28
ENDBRANCH  23  26
ENDBRANCH   6  23
TORSDOF 5
ENDMDL
MODEL 5
REMARK VINA RESULT:      -9.1      2.092      2.928
REMARK  Name = 
REMARK  5 active torsions:
REMARK  status: ('A' for Active; 'I' for Inactive)
REMARK    1  A    between atoms: C_5  and  C_6
REMARK    2  A    between atoms: C_9  and  C_10
REMARK    3  A    between atoms: C_15  and  S_16
REMARK    4  A    between atoms: S_16  and  N_19
REMARK    5  A    between atoms: N_19  and  C_20
REMARK                            x       y       z     vdW  Elec       q    Type
REMARK                         _______ _______ _______ _____ _____    ______ ____
ROOT
ATOM      1  C   UNL     1      -0.426  10.576  20.926  0.00  0.00    +0.000 A 
ATOM      2  C   UNL     1      -0.378  10.714  22.349  0.00  0.00    +0.000 A 
ATOM      3  C   UNL     1      -1.188  11.578  23.100  0.00  0.00    +0.000 A 
ATOM      4  C   UNL     1      -2.113  12.371  22.464  0.00  0.00    +0.000 A 
ATOM      5  C   UNL     1      -2.208  12.296  21.085  0.00  0.00    +0.000 A 
ATOM      6  C   UNL     1      -1.387  11.428  20.307  0.00  0.00    +0.000 A 
ENDROOT
BRANCH   1  10
ATOM      7  C   UNL     1       2.222   7.605  18.958  0.00  0.00    +0.000 A 
ATOM      8  C   UNL     1       1.794   7.452  20.271  0.00  0.00    +0.000 A 
ATOM      9  C   UNL     1       1.029   8.437  20.913  0.00  0.00    +0.000 A 
ATOM     10  C   UNL     1       0.546   9.590  20.294  0.00  0.00    +0.000 A 
ATOM     11  C   UNL     1       1.046   9.750  18.980  0.00  0.00    +0.000 A 
ATOM     12  C   UNL     1       1.861   8.796  18.341  0.00  0.00    +0.000 A 
ATOM     13  F   UNL     1       2.264   9.063  17.090  0.00  0.00    +0.000 F 
BRANCH   7  18
ATOM     14  N   UNL     1       5.279   3.611  16.582  0.00  0.00    +0.000 N 
ATOM     15  C   UNL     1       4.486   4.619  17.121  0.00  0.00    +0.000 A 
ATOM     16  C   UNL     1       4.947   5.919  17.273  0.00  0.00    +0.000 A 
ATOM     17  N   UNL     1       4.211   6.900  17.847  0.00  0.00    +0.000 NA
ATOM     18  C   UNL     1       2.989   6.539  18.305  0.00  0.00    +0.000 A 
ATOM     19  C   UNL     1       2.531   5.239  18.137  0.00  0.00    +0.000 A 
ATOM     20  N   UNL     1       3.264   4.258  17.547  0.00  0.00    +0.000 NA
ATOM     21  H   UNL     1       5.647   3.862  15.672  0.00  0.00    +0.000 HD
ATOM     22  H   UNL     1       4.701   2.775  16.543  0.00  0.00    +0.000 HD
ENDBRANCH   7  18
ENDBRANCH   1  10
BRANCH   6  23
ATOM     23  S   UNL     1      -1.835  11.506  18.580  0.00  0.00    +0.000 S 
ATOM     24  O   UNL     1      -0.917  12.425  17.933  0.00  0.00    +0.000 OA
ATOM     25  O   UNL     1      -1.957  10.159  18.066  0.00  0.00    +0.000 OA
BRANCH  23  26
ATOM     26  N   UNL     1      -3.370  12.207  18.493  0.00  0.00    +0.000 NA
ATOM     27  H   UNL     1      -3.297  13.115  18.037  0.00  0.00    +0.000 HD
BRANCH  26  28
ATOM     28  C   UNL     1      -4.568  11.423  18.156  0.00  0.00    +0.000 C 
ATOM     29  C   UNL     1      -5.321  11.997  16.940  0.00  0.00    +0.000 C 
ATOM     30  C   UNL     1      -6.660  12.455  17.531  0.00  0.00    +0.000 C 
ATOM     31  C   UNL     1      -6.401  13.648  18.475  0.00  0.00    +0.000 C 
ATOM     32  C   UNL     1      -5.891  12.967  19.752  0.00  0.00    +0.000 C 
ATOM     33  C   UNL     1      -5.653  11.518  19.282  0.00  0.00    +0.000 C 
ATOM     34  C   UNL     1      -6.953  11.306  18.493  0.00  0.00    +0.000 C 
ENDBRANCH  26  28
ENDBRANCH  23  26
ENDBRANCH   6  23
TORSDOF 5
ENDMDL
MODEL 6
REMARK VINA RESULT:      -9.1      1.701      2.044
REMARK  Name = 
REMARK  5 active torsions:
REMARK  status: ('A' for Active; 'I' for Inactive)
REMARK    1  A    between atoms: C_5  and  C_6
REMARK    2  A    between atoms: C_9  and  C_10
REMARK    3  A    between atoms: C_15  and  S_16
REMARK    4  A    between atoms: S_16  and  N_19
REMARK    5  A    between atoms: N_19  and  C_20
REMARK                            x       y       z     vdW  Elec       q    Type
REMARK                         _______ _______ _______ _____ _____    ______ ____
ROOT
ATOM      1  C   UNL     1       0.081  10.494  21.174  0.00  0.00    +0.000 A 
ATOM      2  C   UNL     1      -0.476  10.363  22.486  0.00  0.00    +0.000 A 
ATOM      3  C   UNL     1      -1.215  11.355  23.147  0.00  0.00    +0.000 A 
ATOM      4  C   UNL     1      -1.450  12.558  22.526  0.00  0.00    +0.000 A 
ATOM      5  C   UNL     1      -0.934  12.757  21.257  0.00  0.00    +0.000 A 
ATOM      6  C   UNL     1      -0.174  11.762  20.574  0.00  0.00    +0.000 A 
ENDROOT
BRANCH   1  10
ATOM      7  C   UNL     1       2.161   6.955  19.483  0.00  0.00    +0.000 A 
ATOM      8  C   UNL     1       1.733   6.993  20.804  0.00  0.00    +0.000 A 
ATOM      9  C   UNL     1       1.154   8.147  21.354  0.00  0.00    +0.000 A 
ATOM     10  C   UNL     1       0.863   9.305  20.634  0.00  0.00    +0.000 A 
ATOM     11  C   UNL     1       1.363   9.261  19.311  0.00  0.00    +0.000 A 
ATOM     12  C   UNL     1       1.996   8.130  18.761  0.00  0.00    +0.000 A 
ATOM     13  F   UNL     1       2.420   8.213  17.491  0.00  0.00    +0.000 F 
BRANCH   7  18
ATOM     14  N   UNL     1       4.353   2.221  17.553  0.00  0.00    +0.000 N 
ATOM     15  C   UNL     1       3.827   3.434  17.985  0.00  0.00    +0.000 A 
ATOM     16  C   UNL     1       4.473   4.225  18.926  0.00  0.00    +0.000 A 
ATOM     17  N   UNL     1       3.951   5.380  19.400  0.00  0.00    +0.000 NA
ATOM     18  C   UNL     1       2.727   5.721  18.929  0.00  0.00    +0.000 A 
ATOM     19  C   UNL     1       2.095   4.930  17.978  0.00  0.00    +0.000 A 
ATOM     20  N   UNL     1       2.626   3.778  17.491  0.00  0.00    +0.000 NA
ATOM     21  H   UNL     1       5.299   2.319  17.202  0.00  0.00    +0.000 HD
ATOM     22  H   UNL     1       3.718   1.864  16.844  0.00  0.00    +0.000 HD
ENDBRANCH   7  18
ENDBRANCH   1  10
BRANCH   6  23
ATOM     23  S   UNL     1       0.253  12.304  18.927  0.00  0.00    +0.000 S 
ATOM     24  O   UNL     1      -0.119  13.701  18.818  0.00  0.00    +0.000 OA
ATOM     25  O   UNL     1       1.619  11.918  18.646  0.00  0.00    +0.000 OA
BRANCH  23  26
ATOM     26  N   UNL     1      -0.731  11.451  17.850  0.00  0.00    +0.000 NA
ATOM     27  H   UNL     1      -0.684  10.457  18.072  0.00  0.00    +0.000 HD
BRANCH  26  28
ATOM     28  C   UNL     1      -2.053  11.948  17.440  0.00  0.00    +0.000 C 
ATOM     29  C   UNL     1      -3.128  11.711  18.520  0.00  0.00    +0.000 C 
ATOM     30  C   UNL     1      -4.088  10.716  17.857  0.00  0.00    +0.000 C 
ATOM     31  C   UNL     1      -3.357   9.368  17.681  0.00  0.00    +0.000 C 
ATOM     32  C   UNL     1      -2.497   9.608  16.434  0.00  0.00    +0.000 C 
ATOM     33  C   UNL     1      -2.625  11.131  16.232  0.00  0.00    +0.000 C 
ATOM     34  C   UNL     1      -4.139  11.273  16.437  0.00  0.00    +0.000 C 
ENDBRANCH  26  28
ENDBRANCH  23  26
ENDBRANCH   6  23
TORSDOF 5
ENDMDL
MODEL 7
REMARK VINA RESULT:      -9.0      2.622      3.637
REMARK  Name = 
REMARK  5 active torsions:
REMARK  status: ('A' for Active; 'I' for Inactive)
REMARK    1  A    between atoms: C_5  and  C_6
REMARK    2  A    between atoms: C_9  and  C_10
REMARK    3  A    between atoms: C_15  and  S_16
REMARK    4  A    between atoms: S_16  and  N_19
REMARK    5  A    between atoms: N_19  and  C_20
REMARK                            x       y       z     vdW  Elec       q    Type
REMARK                         _______ _______ _______ _____ _____    ______ ____
ROOT
ATOM      1  C   UNL     1       0.594  11.429  18.875  0.00  0.00    +0.000 A 
ATOM      2  C   UNL     1       1.485  12.451  19.332  0.00  0.00    +0.000 A 
ATOM      3  C   UNL     1       1.195  13.823  19.342  0.00  0.00    +0.000 A 
ATOM      4  C   UNL     1      -0.025  14.266  18.891  0.00  0.00    +0.000 A 
ATOM      5  C   UNL     1      -0.934  13.331  18.427  0.00  0.00    +0.000 A 
ATOM      6  C   UNL     1      -0.652  11.934  18.403  0.00  0.00    +0.000 A 
ENDROOT
BRANCH   1  10
ATOM      7  C   UNL     1       2.273   7.328  19.157  0.00  0.00    +0.000 A 
ATOM      8  C   UNL     1       2.279   8.044  17.967  0.00  0.00    +0.000 A 
ATOM      9  C   UNL     1       1.670   9.304  17.865  0.00  0.00    +0.000 A 
ATOM     10  C   UNL     1       1.101   9.995  18.934  0.00  0.00    +0.000 A 
ATOM     11  C   UNL     1       1.054   9.219  20.118  0.00  0.00    +0.000 A 
ATOM     12  C   UNL     1       1.612   7.931  20.220  0.00  0.00    +0.000 A 
ATOM     13  F   UNL     1       1.507   7.302  21.401  0.00  0.00    +0.000 F 
BRANCH   7  18
ATOM     14  N   UNL     1       4.991   2.490  19.550  0.00  0.00    +0.000 N 
ATOM     15  C   UNL     1       4.289   3.681  19.397  0.00  0.00    +0.000 A 
ATOM     16  C   UNL     1       4.892   4.839  18.924  0.00  0.00    +0.000 A 
ATOM     17  N   UNL     1       4.240   6.021  18.821  0.00  0.00    +0.000 NA
ATOM     18  C   UNL     1       2.952   6.031  19.240  0.00  0.00    +0.000 A 
ATOM     19  C   UNL     1       2.353   4.865  19.698  0.00  0.00    +0.000 A 
ATOM     20  N   UNL     1       3.003   3.675  19.788  0.00  0.00    +0.000 NA
ATOM     21  H   UNL     1       5.455   2.209  18.694  0.00  0.00    +0.000 HD
ATOM     22  H   UNL     1       4.320   1.796  19.868  0.00  0.00    +0.000 HD
ENDBRANCH   7  18
ENDBRANCH   1  10
BRANCH   6  23
ATOM     23  S   UNL     1      -2.070  11.006  17.839  0.00  0.00    +0.000 S 
ATOM     24  O   UNL     1      -2.021  10.973  16.390  0.00  0.00    +0.000 OA
ATOM     25  O   UNL     1      -2.134   9.758  18.569  0.00  0.00    +0.000 OA
BRANCH  23  26
ATOM     26  N   UNL     1      -3.446  11.892  18.261  0.00  0.00    +0.000 NA
ATOM     27  H   UNL     1      -3.290  12.875  18.043  0.00  0.00    +0.000 HD
BRANCH  26  28
ATOM     28  C   UNL     1      -4.805  11.393  18.003  0.00  0.00    +0.000 C 
ATOM     29  C   UNL     1      -5.595  12.314  17.051  0.00  0.00    +0.000 C 
ATOM     30  C   UNL     1      -6.729  12.851  17.932  0.00  0.00    +0.000 C 
ATOM     31  C   UNL     1      -6.123  13.773  19.012  0.00  0.00    +0.000 C 
ATOM     32  C   UNL     1      -5.581  12.776  20.044  0.00  0.00    +0.000 C 
ATOM     33  C   UNL     1      -5.688  11.433  19.296  0.00  0.00    +0.000 C 
ATOM     34  C   UNL     1      -7.100  11.594  18.715  0.00  0.00    +0.000 C 
ENDBRANCH  26  28
ENDBRANCH  23  26
ENDBRANCH   6  23
TORSDOF 5
ENDMDL
MODEL 8
REMARK VINA RESULT:      -8.9      3.569      8.578
REMARK  Name = 
REMARK  5 active torsions:
REMARK  status: ('A' for Active; 'I' for Inactive)
REMARK    1  A    between atoms: C_5  and  C_6
REMARK    2  A    between atoms: C_9  and  C_10
REMARK    3  A    between atoms: C_15  and  S_16
REMARK    4  A    between atoms: S_16  and  N_19
REMARK    5  A    between atoms: N_19  and  C_20
REMARK                            x       y       z     vdW  Elec       q    Type
REMARK                         _______ _______ _______ _____ _____    ______ ____
ROOT
ATOM      1  C   UNL     1       2.942   4.794  18.862  0.00  0.00    +0.000 A 
ATOM      2  C   UNL     1       1.883   3.833  18.796  0.00  0.00    +0.000 A 
ATOM      3  C   UNL     1       2.062   2.443  18.758  0.00  0.00    +0.000 A 
ATOM      4  C   UNL     1       3.332   1.918  18.786  0.00  0.00    +0.000 A 
ATOM      5  C   UNL     1       4.405   2.790  18.842  0.00  0.00    +0.000 A 
ATOM      6  C   UNL     1       4.240   4.206  18.874  0.00  0.00    +0.000 A 
ENDROOT
BRANCH   1  10
ATOM      7  C   UNL     1       1.539   9.006  18.924  0.00  0.00    +0.000 A 
ATOM      8  C   UNL     1       2.022   8.410  17.766  0.00  0.00    +0.000 A 
ATOM      9  C   UNL     1       2.543   7.107  17.774  0.00  0.00    +0.000 A 
ATOM     10  C   UNL     1       2.541   6.262  18.883  0.00  0.00    +0.000 A 
ATOM     11  C   UNL     1       2.101   6.914  20.061  0.00  0.00    +0.000 A 
ATOM     12  C   UNL     1       1.627   8.239  20.079  0.00  0.00    +0.000 A 
ATOM     13  F   UNL     1       1.232   8.740  21.260  0.00  0.00    +0.000 F 
BRANCH   7  18
ATOM     14  N   UNL     1      -0.539  14.154  18.575  0.00  0.00    +0.000 N 
ATOM     15  C   UNL     1      -0.017  12.874  18.725  0.00  0.00    +0.000 A 
ATOM     16  C   UNL     1       1.331  12.600  18.534  0.00  0.00    +0.000 A 
ATOM     17  N   UNL     1       1.849  11.352  18.620  0.00  0.00    +0.000 NA
ATOM     18  C   UNL     1       0.967  10.355  18.874  0.00  0.00    +0.000 A 
ATOM     19  C   UNL     1      -0.377  10.641  19.076  0.00  0.00    +0.000 A 
ATOM     20  N   UNL     1      -0.894  11.896  19.004  0.00  0.00    +0.000 NA
ATOM     21  H   UNL     1      -0.054  14.833  19.150  0.00  0.00    +0.000 HD
ATOM     22  H   UNL     1      -1.528  14.094  18.807  0.00  0.00    +0.000 HD
ENDBRANCH   7  18
ENDBRANCH   1  10
BRANCH   6  23
ATOM     23  S   UNL     1       5.816   5.028  19.043  0.00  0.00    +0.000 S 
ATOM     24  O   UNL     1       5.629   6.413  18.655  0.00  0.00    +0.000 OA
ATOM     25  O   UNL     1       6.361   4.733  20.351  0.00  0.00    +0.000 OA
BRANCH  23  26
ATOM     26  N   UNL     1       6.863   4.340  17.908  0.00  0.00    +0.000 NA
ATOM     27  H   UNL     1       6.671   3.341  17.841  0.00  0.00    +0.000 HD
BRANCH  26  28
ATOM     28  C   UNL     1       7.190   5.010  16.641  0.00  0.00    +0.000 C 
ATOM     29  C   UNL     1       6.214   6.160  16.319  0.00  0.00    +0.000 C 
ATOM     30  C   UNL     1       5.497   5.677  15.053  0.00  0.00    +0.000 C 
ATOM     31  C   UNL     1       4.618   4.461  15.417  0.00  0.00    +0.000 C 
ATOM     32  C   UNL     1       5.632   3.312  15.469  0.00  0.00    +0.000 C 
ATOM     33  C   UNL     1       6.980   4.058  15.415  0.00  0.00    +0.000 C 
ATOM     34  C   UNL     1       6.660   5.050  14.289  0.00  0.00    +0.000 C 
ENDBRANCH  26  28
ENDBRANCH  23  26
ENDBRANCH   6  23
TORSDOF 5
ENDMDL
MODEL 9
REMARK VINA RESULT:      -8.8      3.880      8.479
REMARK  Name = 
REMARK  5 active torsions:
REMARK  status: ('A' for Active; 'I' for Inactive)
REMARK    1  A    between atoms: C_5  and  C_6
REMARK    2  A    between atoms: C_9  and  C_10
REMARK    3  A    between atoms: C_15  and  S_16
REMARK    4  A    between atoms: S_16  and  N_19
REMARK    5  A    between atoms: N_19  and  C_20
REMARK                            x       y       z     vdW  Elec       q    Type
REMARK                         _______ _______ _______ _____ _____    ______ ____
ROOT
ATOM      1  C   UNL     1       2.057   4.417  18.974  0.00  0.00    +0.000 A 
ATOM      2  C   UNL     1       0.796   3.754  18.832  0.00  0.00    +0.000 A 
ATOM      3  C   UNL     1       0.619   2.363  18.799  0.00  0.00    +0.000 A 
ATOM      4  C   UNL     1       1.710   1.534  18.911  0.00  0.00    +0.000 A 
ATOM      5  C   UNL     1       2.963   2.107  19.042  0.00  0.00    +0.000 A 
ATOM      6  C   UNL     1       3.160   3.519  19.070  0.00  0.00    +0.000 A 
ENDROOT
BRANCH   1  10
ATOM      7  C   UNL     1       1.765   8.847  18.984  0.00  0.00    +0.000 A 
ATOM      8  C   UNL     1       2.053   8.133  17.828  0.00  0.00    +0.000 A 
ATOM      9  C   UNL     1       2.228   6.741  17.850  0.00  0.00    +0.000 A 
ATOM     10  C   UNL     1       2.040   5.939  18.975  0.00  0.00    +0.000 A 
ATOM     11  C   UNL     1       1.808   6.696  20.148  0.00  0.00    +0.000 A 
ATOM     12  C   UNL     1       1.684   8.098  20.151  0.00  0.00    +0.000 A 
ATOM     13  F   UNL     1       1.458   8.698  21.330  0.00  0.00    +0.000 F 
BRANCH   7  18
ATOM     14  N   UNL     1       0.931  14.347  18.924  0.00  0.00    +0.000 N 
ATOM     15  C   UNL     1       1.108  12.967  18.885  0.00  0.00    +0.000 A 
ATOM     16  C   UNL     1       0.293  12.098  19.597  0.00  0.00    +0.000 A 
ATOM     17  N   UNL     1       0.484  10.758  19.616  0.00  0.00    +0.000 NA
ATOM     18  C   UNL     1       1.550  10.296  18.919  0.00  0.00    +0.000 A 
ATOM     19  C   UNL     1       2.352  11.173  18.200  0.00  0.00    +0.000 A 
ATOM     20  N   UNL     1       2.152  12.516  18.169  0.00  0.00    +0.000 NA
ATOM     21  H   UNL     1      -0.014  14.616  18.675  0.00  0.00    +0.000 HD
ATOM     22  H   UNL     1       1.621  14.747  18.294  0.00  0.00    +0.000 HD
ENDBRANCH   7  18
ENDBRANCH   1  10
BRANCH   6  23
ATOM     23  S   UNL     1       4.878   3.918  19.348  0.00  0.00    +0.000 S 
ATOM     24  O   UNL     1       4.947   5.322  19.704  0.00  0.00    +0.000 OA
ATOM     25  O   UNL     1       5.448   2.937  20.247  0.00  0.00    +0.000 OA
BRANCH  23  26
ATOM     26  N   UNL     1       5.676   3.750  17.868  0.00  0.00    +0.000 NA
ATOM     27  H   UNL     1       6.128   2.838  17.835  0.00  0.00    +0.000 HD
BRANCH  26  28
ATOM     28  C   UNL     1       5.081   4.209  16.604  0.00  0.00    +0.000 C 
ATOM     29  C   UNL     1       5.734   3.547  15.375  0.00  0.00    +0.000 C 
ATOM     30  C   UNL     1       6.411   4.720  14.654  0.00  0.00    +0.000 C 
ATOM     31  C   UNL     1       7.573   5.234  15.530  0.00  0.00    +0.000 C 
ATOM     32  C   UNL     1       6.854   6.089  16.581  0.00  0.00    +0.000 C 
ATOM     33  C   UNL     1       5.374   5.726  16.348  0.00  0.00    +0.000 C 
ATOM     34  C   UNL     1       5.348   5.803  14.815  0.00  0.00    +0.000 C 
ENDBRANCH  26  28
ENDBRANCH  23  26
ENDBRANCH   6  23
TORSDOF 5
ENDMDL
