MODEL 1
REMARK VINA RESULT:      -8.0      0.000      0.000
REMARK  Name = 
REMARK  5 active torsions:
REMARK  status: ('A' for Active; 'I' for Inactive)
REMARK    1  A    between atoms: C_2  and  C_14
REMARK    2  A    between atoms: N_3  and  C_4
REMARK    3  A    between atoms: N_21  and  C_22
REMARK    4  A    between atoms: C_22  and  C_23
REMARK    5  A    between atoms: C_23  and  O_24
REMARK                            x       y       z     vdW  Elec       q    Type
REMARK                         _______ _______ _______ _____ _____    ______ ____
ROOT
ATOM      1  C   UNL     1       0.635   9.720  20.167  0.00  0.00    +0.000 A 
ATOM      2  C   UNL     1       0.833  10.482  21.309  0.00  0.00    +0.000 A 
ATOM      3  S   UNL     1      -0.130  11.888  21.354  0.00  0.00    +0.000 S 
ATOM      4  C   UNL     1      -0.864  11.499  19.861  0.00  0.00    +0.000 A 
ATOM      5  C   UNL     1      -1.828  12.185  19.147  0.00  0.00    +0.000 A 
ATOM      6  N   UNL     1      -2.292  11.658  17.997  0.00  0.00    +0.000 NA
ATOM      7  C   UNL     1      -1.808  10.484  17.570  0.00  0.00    +0.000 A 
ATOM      8  N   UNL     1      -2.312   9.920  16.418  0.00  0.00    +0.000 N 
ATOM      9  N   UNL     1      -0.833   9.792  18.163  0.00  0.00    +0.000 NA
ATOM     10  C   UNL     1      -0.378  10.307  19.337  0.00  0.00    +0.000 A 
ATOM     11  H   UNL     1      -1.732   9.160  16.095  0.00  0.00    +0.000 HD
ENDROOT
BRANCH   1  13
ATOM     12  O   UNL     1       1.712   7.785  20.884  0.00  0.00    +0.000 OA
ATOM     13  C   UNL     1       1.402   8.496  19.932  0.00  0.00    +0.000 C 
ATOM     14  N   UNL     1       1.775   8.274  18.616  0.00  0.00    +0.000 N 
ATOM     15  H   UNL     1       1.540   9.009  17.952  0.00  0.00    +0.000 HD
BRANCH  14  16
ATOM     16  C   UNL     1       2.564   7.202  18.147  0.00  0.00    +0.000 A 
ATOM     17  C   UNL     1       2.164   5.872  18.237  0.00  0.00    +0.000 A 
ATOM     18  C   UNL     1       3.012   4.840  17.825  0.00  0.00    +0.000 A 
ATOM     19  C   UNL     1       4.274   5.096  17.324  0.00  0.00    +0.000 A 
ATOM     20  N   UNL     1       5.063   4.059  16.997  0.00  0.00    +0.000 NA
ATOM     21  C   UNL     1       6.302   4.328  16.539  0.00  0.00    +0.000 A 
ATOM     22  C   UNL     1       6.799   5.606  16.371  0.00  0.00    +0.000 A 
ATOM     23  C   UNL     1       5.972   6.677  16.695  0.00  0.00    +0.000 A 
ATOM     24  C   UNL     1       4.681   6.441  17.191  0.00  0.00    +0.000 A 
ATOM     25  C   UNL     1       3.813   7.486  17.582  0.00  0.00    +0.000 A 
ENDBRANCH  14  16
ENDBRANCH   1  13
BRANCH   8  26
ATOM     26  C   UNL     1      -2.856  10.809  15.400  0.00  0.00    +0.000 C 
BRANCH  26  27
ATOM     27  C   UNL     1      -3.505  10.040  14.242  0.00  0.00    +0.000 C 
BRANCH  27  28
ATOM     28  O   UNL     1      -2.592   9.909  13.153  0.00  0.00    +0.000 OA
ATOM     29  H   UNL     1      -2.217   9.014  13.222  0.00  0.00    +0.000 HD
ENDBRANCH  27  28
ENDBRANCH  26  27
ENDBRANCH   8  26
TORSDOF 5
ENDMDL
MODEL 2
REMARK VINA RESULT:      -7.7      0.796      1.647
REMARK  Name = 
REMARK  5 active torsions:
REMARK  status: ('A' for Active; 'I' for Inactive)
REMARK    1  A    between atoms: C_2  and  C_14
REMARK    2  A    between atoms: N_3  and  C_4
REMARK    3  A    between atoms: N_21  and  C_22
REMARK    4  A    between atoms: C_22  and  C_23
REMARK    5  A    between atoms: C_23  and  O_24
REMARK                            x       y       z     vdW  Elec       q    Type
REMARK                         _______ _______ _______ _____ _____    ______ ____
ROOT
ATOM      1  C   UNL     1       0.422   9.966  20.248  0.00  0.00    +0.000 A 
ATOM      2  C   UNL     1       0.525  10.729  21.402  0.00  0.00    +0.000 A 
ATOM      3  S   UNL     1      -0.548  12.052  21.429  0.00  0.00    +0.000 S 
ATOM      4  C   UNL     1      -1.204  11.622  19.911  0.00  0.00    +0.000 A 
ATOM      5  C   UNL     1      -2.197  12.237  19.174  0.00  0.00    +0.000 A 
ATOM      6  N   UNL     1      -2.583  11.687  18.006  0.00  0.00    +0.000 NA
ATOM      7  C   UNL     1      -1.994  10.560  17.584  0.00  0.00    +0.000 A 
ATOM      8  N   UNL     1      -2.417   9.970  16.413  0.00  0.00    +0.000 N 
ATOM      9  N   UNL     1      -0.985   9.942  18.201  0.00  0.00    +0.000 NA
ATOM     10  C   UNL     1      -0.608  10.479  19.392  0.00  0.00    +0.000 A 
ATOM     11  H   UNL     1      -1.768   9.263  16.101  0.00  0.00    +0.000 HD
ENDROOT
BRANCH   1  13
ATOM     12  O   UNL     1       1.667   8.142  20.987  0.00  0.00    +0.000 OA
ATOM     13  C   UNL     1       1.292   8.809  20.027  0.00  0.00    +0.000 C 
ATOM     14  N   UNL     1       1.676   8.600  18.712  0.00  0.00    +0.000 N 
ATOM     15  H   UNL     1       1.374   9.301  18.039  0.00  0.00    +0.000 HD
BRANCH  14  16
ATOM     16  C   UNL     1       2.552   7.593  18.255  0.00  0.00    +0.000 A 
ATOM     17  C   UNL     1       3.718   7.869  17.546  0.00  0.00    +0.000 A 
ATOM     18  C   UNL     1       4.517   6.834  17.051  0.00  0.00    +0.000 A 
ATOM     19  C   UNL     1       4.179   5.507  17.235  0.00  0.00    +0.000 A 
ATOM     20  N   UNL     1       4.958   4.560  16.687  0.00  0.00    +0.000 NA
ATOM     21  C   UNL     1       4.596   3.271  16.852  0.00  0.00    +0.000 A 
ATOM     22  C   UNL     1       3.483   2.871  17.565  0.00  0.00    +0.000 A 
ATOM     23  C   UNL     1       2.689   3.856  18.146  0.00  0.00    +0.000 A 
ATOM     24  C   UNL     1       3.021   5.209  17.984  0.00  0.00    +0.000 A 
ATOM     25  C   UNL     1       2.228   6.255  18.510  0.00  0.00    +0.000 A 
ENDBRANCH  14  16
ENDBRANCH   1  13
BRANCH   8  26
ATOM     26  C   UNL     1      -3.000  10.824  15.385  0.00  0.00    +0.000 C 
BRANCH  26  27
ATOM     27  C   UNL     1      -3.515  10.021  14.184  0.00  0.00    +0.000 C 
BRANCH  27  28
ATOM     28  O   UNL     1      -2.482   9.853  13.214  0.00  0.00    +0.000 OA
ATOM     29  H   UNL     1      -2.593  10.577  12.575  0.00  0.00    +0.000 HD
ENDBRANCH  27  28
ENDBRANCH  26  27
ENDBRANCH   8  26
TORSDOF 5
ENDMDL
MODEL 3
REMARK VINA RESULT:      -7.7      1.307      1.350
REMARK  Name = 
REMARK  5 active torsions:
REMARK  status: ('A' for Active; 'I' for Inactive)
REMARK    1  A    between atoms: C_2  and  C_14
REMARK    2  A    between atoms: N_3  and  C_4
REMARK    3  A    between atoms: N_21  and  C_22
REMARK    4  A    between atoms: C_22  and  C_23
REMARK    5  A    between atoms: C_23  and  O_24
REMARK                            x       y       z     vdW  Elec       q    Type
REMARK                         _______ _______ _______ _____ _____    ______ ____
ROOT
ATOM      1  C   UNL     1       0.429  10.124  18.941  0.00  0.00    +0.000 A 
ATOM      2  C   UNL     1       0.505  10.799  20.151  0.00  0.00    +0.000 A 
ATOM      3  S   UNL     1      -0.879  11.735  20.485  0.00  0.00    +0.000 S 
ATOM      4  C   UNL     1      -1.634  11.238  19.036  0.00  0.00    +0.000 A 
ATOM      5  C   UNL     1      -2.871  11.578  18.524  0.00  0.00    +0.000 A 
ATOM      6  N   UNL     1      -3.278  11.022  17.366  0.00  0.00    +0.000 NA
ATOM      7  C   UNL     1      -2.474  10.156  16.735  0.00  0.00    +0.000 A 
ATOM      8  N   UNL     1      -2.905   9.552  15.574  0.00  0.00    +0.000 N 
ATOM      9  N   UNL     1      -1.241   9.826  17.125  0.00  0.00    +0.000 NA
ATOM     10  C   UNL     1      -0.835  10.364  18.306  0.00  0.00    +0.000 A 
ATOM     11  H   UNL     1      -2.145   9.094  15.092  0.00  0.00    +0.000 HD
ENDROOT
BRANCH   1  13
ATOM     12  O   UNL     1       2.181   9.660  17.480  0.00  0.00    +0.000 OA
ATOM     13  C   UNL     1       1.540   9.299  18.463  0.00  0.00    +0.000 C 
ATOM     14  N   UNL     1       1.736   8.113  19.152  0.00  0.00    +0.000 N 
ATOM     15  H   UNL     1       1.055   7.896  19.877  0.00  0.00    +0.000 HD
BRANCH  14  16
ATOM     16  C   UNL     1       2.698   7.127  18.848  0.00  0.00    +0.000 A 
ATOM     17  C   UNL     1       2.989   6.065  19.700  0.00  0.00    +0.000 A 
ATOM     18  C   UNL     1       4.002   5.154  19.388  0.00  0.00    +0.000 A 
ATOM     19  C   UNL     1       4.755   5.275  18.236  0.00  0.00    +0.000 A 
ATOM     20  N   UNL     1       5.751   4.400  18.019  0.00  0.00    +0.000 NA
ATOM     21  C   UNL     1       6.494   4.551  16.904  0.00  0.00    +0.000 A 
ATOM     22  C   UNL     1       6.278   5.542  15.966  0.00  0.00    +0.000 A 
ATOM     23  C   UNL     1       5.234   6.435  16.185  0.00  0.00    +0.000 A 
ATOM     24  C   UNL     1       4.447   6.323  17.342  0.00  0.00    +0.000 A 
ATOM     25  C   UNL     1       3.404   7.228  17.643  0.00  0.00    +0.000 A 
ENDBRANCH  14  16
ENDBRANCH   1  13
BRANCH   8  26
ATOM     26  C   UNL     1      -3.872  10.263  14.748  0.00  0.00    +0.000 C 
BRANCH  26  27
ATOM     27  C   UNL     1      -3.716   9.935  13.257  0.00  0.00    +0.000 C 
BRANCH  27  28
ATOM     28  O   UNL     1      -2.345   9.705  12.936  0.00  0.00    +0.000 OA
ATOM     29  H   UNL     1      -2.245   9.938  11.997  0.00  0.00    +0.000 HD
ENDBRANCH  27  28
ENDBRANCH  26  27
ENDBRANCH   8  26
TORSDOF 5
ENDMDL
MODEL 4
REMARK VINA RESULT:      -7.5      3.314      8.411
REMARK  Name = 
REMARK  5 active torsions:
REMARK  status: ('A' for Active; 'I' for Inactive)
REMARK    1  A    between atoms: C_2  and  C_14
REMARK    2  A    between atoms: N_3  and  C_4
REMARK    3  A    between atoms: N_21  and  C_22
REMARK    4  A    between atoms: C_22  and  C_23
REMARK    5  A    between atoms: C_23  and  O_24
REMARK                            x       y       z     vdW  Elec       q    Type
REMARK                         _______ _______ _______ _____ _____    ______ ____
ROOT
ATOM      1  C   UNL     1       3.502   7.195  17.753  0.00  0.00    +0.000 A 
ATOM      2  C   UNL     1       4.740   7.398  17.161  0.00  0.00    +0.000 A 
ATOM      3  S   UNL     1       5.688   5.984  17.084  0.00  0.00    +0.000 S 
ATOM      4  C   UNL     1       4.455   5.052  17.811  0.00  0.00    +0.000 A 
ATOM      5  C   UNL     1       4.437   3.707  18.126  0.00  0.00    +0.000 A 
ATOM      6  N   UNL     1       3.323   3.175  18.667  0.00  0.00    +0.000 NA
ATOM      7  C   UNL     1       2.260   3.961  18.888  0.00  0.00    +0.000 A 
ATOM      8  N   UNL     1       1.105   3.411  19.399  0.00  0.00    +0.000 N 
ATOM      9  N   UNL     1       2.219   5.277  18.675  0.00  0.00    +0.000 NA
ATOM     10  C   UNL     1       3.332   5.815  18.107  0.00  0.00    +0.000 A 
ATOM     11  H   UNL     1       0.464   4.125  19.713  0.00  0.00    +0.000 HD
ENDROOT
BRANCH   1  13
ATOM     12  O   UNL     1       2.538   9.220  17.128  0.00  0.00    +0.000 OA
ATOM     13  C   UNL     1       2.563   8.302  17.943  0.00  0.00    +0.000 C 
ATOM     14  N   UNL     1       1.804   8.242  19.101  0.00  0.00    +0.000 N 
ATOM     15  H   UNL     1       2.014   7.476  19.737  0.00  0.00    +0.000 HD
BRANCH  14  16
ATOM     16  C   UNL     1       0.878   9.213  19.536  0.00  0.00    +0.000 A 
ATOM     17  C   UNL     1       0.320  10.163  18.684  0.00  0.00    +0.000 A 
ATOM     18  C   UNL     1      -0.538  11.150  19.177  0.00  0.00    +0.000 A 
ATOM     19  C   UNL     1      -0.857  11.229  20.518  0.00  0.00    +0.000 A 
ATOM     20  N   UNL     1      -1.642  12.234  20.939  0.00  0.00    +0.000 NA
ATOM     21  C   UNL     1      -1.918  12.312  22.257  0.00  0.00    +0.000 A 
ATOM     22  C   UNL     1      -1.454  11.409  23.193  0.00  0.00    +0.000 A 
ATOM     23  C   UNL     1      -0.655  10.360  22.751  0.00  0.00    +0.000 A 
ATOM     24  C   UNL     1      -0.330  10.252  21.390  0.00  0.00    +0.000 A 
ATOM     25  C   UNL     1       0.515   9.235  20.888  0.00  0.00    +0.000 A 
ENDBRANCH  14  16
ENDBRANCH   1  13
BRANCH   8  26
ATOM     26  C   UNL     1       1.219   2.221  20.232  0.00  0.00    +0.000 C 
BRANCH  26  27
ATOM     27  C   UNL     1       1.539   2.561  21.693  0.00  0.00    +0.000 C 
BRANCH  27  28
ATOM     28  O   UNL     1       2.946   2.491  21.927  0.00  0.00    +0.000 OA
ATOM     29  H   UNL     1       3.361   3.032  21.233  0.00  0.00    +0.000 HD
ENDBRANCH  27  28
ENDBRANCH  26  27
ENDBRANCH   8  26
TORSDOF 5
ENDMDL
MODEL 5
REMARK VINA RESULT:      -7.5      3.712      8.716
REMARK  Name = 
REMARK  5 active torsions:
REMARK  status: ('A' for Active; 'I' for Inactive)
REMARK    1  A    between atoms: C_2  and  C_14
REMARK    2  A    between atoms: N_3  and  C_4
REMARK    3  A    between atoms: N_21  and  C_22
REMARK    4  A    between atoms: C_22  and  C_23
REMARK    5  A    between atoms: C_23  and  O_24
REMARK                            x       y       z     vdW  Elec       q    Type
REMARK                         _______ _______ _______ _____ _____    ______ ____
ROOT
ATOM      1  C   UNL     1       2.056   5.563  20.256  0.00  0.00    +0.000 A 
ATOM      2  C   UNL     1       1.145   4.608  20.684  0.00  0.00    +0.000 A 
ATOM      3  S   UNL     1       1.742   3.015  20.573  0.00  0.00    +0.000 S 
ATOM      4  C   UNL     1       3.248   3.562  19.981  0.00  0.00    +0.000 A 
ATOM      5  C   UNL     1       4.367   2.838  19.616  0.00  0.00    +0.000 A 
ATOM      6  N   UNL     1       5.470   3.497  19.210  0.00  0.00    +0.000 NA
ATOM      7  C   UNL     1       5.458   4.836  19.166  0.00  0.00    +0.000 A 
ATOM      8  N   UNL     1       6.598   5.513  18.794  0.00  0.00    +0.000 N 
ATOM      9  N   UNL     1       4.401   5.605  19.437  0.00  0.00    +0.000 NA
ATOM     10  C   UNL     1       3.293   4.947  19.871  0.00  0.00    +0.000 A 
ATOM     11  H   UNL     1       6.403   6.485  18.599  0.00  0.00    +0.000 HD
ENDROOT
BRANCH   1  13
ATOM     12  O   UNL     1       2.267   7.735  19.444  0.00  0.00    +0.000 OA
ATOM     13  C   UNL     1       1.708   6.986  20.240  0.00  0.00    +0.000 C 
ATOM     14  N   UNL     1       0.792   7.382  21.200  0.00  0.00    +0.000 N 
ATOM     15  H   UNL     1       0.498   6.668  21.863  0.00  0.00    +0.000 HD
BRANCH  14  16
ATOM     16  C   UNL     1       0.345   8.701  21.424  0.00  0.00    +0.000 A 
ATOM     17  C   UNL     1       0.055   9.197  22.692  0.00  0.00    +0.000 A 
ATOM     18  C   UNL     1      -0.454  10.489  22.856  0.00  0.00    +0.000 A 
ATOM     19  C   UNL     1      -0.698  11.314  21.776  0.00  0.00    +0.000 A 
ATOM     20  N   UNL     1      -1.241  12.523  21.995  0.00  0.00    +0.000 NA
ATOM     21  C   UNL     1      -1.499  13.303  20.926  0.00  0.00    +0.000 A 
ATOM     22  C   UNL     1      -1.223  12.936  19.623  0.00  0.00    +0.000 A 
ATOM     23  C   UNL     1      -0.644  11.690  19.402  0.00  0.00    +0.000 A 
ATOM     24  C   UNL     1      -0.375  10.841  20.486  0.00  0.00    +0.000 A 
ATOM     25  C   UNL     1       0.168   9.546  20.321  0.00  0.00    +0.000 A 
ENDBRANCH  14  16
ENDBRANCH   1  13
BRANCH   8  26
ATOM     26  C   UNL     1       7.537   4.842  17.905  0.00  0.00    +0.000 C 
BRANCH  26  27
ATOM     27  C   UNL     1       7.060   4.843  16.447  0.00  0.00    +0.000 C 
BRANCH  27  28
ATOM     28  O   UNL     1       6.346   3.642  16.153  0.00  0.00    +0.000 OA
ATOM     29  H   UNL     1       6.671   3.340  15.288  0.00  0.00    +0.000 HD
ENDBRANCH  27  28
ENDBRANCH  26  27
ENDBRANCH   8  26
TORSDOF 5
ENDMDL
MODEL 6
REMARK VINA RESULT:      -7.4      3.935      8.898
REMARK  Name = 
REMARK  5 active torsions:
REMARK  status: ('A' for Active; 'I' for Inactive)
REMARK    1  A    between atoms: C_2  and  C_14
REMARK    2  A    between atoms: N_3  and  C_4
REMARK    3  A    between atoms: N_21  and  C_22
REMARK    4  A    between atoms: C_22  and  C_23
REMARK    5  A    between atoms: C_23  and  O_24
REMARK                            x       y       z     vdW  Elec       q    Type
REMARK                         _______ _______ _______ _____ _____    ______ ____
ROOT
ATOM      1  C   UNL     1       2.178   5.735  20.114  0.00  0.00    +0.000 A 
ATOM      2  C   UNL     1       1.278   4.853  20.694  0.00  0.00    +0.000 A 
ATOM      3  S   UNL     1       1.855   3.251  20.760  0.00  0.00    +0.000 S 
ATOM      4  C   UNL     1       3.341   3.699  20.045  0.00  0.00    +0.000 A 
ATOM      5  C   UNL     1       4.437   2.920  19.729  0.00  0.00    +0.000 A 
ATOM      6  N   UNL     1       5.528   3.507  19.200  0.00  0.00    +0.000 NA
ATOM      7  C   UNL     1       5.525   4.830  18.989  0.00  0.00    +0.000 A 
ATOM      8  N   UNL     1       6.656   5.441  18.490  0.00  0.00    +0.000 N 
ATOM      9  N   UNL     1       4.488   5.641  19.203  0.00  0.00    +0.000 NA
ATOM     10  C   UNL     1       3.392   5.058  19.760  0.00  0.00    +0.000 A 
ATOM     11  H   UNL     1       6.461   6.383  18.183  0.00  0.00    +0.000 HD
ENDROOT
BRANCH   1  13
ATOM     12  O   UNL     1       2.248   7.744  18.939  0.00  0.00    +0.000 OA
ATOM     13  C   UNL     1       1.842   7.148  19.933  0.00  0.00    +0.000 C 
ATOM     14  N   UNL     1       1.123   7.723  20.968  0.00  0.00    +0.000 N 
ATOM     15  H   UNL     1       0.952   7.133  21.779  0.00  0.00    +0.000 HD
BRANCH  14  16
ATOM     16  C   UNL     1       0.733   9.076  21.055  0.00  0.00    +0.000 A 
ATOM     17  C   UNL     1       1.275  10.074  20.250  0.00  0.00    +0.000 A 
ATOM     18  C   UNL     1       0.909  11.412  20.424  0.00  0.00    +0.000 A 
ATOM     19  C   UNL     1       0.010  11.796  21.400  0.00  0.00    +0.000 A 
ATOM     20  N   UNL     1      -0.259  13.103  21.553  0.00  0.00    +0.000 NA
ATOM     21  C   UNL     1      -1.116  13.461  22.531  0.00  0.00    +0.000 A 
ATOM     22  C   UNL     1      -1.745  12.561  23.369  0.00  0.00    +0.000 A 
ATOM     23  C   UNL     1      -1.477  11.207  23.195  0.00  0.00    +0.000 A 
ATOM     24  C   UNL     1      -0.578  10.793  22.200  0.00  0.00    +0.000 A 
ATOM     25  C   UNL     1      -0.230   9.436  22.006  0.00  0.00    +0.000 A 
ENDBRANCH  14  16
ENDBRANCH   1  13
BRANCH   8  26
ATOM     26  C   UNL     1       7.551   4.651  17.655  0.00  0.00    +0.000 C 
BRANCH  26  27
ATOM     27  C   UNL     1       7.051   4.536  16.210  0.00  0.00    +0.000 C 
BRANCH  27  28
ATOM     28  O   UNL     1       7.641   5.548  15.394  0.00  0.00    +0.000 OA
ATOM     29  H   UNL     1       6.966   6.241  15.294  0.00  0.00    +0.000 HD
ENDBRANCH  27  28
ENDBRANCH  26  27
ENDBRANCH   8  26
TORSDOF 5
ENDMDL
MODEL 7
REMARK VINA RESULT:      -7.4      6.173      8.637
REMARK  Name = 
REMARK  5 active torsions:
REMARK  status: ('A' for Active; 'I' for Inactive)
REMARK    1  A    between atoms: C_2  and  C_14
REMARK    2  A    between atoms: N_3  and  C_4
REMARK    3  A    between atoms: N_21  and  C_22
REMARK    4  A    between atoms: C_22  and  C_23
REMARK    5  A    between atoms: C_23  and  O_24
REMARK                            x       y       z     vdW  Elec       q    Type
REMARK                         _______ _______ _______ _____ _____    ______ ____
ROOT
ATOM      1  C   UNL     1       6.665   6.012  17.211  0.00  0.00    +0.000 A 
ATOM      2  C   UNL     1       7.022   5.508  15.969  0.00  0.00    +0.000 A 
ATOM      3  S   UNL     1       5.889   4.400  15.343  0.00  0.00    +0.000 S 
ATOM      4  C   UNL     1       4.871   4.589  16.702  0.00  0.00    +0.000 A 
ATOM      5  C   UNL     1       3.659   3.990  16.985  0.00  0.00    +0.000 A 
ATOM      6  N   UNL     1       3.008   4.328  18.116  0.00  0.00    +0.000 NA
ATOM      7  C   UNL     1       3.550   5.235  18.939  0.00  0.00    +0.000 A 
ATOM      8  N   UNL     1       2.866   5.617  20.073  0.00  0.00    +0.000 N 
ATOM      9  N   UNL     1       4.743   5.810  18.773  0.00  0.00    +0.000 NA
ATOM     10  C   UNL     1       5.393   5.491  17.622  0.00  0.00    +0.000 A 
ATOM     11  H   UNL     1       3.459   6.134  20.705  0.00  0.00    +0.000 HD
ENDROOT
BRANCH   1  13
ATOM     12  O   UNL     1       8.168   6.558  18.904  0.00  0.00    +0.000 OA
ATOM     13  C   UNL     1       7.534   6.948  17.927  0.00  0.00    +0.000 C 
ATOM     14  N   UNL     1       7.515   8.251  17.457  0.00  0.00    +0.000 N 
ATOM     15  H   UNL     1       6.856   8.449  16.707  0.00  0.00    +0.000 HD
BRANCH  14  16
ATOM     16  C   UNL     1       8.216   9.342  18.011  0.00  0.00    +0.000 A 
ATOM     17  C   UNL     1       9.011   9.233  19.149  0.00  0.00    +0.000 A 
ATOM     18  C   UNL     1       9.628  10.359  19.702  0.00  0.00    +0.000 A 
ATOM     19  C   UNL     1       9.467  11.616  19.153  0.00  0.00    +0.000 A 
ATOM     20  N   UNL     1      10.041  12.666  19.763  0.00  0.00    +0.000 NA
ATOM     21  C   UNL     1       9.848  13.890  19.229  0.00  0.00    +0.000 A 
ATOM     22  C   UNL     1       9.112  14.121  18.084  0.00  0.00    +0.000 A 
ATOM     23  C   UNL     1       8.535  13.027  17.445  0.00  0.00    +0.000 A 
ATOM     24  C   UNL     1       8.696  11.739  17.978  0.00  0.00    +0.000 A 
ATOM     25  C   UNL     1       8.095  10.597  17.401  0.00  0.00    +0.000 A 
ENDBRANCH  14  16
ENDBRANCH   1  13
BRANCH   8  26
ATOM     26  C   UNL     1       1.944   4.661  20.673  0.00  0.00    +0.000 C 
BRANCH  26  27
ATOM     27  C   UNL     1       2.666   3.435  21.246  0.00  0.00    +0.000 C 
BRANCH  27  28
ATOM     28  O   UNL     1       1.869   2.809  22.252  0.00  0.00    +0.000 OA
ATOM     29  H   UNL     1       0.966   3.149  22.130  0.00  0.00    +0.000 HD
ENDBRANCH  27  28
ENDBRANCH  26  27
ENDBRANCH   8  26
TORSDOF 5
ENDMDL
MODEL 8
REMARK VINA RESULT:      -7.3      1.767      2.562
REMARK  Name = 
REMARK  5 active torsions:
REMARK  status: ('A' for Active; 'I' for Inactive)
REMARK    1  A    between atoms: C_2  and  C_14
REMARK    2  A    between atoms: N_3  and  C_4
REMARK    3  A    between atoms: N_21  and  C_22
REMARK    4  A    between atoms: C_22  and  C_23
REMARK    5  A    between atoms: C_23  and  O_24
REMARK                            x       y       z     vdW  Elec       q    Type
REMARK                         _______ _______ _______ _____ _____    ______ ____
ROOT
ATOM      1  C   UNL     1       0.999   9.946  18.992  0.00  0.00    +0.000 A 
ATOM      2  C   UNL     1       1.423  10.767  20.027  0.00  0.00    +0.000 A 
ATOM      3  S   UNL     1       0.400  12.106  20.283  0.00  0.00    +0.000 S 
ATOM      4  C   UNL     1      -0.657  11.606  19.038  0.00  0.00    +0.000 A 
ATOM      5  C   UNL     1      -1.819  12.195  18.579  0.00  0.00    +0.000 A 
ATOM      6  N   UNL     1      -2.519  11.591  17.599  0.00  0.00    +0.000 NA
ATOM      7  C   UNL     1      -2.072  10.434  17.090  0.00  0.00    +0.000 A 
ATOM      8  N   UNL     1      -2.808   9.790  16.120  0.00  0.00    +0.000 N 
ATOM      9  N   UNL     1      -0.929   9.835  17.430  0.00  0.00    +0.000 NA
ATOM     10  C   UNL     1      -0.232  10.428  18.436  0.00  0.00    +0.000 A 
ATOM     11  H   UNL     1      -2.273   9.058  15.677  0.00  0.00    +0.000 HD
ENDROOT
BRANCH   1  13
ATOM     12  O   UNL     1       2.233   8.698  17.462  0.00  0.00    +0.000 OA
ATOM     13  C   UNL     1       1.772   8.766  18.598  0.00  0.00    +0.000 C 
ATOM     14  N   UNL     1       1.864   7.771  19.557  0.00  0.00    +0.000 N 
ATOM     15  H   UNL     1       1.337   7.922  20.414  0.00  0.00    +0.000 HD
BRANCH  14  16
ATOM     16  C   UNL     1       2.500   6.522  19.397  0.00  0.00    +0.000 A 
ATOM     17  C   UNL     1       3.878   6.387  19.249  0.00  0.00    +0.000 A 
ATOM     18  C   UNL     1       4.454   5.134  19.021  0.00  0.00    +0.000 A 
ATOM     19  C   UNL     1       3.686   3.991  18.924  0.00  0.00    +0.000 A 
ATOM     20  N   UNL     1       4.293   2.825  18.648  0.00  0.00    +0.000 NA
ATOM     21  C   UNL     1       3.524   1.724  18.528  0.00  0.00    +0.000 A 
ATOM     22  C   UNL     1       2.152   1.724  18.689  0.00  0.00    +0.000 A 
ATOM     23  C   UNL     1       1.529   2.931  18.993  0.00  0.00    +0.000 A 
ATOM     24  C   UNL     1       2.292   4.103  19.110  0.00  0.00    +0.000 A 
ATOM     25  C   UNL     1       1.711   5.366  19.369  0.00  0.00    +0.000 A 
ENDBRANCH  14  16
ENDBRANCH   1  13
BRANCH   8  26
ATOM     26  C   UNL     1      -3.658  10.597  15.253  0.00  0.00    +0.000 C 
BRANCH  26  27
ATOM     27  C   UNL     1      -3.803   9.991  13.852  0.00  0.00    +0.000 C 
BRANCH  27  28
ATOM     28  O   UNL     1      -2.526   9.865  13.226  0.00  0.00    +0.000 OA
ATOM     29  H   UNL     1      -2.476  10.580  12.569  0.00  0.00    +0.000 HD
ENDBRANCH  27  28
ENDBRANCH  26  27
ENDBRANCH   8  26
TORSDOF 5
ENDMDL
MODEL 9
REMARK VINA RESULT:      -7.3      3.244      8.377
REMARK  Name = 
REMARK  5 active torsions:
REMARK  status: ('A' for Active; 'I' for Inactive)
REMARK    1  A    between atoms: C_2  and  C_14
REMARK    2  A    between atoms: N_3  and  C_4
REMARK    3  A    between atoms: N_21  and  C_22
REMARK    4  A    between atoms: C_22  and  C_23
REMARK    5  A    between atoms: C_23  and  O_24
REMARK                            x       y       z     vdW  Elec       q    Type
REMARK                         _______ _______ _______ _____ _____    ______ ____
ROOT
ATOM      1  C   UNL     1       3.248   7.285  17.772  0.00  0.00    +0.000 A 
ATOM      2  C   UNL     1       4.400   7.475  17.024  0.00  0.00    +0.000 A 
ATOM      3  S   UNL     1       5.274   6.036  16.760  0.00  0.00    +0.000 S 
ATOM      4  C   UNL     1       4.117   5.112  17.610  0.00  0.00    +0.000 A 
ATOM      5  C   UNL     1       4.089   3.755  17.870  0.00  0.00    +0.000 A 
ATOM      6  N   UNL     1       3.040   3.235  18.535  0.00  0.00    +0.000 NA
ATOM      7  C   UNL     1       2.048   4.044  18.933  0.00  0.00    +0.000 A 
ATOM      8  N   UNL     1       0.952   3.509  19.574  0.00  0.00    +0.000 N 
ATOM      9  N   UNL     1       2.029   5.370  18.782  0.00  0.00    +0.000 NA
ATOM     10  C   UNL     1       3.074   5.897  18.089  0.00  0.00    +0.000 A 
ATOM     11  H   UNL     1       0.388   4.229  20.002  0.00  0.00    +0.000 HD
ENDROOT
BRANCH   1  13
ATOM     12  O   UNL     1       2.292   9.370  17.372  0.00  0.00    +0.000 OA
ATOM     13  C   UNL     1       2.387   8.412  18.135  0.00  0.00    +0.000 C 
ATOM     14  N   UNL     1       1.784   8.320  19.378  0.00  0.00    +0.000 N 
ATOM     15  H   UNL     1       2.044   7.516  19.946  0.00  0.00    +0.000 HD
BRANCH  14  16
ATOM     16  C   UNL     1       0.962   9.298  19.976  0.00  0.00    +0.000 A 
ATOM     17  C   UNL     1       1.024   9.617  21.330  0.00  0.00    +0.000 A 
ATOM     18  C   UNL     1       0.139  10.542  21.889  0.00  0.00    +0.000 A 
ATOM     19  C   UNL     1      -0.832  11.166  21.130  0.00  0.00    +0.000 A 
ATOM     20  N   UNL     1      -1.689  12.004  21.737  0.00  0.00    +0.000 NA
ATOM     21  C   UNL     1      -2.648  12.581  20.986  0.00  0.00    +0.000 A 
ATOM     22  C   UNL     1      -2.789  12.373  19.627  0.00  0.00    +0.000 A 
ATOM     23  C   UNL     1      -1.888  11.518  18.999  0.00  0.00    +0.000 A 
ATOM     24  C   UNL     1      -0.885  10.884  19.748  0.00  0.00    +0.000 A 
ATOM     25  C   UNL     1       0.029   9.969  19.176  0.00  0.00    +0.000 A 
ENDBRANCH  14  16
ENDBRANCH   1  13
BRANCH   8  26
ATOM     26  C   UNL     1       1.133   2.279  20.334  0.00  0.00    +0.000 C 
BRANCH  26  27
ATOM     27  C   UNL     1       1.594   2.546  21.773  0.00  0.00    +0.000 C 
BRANCH  27  28
ATOM     28  O   UNL     1       3.018   2.499  21.859  0.00  0.00    +0.000 OA
ATOM     29  H   UNL     1       3.250   2.905  22.711  0.00  0.00    +0.000 HD
ENDBRANCH  27  28
ENDBRANCH  26  27
ENDBRANCH   8  26
TORSDOF 5
ENDMDL
