MODEL 1
REMARK VINA RESULT:      -7.9      0.000      0.000
REMARK  Name = 
REMARK  9 active torsions:
REMARK  status: ('A' for Active; 'I' for Inactive)
REMARK    1  A    between atoms: C_1  and  C_2
REMARK    2  A    between atoms: C_2  and  C_3
REMARK    3  A    between atoms: C_10  and  C_11
REMARK    4  A    between atoms: N_17  and  C_18
REMARK    5  A    between atoms: C_18  and  C_19
REMARK    6  A    between atoms: C_19  and  C_20
REMARK    7  A    between atoms: C_20  and  O_21
REMARK    8  A    between atoms: O_21  and  C_22
REMARK    9  A    between atoms: C_24  and  C_25
REMARK                            x       y       z     vdW  Elec       q    Type
REMARK                         _______ _______ _______ _____ _____    ______ ____
ROOT
ATOM      1  C   UNL     1       2.975   6.452  18.896  0.00  0.00    +0.000 A 
ATOM      2  C   UNL     1       3.174   7.115  17.674  0.00  0.00    +0.000 A 
ATOM      3  C   UNL     1       2.574   8.350  17.410  0.00  0.00    +0.000 A 
ATOM      4  C   UNL     1       1.852   9.003  18.407  0.00  0.00    +0.000 A 
ATOM      5  C   UNL     1       1.713   8.446  19.689  0.00  0.00    +0.000 A 
ATOM      6  C   UNL     1       2.200   7.136  19.860  0.00  0.00    +0.000 A 
ATOM      7  N   UNL     1       1.139   9.173  20.731  0.00  0.00    +0.000 N 
ATOM      8  C   UNL     1       0.852  10.570  20.409  0.00  0.00    +0.000 C 
ATOM      9  C   UNL     1       0.299  10.677  18.983  0.00  0.00    +0.000 C 
ATOM     10  C   UNL     1      -1.055   9.982  18.819  0.00  0.00    +0.000 C 
ATOM     11  O   UNL     1       1.254  10.190  18.026  0.00  0.00    +0.000 OA
ENDROOT
BRANCH   1  19
ATOM     12  C   UNL     1       2.731   3.960  19.436  0.00  0.00    +0.000 A 
ATOM     13  N   UNL     1       3.258   2.740  19.716  0.00  0.00    +0.000 NA
ATOM     14  C   UNL     1       4.574   2.631  19.814  0.00  0.00    +0.000 A 
ATOM     15  N   UNL     1       5.093   1.392  20.125  0.00  0.00    +0.000 N 
ATOM     16  N   UNL     1       5.425   3.619  19.580  0.00  0.00    +0.000 NA
ATOM     17  C   UNL     1       4.904   4.817  19.264  0.00  0.00    +0.000 A 
ATOM     18  N   UNL     1       5.903   5.731  18.929  0.00  0.00    +0.000 N 
ATOM     19  C   UNL     1       3.525   5.092  19.185  0.00  0.00    +0.000 A 
ATOM     20  H   UNL     1       4.439   0.679  19.836  0.00  0.00    +0.000 HD
ATOM     21  H   UNL     1       6.036   1.327  19.769  0.00  0.00    +0.000 HD
ATOM     22  H   UNL     1       6.792   5.280  19.135  0.00  0.00    +0.000 HD
ATOM     23  H   UNL     1       5.839   6.620  19.399  0.00  0.00    +0.000 HD
BRANCH  12  25
ATOM     24  C   UNL     1       0.613   2.668  18.837  0.00  0.00    +0.000 C 
ATOM     25  C   UNL     1       1.218   3.963  19.368  0.00  0.00    +0.000 C 
ENDBRANCH  12  25
ENDBRANCH   1  19
BRANCH   7  26
ATOM     26  C   UNL     1       0.557   8.569  21.927  0.00  0.00    +0.000 C 
BRANCH  26  27
ATOM     27  C   UNL     1       0.391   9.555  23.082  0.00  0.00    +0.000 C 
BRANCH  27  28
ATOM     28  C   UNL     1      -1.010  10.129  23.212  0.00  0.00    +0.000 C 
BRANCH  28  29
ATOM     29  O   UNL     1      -0.888  11.555  23.244  0.00  0.00    +0.000 OA
ATOM     30  C   UNL     1      -2.139  12.198  23.042  0.00  0.00    +0.000 C 
ENDBRANCH  28  29
ENDBRANCH  27  28
ENDBRANCH  26  27
ENDBRANCH   7  26
TORSDOF 6
ENDMDL
MODEL 2
REMARK VINA RESULT:      -7.7      0.790      2.205
REMARK  Name = 
REMARK  9 active torsions:
REMARK  status: ('A' for Active; 'I' for Inactive)
REMARK    1  A    between atoms: C_1  and  C_2
REMARK    2  A    between atoms: C_2  and  C_3
REMARK    3  A    between atoms: C_10  and  C_11
REMARK    4  A    between atoms: N_17  and  C_18
REMARK    5  A    between atoms: C_18  and  C_19
REMARK    6  A    between atoms: C_19  and  C_20
REMARK    7  A    between atoms: C_20  and  O_21
REMARK    8  A    between atoms: O_21  and  C_22
REMARK    9  A    between atoms: C_24  and  C_25
REMARK                            x       y       z     vdW  Elec       q    Type
REMARK                         _______ _______ _______ _____ _____    ______ ____
ROOT
ATOM      1  C   UNL     1       2.943   6.548  18.989  0.00  0.00    +0.000 A 
ATOM      2  C   UNL     1       3.189   7.204  17.773  0.00  0.00    +0.000 A 
ATOM      3  C   UNL     1       2.582   8.427  17.470  0.00  0.00    +0.000 A 
ATOM      4  C   UNL     1       1.801   9.074  18.425  0.00  0.00    +0.000 A 
ATOM      5  C   UNL     1       1.609   8.525  19.703  0.00  0.00    +0.000 A 
ATOM      6  C   UNL     1       2.110   7.225  19.909  0.00  0.00    +0.000 A 
ATOM      7  N   UNL     1       0.973   9.249  20.710  0.00  0.00    +0.000 N 
ATOM      8  C   UNL     1       0.678  10.638  20.363  0.00  0.00    +0.000 C 
ATOM      9  C   UNL     1       0.193  10.725  18.911  0.00  0.00    +0.000 C 
ATOM     10  C   UNL     1      -1.139  10.005  18.687  0.00  0.00    +0.000 C 
ATOM     11  O   UNL     1       1.202  10.247  18.006  0.00  0.00    +0.000 OA
ENDROOT
BRANCH   1  19
ATOM     12  C   UNL     1       4.853   4.850  19.160  0.00  0.00    +0.000 A 
ATOM     13  N   UNL     1       5.330   3.610  19.446  0.00  0.00    +0.000 NA
ATOM     14  C   UNL     1       4.470   2.681  19.831  0.00  0.00    +0.000 A 
ATOM     15  N   UNL     1       4.964   1.420  20.092  0.00  0.00    +0.000 N 
ATOM     16  N   UNL     1       3.178   2.893  20.033  0.00  0.00    +0.000 NA
ATOM     17  C   UNL     1       2.715   4.131  19.788  0.00  0.00    +0.000 A 
ATOM     18  N   UNL     1       1.373   4.250  20.151  0.00  0.00    +0.000 N 
ATOM     19  C   UNL     1       3.501   5.199  19.316  0.00  0.00    +0.000 A 
ATOM     20  H   UNL     1       5.940   1.494  20.343  0.00  0.00    +0.000 HD
ATOM     21  H   UNL     1       4.353   0.950  20.745  0.00  0.00    +0.000 HD
ATOM     22  H   UNL     1       1.054   3.315  20.397  0.00  0.00    +0.000 HD
ATOM     23  H   UNL     1       0.777   4.655  19.446  0.00  0.00    +0.000 HD
BRANCH  12  25
ATOM     24  C   UNL     1       7.282   5.604  19.379  0.00  0.00    +0.000 C 
ATOM     25  C   UNL     1       5.927   5.821  18.715  0.00  0.00    +0.000 C 
ENDBRANCH  12  25
ENDBRANCH   1  19
BRANCH   7  26
ATOM     26  C   UNL     1       0.343   8.644  21.881  0.00  0.00    +0.000 C 
BRANCH  26  27
ATOM     27  C   UNL     1       0.290   9.579  23.089  0.00  0.00    +0.000 C 
BRANCH  27  28
ATOM     28  C   UNL     1      -1.020  10.336  23.230  0.00  0.00    +0.000 C 
BRANCH  28  29
ATOM     29  O   UNL     1      -0.707  11.731  23.272  0.00  0.00    +0.000 OA
ATOM     30  C   UNL     1      -1.707  12.517  22.639  0.00  0.00    +0.000 C 
ENDBRANCH  28  29
ENDBRANCH  27  28
ENDBRANCH  26  27
ENDBRANCH   7  26
TORSDOF 6
ENDMDL
MODEL 3
REMARK VINA RESULT:      -7.7      3.655      7.158
REMARK  Name = 
REMARK  9 active torsions:
REMARK  status: ('A' for Active; 'I' for Inactive)
REMARK    1  A    between atoms: C_1  and  C_2
REMARK    2  A    between atoms: C_2  and  C_3
REMARK    3  A    between atoms: C_10  and  C_11
REMARK    4  A    between atoms: N_17  and  C_18
REMARK    5  A    between atoms: C_18  and  C_19
REMARK    6  A    between atoms: C_19  and  C_20
REMARK    7  A    between atoms: C_20  and  O_21
REMARK    8  A    between atoms: O_21  and  C_22
REMARK    9  A    between atoms: C_24  and  C_25
REMARK                            x       y       z     vdW  Elec       q    Type
REMARK                         _______ _______ _______ _____ _____    ______ ____
ROOT
ATOM      1  C   UNL     1       3.256   5.956  18.468  0.00  0.00    +0.000 A 
ATOM      2  C   UNL     1       2.740   4.912  17.684  0.00  0.00    +0.000 A 
ATOM      3  C   UNL     1       3.564   4.165  16.835  0.00  0.00    +0.000 A 
ATOM      4  C   UNL     1       4.941   4.374  16.836  0.00  0.00    +0.000 A 
ATOM      5  C   UNL     1       5.533   5.325  17.683  0.00  0.00    +0.000 A 
ATOM      6  C   UNL     1       4.654   6.157  18.404  0.00  0.00    +0.000 A 
ATOM      7  N   UNL     1       6.918   5.416  17.809  0.00  0.00    +0.000 N 
ATOM      8  C   UNL     1       7.658   4.360  17.118  0.00  0.00    +0.000 C 
ATOM      9  C   UNL     1       7.013   4.070  15.758  0.00  0.00    +0.000 C 
ATOM     10  C   UNL     1       7.095   5.258  14.797  0.00  0.00    +0.000 C 
ATOM     11  O   UNL     1       5.656   3.624  15.921  0.00  0.00    +0.000 OA
ENDROOT
BRANCH   1  19
ATOM     12  C   UNL     1       1.831   6.434  20.543  0.00  0.00    +0.000 A 
ATOM     13  N   UNL     1       1.038   7.247  21.288  0.00  0.00    +0.000 NA
ATOM     14  C   UNL     1       0.743   8.445  20.810  0.00  0.00    +0.000 A 
ATOM     15  N   UNL     1      -0.084   9.250  21.565  0.00  0.00    +0.000 N 
ATOM     16  N   UNL     1       1.231   8.943  19.684  0.00  0.00    +0.000 NA
ATOM     17  C   UNL     1       2.047   8.152  18.966  0.00  0.00    +0.000 A 
ATOM     18  N   UNL     1       2.581   8.835  17.873  0.00  0.00    +0.000 N 
ATOM     19  C   UNL     1       2.398   6.835  19.322  0.00  0.00    +0.000 A 
ATOM     20  H   UNL     1      -0.013   8.977  22.535  0.00  0.00    +0.000 HD
ATOM     21  H   UNL     1       0.097  10.218  21.343  0.00  0.00    +0.000 HD
ATOM     22  H   UNL     1       2.107   9.734  17.832  0.00  0.00    +0.000 HD
ATOM     23  H   UNL     1       2.502   8.351  16.992  0.00  0.00    +0.000 HD
BRANCH  12  25
ATOM     24  C   UNL     1       1.138   3.983  20.717  0.00  0.00    +0.000 C 
ATOM     25  C   UNL     1       2.084   5.084  21.184  0.00  0.00    +0.000 C 
ENDBRANCH  12  25
ENDBRANCH   1  19
BRANCH   7  26
ATOM     26  C   UNL     1       7.622   6.604  18.285  0.00  0.00    +0.000 C 
BRANCH  26  27
ATOM     27  C   UNL     1       7.687   7.724  17.248  0.00  0.00    +0.000 C 
BRANCH  27  28
ATOM     28  C   UNL     1       7.880   9.109  17.842  0.00  0.00    +0.000 C 
BRANCH  28  29
ATOM     29  O   UNL     1       8.887   9.006  18.853  0.00  0.00    +0.000 OA
ATOM     30  C   UNL     1       9.296  10.281  19.325  0.00  0.00    +0.000 C 
ENDBRANCH  28  29
ENDBRANCH  27  28
ENDBRANCH  26  27
ENDBRANCH   7  26
TORSDOF 6
ENDMDL
MODEL 4
REMARK VINA RESULT:      -7.4      1.112      2.288
REMARK  Name = 
REMARK  9 active torsions:
REMARK  status: ('A' for Active; 'I' for Inactive)
REMARK    1  A    between atoms: C_1  and  C_2
REMARK    2  A    between atoms: C_2  and  C_3
REMARK    3  A    between atoms: C_10  and  C_11
REMARK    4  A    between atoms: N_17  and  C_18
REMARK    5  A    between atoms: C_18  and  C_19
REMARK    6  A    between atoms: C_19  and  C_20
REMARK    7  A    between atoms: C_20  and  O_21
REMARK    8  A    between atoms: O_21  and  C_22
REMARK    9  A    between atoms: C_24  and  C_25
REMARK                            x       y       z     vdW  Elec       q    Type
REMARK                         _______ _______ _______ _____ _____    ______ ____
ROOT
ATOM      1  C   UNL     1       3.201   6.082  18.490  0.00  0.00    +0.000 A 
ATOM      2  C   UNL     1       3.633   6.802  17.365  0.00  0.00    +0.000 A 
ATOM      3  C   UNL     1       3.190   8.106  17.121  0.00  0.00    +0.000 A 
ATOM      4  C   UNL     1       2.391   8.759  18.057  0.00  0.00    +0.000 A 
ATOM      5  C   UNL     1       2.017   8.134  19.258  0.00  0.00    +0.000 A 
ATOM      6  C   UNL     1       2.357   6.774  19.390  0.00  0.00    +0.000 A 
ATOM      7  N   UNL     1       1.364   8.842  20.266  0.00  0.00    +0.000 N 
ATOM      8  C   UNL     1       1.252  10.279  20.020  0.00  0.00    +0.000 C 
ATOM      9  C   UNL     1       0.924  10.536  18.544  0.00  0.00    +0.000 C 
ATOM     10  C   UNL     1      -0.447   9.991  18.139  0.00  0.00    +0.000 C 
ATOM     11  O   UNL     1       1.962  10.021  17.693  0.00  0.00    +0.000 OA
ENDROOT
BRANCH   1  19
ATOM     12  C   UNL     1       4.861   4.245  19.146  0.00  0.00    +0.000 A 
ATOM     13  N   UNL     1       5.184   2.942  19.348  0.00  0.00    +0.000 NA
ATOM     14  C   UNL     1       4.266   2.021  19.098  0.00  0.00    +0.000 A 
ATOM     15  N   UNL     1       4.616   0.700  19.282  0.00  0.00    +0.000 N 
ATOM     16  N   UNL     1       3.020   2.287  18.733  0.00  0.00    +0.000 NA
ATOM     17  C   UNL     1       2.690   3.580  18.572  0.00  0.00    +0.000 A 
ATOM     18  N   UNL     1       1.329   3.725  18.305  0.00  0.00    +0.000 N 
ATOM     19  C   UNL     1       3.580   4.658  18.743  0.00  0.00    +0.000 A 
ATOM     20  H   UNL     1       5.367   0.650  19.956  0.00  0.00    +0.000 HD
ATOM     21  H   UNL     1       3.785   0.158  19.474  0.00  0.00    +0.000 HD
ATOM     22  H   UNL     1       0.955   2.787  18.178  0.00  0.00    +0.000 HD
ATOM     23  H   UNL     1       1.112   4.305  17.510  0.00  0.00    +0.000 HD
BRANCH  12  25
ATOM     24  C   UNL     1       6.992   5.373  18.306  0.00  0.00    +0.000 C 
ATOM     25  C   UNL     1       5.996   5.202  19.448  0.00  0.00    +0.000 C 
ENDBRANCH  12  25
ENDBRANCH   1  19
BRANCH   7  26
ATOM     26  C   UNL     1       0.563   8.221  21.316  0.00  0.00    +0.000 C 
BRANCH  26  27
ATOM     27  C   UNL     1      -0.479   9.163  21.919  0.00  0.00    +0.000 C 
BRANCH  27  28
ATOM     28  C   UNL     1      -0.164   9.612  23.336  0.00  0.00    +0.000 C 
BRANCH  28  29
ATOM     29  O   UNL     1      -0.538  10.989  23.443  0.00  0.00    +0.000 OA
ATOM     30  C   UNL     1      -1.232  11.441  22.289  0.00  0.00    +0.000 C 
ENDBRANCH  28  29
ENDBRANCH  27  28
ENDBRANCH  26  27
ENDBRANCH   7  26
TORSDOF 6
ENDMDL
MODEL 5
REMARK VINA RESULT:      -7.4      3.562      7.341
REMARK  Name = 
REMARK  9 active torsions:
REMARK  status: ('A' for Active; 'I' for Inactive)
REMARK    1  A    between atoms: C_1  and  C_2
REMARK    2  A    between atoms: C_2  and  C_3
REMARK    3  A    between atoms: C_10  and  C_11
REMARK    4  A    between atoms: N_17  and  C_18
REMARK    5  A    between atoms: C_18  and  C_19
REMARK    6  A    between atoms: C_19  and  C_20
REMARK    7  A    between atoms: C_20  and  O_21
REMARK    8  A    between atoms: O_21  and  C_22
REMARK    9  A    between atoms: C_24  and  C_25
REMARK                            x       y       z     vdW  Elec       q    Type
REMARK                         _______ _______ _______ _____ _____    ______ ____
ROOT
ATOM      1  C   UNL     1       3.248   5.855  18.600  0.00  0.00    +0.000 A 
ATOM      2  C   UNL     1       2.760   4.764  17.864  0.00  0.00    +0.000 A 
ATOM      3  C   UNL     1       3.590   4.034  17.007  0.00  0.00    +0.000 A 
ATOM      4  C   UNL     1       4.954   4.310  16.953  0.00  0.00    +0.000 A 
ATOM      5  C   UNL     1       5.526   5.315  17.752  0.00  0.00    +0.000 A 
ATOM      6  C   UNL     1       4.631   6.122  18.480  0.00  0.00    +0.000 A 
ATOM      7  N   UNL     1       6.908   5.477  17.825  0.00  0.00    +0.000 N 
ATOM      8  C   UNL     1       7.677   4.440  17.138  0.00  0.00    +0.000 C 
ATOM      9  C   UNL     1       7.000   4.078  15.811  0.00  0.00    +0.000 C 
ATOM     10  C   UNL     1       6.990   5.239  14.815  0.00  0.00    +0.000 C 
ATOM     11  O   UNL     1       5.675   3.570  16.035  0.00  0.00    +0.000 OA
ENDROOT
BRANCH   1  19
ATOM     12  C   UNL     1       1.986   8.022  19.121  0.00  0.00    +0.000 A 
ATOM     13  N   UNL     1       1.210   8.789  19.930  0.00  0.00    +0.000 NA
ATOM     14  C   UNL     1       0.859   8.302  21.110  0.00  0.00    +0.000 A 
ATOM     15  N   UNL     1       0.094   9.102  21.932  0.00  0.00    +0.000 N 
ATOM     16  N   UNL     1       1.150   7.080  21.532  0.00  0.00    +0.000 NA
ATOM     17  C   UNL     1       1.884   6.307  20.713  0.00  0.00    +0.000 A 
ATOM     18  N   UNL     1       2.017   5.014  21.222  0.00  0.00    +0.000 N 
ATOM     19  C   UNL     1       2.377   6.715  19.459  0.00  0.00    +0.000 A 
ATOM     20  H   UNL     1      -0.419   9.761  21.365  0.00  0.00    +0.000 HD
ATOM     21  H   UNL     1      -0.440   8.520  22.562  0.00  0.00    +0.000 HD
ATOM     22  H   UNL     1       1.619   5.028  22.158  0.00  0.00    +0.000 HD
ATOM     23  H   UNL     1       2.961   4.661  21.241  0.00  0.00    +0.000 HD
BRANCH  12  25
ATOM     24  C   UNL     1       2.008  10.180  17.759  0.00  0.00    +0.000 C 
ATOM     25  C   UNL     1       2.335   8.691  17.808  0.00  0.00    +0.000 C 
ENDBRANCH  12  25
ENDBRANCH   1  19
BRANCH   7  26
ATOM     26  C   UNL     1       7.567   6.712  18.242  0.00  0.00    +0.000 C 
BRANCH  26  27
ATOM     27  C   UNL     1       7.370   7.864  17.259  0.00  0.00    +0.000 C 
BRANCH  27  28
ATOM     28  C   UNL     1       8.073   9.150  17.660  0.00  0.00    +0.000 C 
BRANCH  28  29
ATOM     29  O   UNL     1       8.772   8.894  18.882  0.00  0.00    +0.000 OA
ATOM     30  C   UNL     1       9.304  10.083  19.448  0.00  0.00    +0.000 C 
ENDBRANCH  28  29
ENDBRANCH  27  28
ENDBRANCH  26  27
ENDBRANCH   7  26
TORSDOF 6
ENDMDL
MODEL 6
REMARK VINA RESULT:      -7.3      3.044      8.001
REMARK  Name = 
REMARK  9 active torsions:
REMARK  status: ('A' for Active; 'I' for Inactive)
REMARK    1  A    between atoms: C_1  and  C_2
REMARK    2  A    between atoms: C_2  and  C_3
REMARK    3  A    between atoms: C_10  and  C_11
REMARK    4  A    between atoms: N_17  and  C_18
REMARK    5  A    between atoms: C_18  and  C_19
REMARK    6  A    between atoms: C_19  and  C_20
REMARK    7  A    between atoms: C_20  and  O_21
REMARK    8  A    between atoms: O_21  and  C_22
REMARK    9  A    between atoms: C_24  and  C_25
REMARK                            x       y       z     vdW  Elec       q    Type
REMARK                         _______ _______ _______ _____ _____    ______ ____
ROOT
ATOM      1  C   UNL     1       1.894   7.265  20.021  0.00  0.00    +0.000 A 
ATOM      2  C   UNL     1       1.236   6.360  20.869  0.00  0.00    +0.000 A 
ATOM      3  C   UNL     1       1.570   5.001  20.884  0.00  0.00    +0.000 A 
ATOM      4  C   UNL     1       2.646   4.539  20.131  0.00  0.00    +0.000 A 
ATOM      5  C   UNL     1       3.419   5.415  19.350  0.00  0.00    +0.000 A 
ATOM      6  C   UNL     1       2.953   6.739  19.245  0.00  0.00    +0.000 A 
ATOM      7  N   UNL     1       4.594   4.985  18.734  0.00  0.00    +0.000 N 
ATOM      8  C   UNL     1       5.006   3.630  19.097  0.00  0.00    +0.000 C 
ATOM      9  C   UNL     1       3.781   2.711  19.173  0.00  0.00    +0.000 C 
ATOM     10  C   UNL     1       3.091   2.529  17.819  0.00  0.00    +0.000 C 
ATOM     11  O   UNL     1       2.857   3.174  20.172  0.00  0.00    +0.000 OA
ENDROOT
BRANCH   1  19
ATOM     12  C   UNL     1       1.087   9.492  20.995  0.00  0.00    +0.000 A 
ATOM     13  N   UNL     1       0.724  10.794  20.862  0.00  0.00    +0.000 NA
ATOM     14  C   UNL     1       0.714  11.322  19.648  0.00  0.00    +0.000 A 
ATOM     15  N   UNL     1       0.318  12.638  19.524  0.00  0.00    +0.000 N 
ATOM     16  N   UNL     1       1.110  10.689  18.554  0.00  0.00    +0.000 NA
ATOM     17  C   UNL     1       1.507   9.413  18.693  0.00  0.00    +0.000 A 
ATOM     18  N   UNL     1       2.006   8.905  17.493  0.00  0.00    +0.000 N 
ATOM     19  C   UNL     1       1.510   8.706  19.910  0.00  0.00    +0.000 A 
ATOM     20  H   UNL     1       0.484  13.115  20.399  0.00  0.00    +0.000 HD
ATOM     21  H   UNL     1       0.735  13.035  18.695  0.00  0.00    +0.000 HD
ATOM     22  H   UNL     1       1.822   9.607  16.780  0.00  0.00    +0.000 HD
ATOM     23  H   UNL     1       1.626   8.013  17.219  0.00  0.00    +0.000 HD
BRANCH  12  25
ATOM     24  C   UNL     1      -0.093   9.585  23.257  0.00  0.00    +0.000 C 
ATOM     25  C   UNL     1       1.042   8.996  22.426  0.00  0.00    +0.000 C 
ENDBRANCH  12  25
ENDBRANCH   1  19
BRANCH   7  26
ATOM     26  C   UNL     1       5.206   5.647  17.586  0.00  0.00    +0.000 C 
BRANCH  26  27
ATOM     27  C   UNL     1       5.767   4.671  16.553  0.00  0.00    +0.000 C 
BRANCH  27  28
ATOM     28  C   UNL     1       7.278   4.720  16.408  0.00  0.00    +0.000 C 
BRANCH  28  29
ATOM     29  O   UNL     1       7.568   5.256  15.113  0.00  0.00    +0.000 OA
ATOM     30  C   UNL     1       6.736   4.691  14.108  0.00  0.00    +0.000 C 
ENDBRANCH  28  29
ENDBRANCH  27  28
ENDBRANCH  26  27
ENDBRANCH   7  26
TORSDOF 6
ENDMDL
MODEL 7
REMARK VINA RESULT:      -7.3      2.937      7.620
REMARK  Name = 
REMARK  9 active torsions:
REMARK  status: ('A' for Active; 'I' for Inactive)
REMARK    1  A    between atoms: C_1  and  C_2
REMARK    2  A    between atoms: C_2  and  C_3
REMARK    3  A    between atoms: C_10  and  C_11
REMARK    4  A    between atoms: N_17  and  C_18
REMARK    5  A    between atoms: C_18  and  C_19
REMARK    6  A    between atoms: C_19  and  C_20
REMARK    7  A    between atoms: C_20  and  O_21
REMARK    8  A    between atoms: O_21  and  C_22
REMARK    9  A    between atoms: C_24  and  C_25
REMARK                            x       y       z     vdW  Elec       q    Type
REMARK                         _______ _______ _______ _____ _____    ______ ____
ROOT
ATOM      1  C   UNL     1       1.749   7.688  19.958  0.00  0.00    +0.000 A 
ATOM      2  C   UNL     1       1.207   6.684  20.776  0.00  0.00    +0.000 A 
ATOM      3  C   UNL     1       1.667   5.364  20.709  0.00  0.00    +0.000 A 
ATOM      4  C   UNL     1       2.756   5.044  19.902  0.00  0.00    +0.000 A 
ATOM      5  C   UNL     1       3.417   6.027  19.146  0.00  0.00    +0.000 A 
ATOM      6  C   UNL     1       2.825   7.305  19.125  0.00  0.00    +0.000 A 
ATOM      7  N   UNL     1       4.605   5.743  18.475  0.00  0.00    +0.000 N 
ATOM      8  C   UNL     1       5.155   4.417  18.754  0.00  0.00    +0.000 C 
ATOM      9  C   UNL     1       4.024   3.383  18.818  0.00  0.00    +0.000 C 
ATOM     10  C   UNL     1       3.309   3.203  17.477  0.00  0.00    +0.000 C 
ATOM     11  O   UNL     1       3.095   3.705  19.866  0.00  0.00    +0.000 OA
ENDROOT
BRANCH   1  19
ATOM     12  C   UNL     1       0.889   9.822  21.084  0.00  0.00    +0.000 A 
ATOM     13  N   UNL     1       0.398  11.087  21.032  0.00  0.00    +0.000 NA
ATOM     14  C   UNL     1       0.176  11.626  19.843  0.00  0.00    +0.000 A 
ATOM     15  N   UNL     1      -0.347  12.902  19.806  0.00  0.00    +0.000 N 
ATOM     16  N   UNL     1       0.473  11.044  18.691  0.00  0.00    +0.000 NA
ATOM     17  C   UNL     1       0.996   9.807  18.745  0.00  0.00    +0.000 A 
ATOM     18  N   UNL     1       1.370   9.361  17.477  0.00  0.00    +0.000 N 
ATOM     19  C   UNL     1       1.228   9.090  19.934  0.00  0.00    +0.000 A 
ATOM     20  H   UNL     1      -0.107  13.382  20.661  0.00  0.00    +0.000 HD
ATOM     21  H   UNL     1      -0.085  13.345  18.937  0.00  0.00    +0.000 HD
ATOM     22  H   UNL     1       1.029  10.052  16.812  0.00  0.00    +0.000 HD
ATOM     23  H   UNL     1       1.036   8.441  17.236  0.00  0.00    +0.000 HD
BRANCH  12  25
ATOM     24  C   UNL     1      -0.107   9.548  23.418  0.00  0.00    +0.000 C 
ATOM     25  C   UNL     1       1.083   9.307  22.496  0.00  0.00    +0.000 C 
ENDBRANCH  12  25
ENDBRANCH   1  19
BRANCH   7  26
ATOM     26  C   UNL     1       5.113   6.516  17.345  0.00  0.00    +0.000 C 
BRANCH  26  27
ATOM     27  C   UNL     1       6.533   6.127  16.937  0.00  0.00    +0.000 C 
BRANCH  27  28
ATOM     28  C   UNL     1       7.619   6.959  17.599  0.00  0.00    +0.000 C 
BRANCH  28  29
ATOM     29  O   UNL     1       7.320   8.335  17.347  0.00  0.00    +0.000 OA
ATOM     30  C   UNL     1       8.227   9.205  18.008  0.00  0.00    +0.000 C 
ENDBRANCH  28  29
ENDBRANCH  27  28
ENDBRANCH  26  27
ENDBRANCH   7  26
TORSDOF 6
ENDMDL
MODEL 8
REMARK VINA RESULT:      -7.2      3.471      6.054
REMARK  Name = 
REMARK  9 active torsions:
REMARK  status: ('A' for Active; 'I' for Inactive)
REMARK    1  A    between atoms: C_1  and  C_2
REMARK    2  A    between atoms: C_2  and  C_3
REMARK    3  A    between atoms: C_10  and  C_11
REMARK    4  A    between atoms: N_17  and  C_18
REMARK    5  A    between atoms: C_18  and  C_19
REMARK    6  A    between atoms: C_19  and  C_20
REMARK    7  A    between atoms: C_20  and  O_21
REMARK    8  A    between atoms: O_21  and  C_22
REMARK    9  A    between atoms: C_24  and  C_25
REMARK                            x       y       z     vdW  Elec       q    Type
REMARK                         _______ _______ _______ _____ _____    ______ ____
ROOT
ATOM      1  C   UNL     1       4.548   3.773  16.967  0.00  0.00    +0.000 A 
ATOM      2  C   UNL     1       4.099   2.443  16.968  0.00  0.00    +0.000 A 
ATOM      3  C   UNL     1       3.146   1.997  17.889  0.00  0.00    +0.000 A 
ATOM      4  C   UNL     1       2.539   2.900  18.759  0.00  0.00    +0.000 A 
ATOM      5  C   UNL     1       2.861   4.268  18.730  0.00  0.00    +0.000 A 
ATOM      6  C   UNL     1       3.932   4.642  17.896  0.00  0.00    +0.000 A 
ATOM      7  N   UNL     1       2.136   5.194  19.478  0.00  0.00    +0.000 N 
ATOM      8  C   UNL     1       0.957   4.644  20.144  0.00  0.00    +0.000 C 
ATOM      9  C   UNL     1       1.275   3.256  20.713  0.00  0.00    +0.000 C 
ATOM     10  C   UNL     1       2.330   3.298  21.821  0.00  0.00    +0.000 C 
ATOM     11  O   UNL     1       1.654   2.349  19.665  0.00  0.00    +0.000 OA
ENDROOT
BRANCH   1  19
ATOM     12  C   UNL     1       6.851   4.796  16.506  0.00  0.00    +0.000 A 
ATOM     13  N   UNL     1       7.806   5.259  15.659  0.00  0.00    +0.000 NA
ATOM     14  C   UNL     1       7.544   5.265  14.361  0.00  0.00    +0.000 A 
ATOM     15  N   UNL     1       8.513   5.762  13.514  0.00  0.00    +0.000 N 
ATOM     16  N   UNL     1       6.438   4.778  13.818  0.00  0.00    +0.000 NA
ATOM     17  C   UNL     1       5.510   4.284  14.656  0.00  0.00    +0.000 A 
ATOM     18  N   UNL     1       4.455   3.700  13.953  0.00  0.00    +0.000 N 
ATOM     19  C   UNL     1       5.628   4.269  16.059  0.00  0.00    +0.000 A 
ATOM     20  H   UNL     1       9.416   5.670  13.957  0.00  0.00    +0.000 HD
ATOM     21  H   UNL     1       8.401   5.349  12.599  0.00  0.00    +0.000 HD
ATOM     22  H   UNL     1       4.606   3.913  12.970  0.00  0.00    +0.000 HD
ATOM     23  H   UNL     1       3.537   3.996  14.245  0.00  0.00    +0.000 HD
BRANCH  12  25
ATOM     24  C   UNL     1       7.593   6.255  18.464  0.00  0.00    +0.000 C 
ATOM     25  C   UNL     1       7.258   4.854  17.964  0.00  0.00    +0.000 C 
ENDBRANCH  12  25
ENDBRANCH   1  19
BRANCH   7  26
ATOM     26  C   UNL     1       2.640   6.510  19.862  0.00  0.00    +0.000 C 
BRANCH  26  27
ATOM     27  C   UNL     1       1.967   7.658  19.110  0.00  0.00    +0.000 C 
BRANCH  27  28
ATOM     28  C   UNL     1       2.717   8.110  17.869  0.00  0.00    +0.000 C 
BRANCH  28  29
ATOM     29  O   UNL     1       2.060   9.280  17.372  0.00  0.00    +0.000 OA
ATOM     30  C   UNL     1       1.022   9.712  18.239  0.00  0.00    +0.000 C 
ENDBRANCH  28  29
ENDBRANCH  27  28
ENDBRANCH  26  27
ENDBRANCH   7  26
TORSDOF 6
ENDMDL
MODEL 9
REMARK VINA RESULT:      -7.2      2.669      7.158
REMARK  Name = 
REMARK  9 active torsions:
REMARK  status: ('A' for Active; 'I' for Inactive)
REMARK    1  A    between atoms: C_1  and  C_2
REMARK    2  A    between atoms: C_2  and  C_3
REMARK    3  A    between atoms: C_10  and  C_11
REMARK    4  A    between atoms: N_17  and  C_18
REMARK    5  A    between atoms: C_18  and  C_19
REMARK    6  A    between atoms: C_19  and  C_20
REMARK    7  A    between atoms: C_20  and  O_21
REMARK    8  A    between atoms: O_21  and  C_22
REMARK    9  A    between atoms: C_24  and  C_25
REMARK                            x       y       z     vdW  Elec       q    Type
REMARK                         _______ _______ _______ _____ _____    ______ ____
ROOT
ATOM      1  C   UNL     1       1.488   8.799  19.612  0.00  0.00    +0.000 A 
ATOM      2  C   UNL     1       1.953   9.270  18.374  0.00  0.00    +0.000 A 
ATOM      3  C   UNL     1       2.818   8.507  17.583  0.00  0.00    +0.000 A 
ATOM      4  C   UNL     1       3.150   7.209  17.963  0.00  0.00    +0.000 A 
ATOM      5  C   UNL     1       2.625   6.636  19.134  0.00  0.00    +0.000 A 
ATOM      6  C   UNL     1       1.886   7.491  19.974  0.00  0.00    +0.000 A 
ATOM      7  N   UNL     1       2.819   5.287  19.425  0.00  0.00    +0.000 N 
ATOM      8  C   UNL     1       3.461   4.523  18.356  0.00  0.00    +0.000 C 
ATOM      9  C   UNL     1       4.580   5.354  17.717  0.00  0.00    +0.000 C 
ATOM     10  C   UNL     1       5.725   5.653  18.687  0.00  0.00    +0.000 C 
ATOM     11  O   UNL     1       4.054   6.562  17.143  0.00  0.00    +0.000 OA
ENDROOT
BRANCH   1  19
ATOM     12  C   UNL     1      -0.493  10.344  20.110  0.00  0.00    +0.000 A 
ATOM     13  N   UNL     1      -1.240  11.095  20.960  0.00  0.00    +0.000 NA
ATOM     14  C   UNL     1      -0.851  11.190  22.222  0.00  0.00    +0.000 A 
ATOM     15  N   UNL     1      -1.603  11.977  23.068  0.00  0.00    +0.000 N 
ATOM     16  N   UNL     1       0.181  10.537  22.737  0.00  0.00    +0.000 NA
ATOM     17  C   UNL     1       0.895   9.762  21.904  0.00  0.00    +0.000 A 
ATOM     18  N   UNL     1       1.873   9.044  22.594  0.00  0.00    +0.000 N 
ATOM     19  C   UNL     1       0.634   9.617  20.528  0.00  0.00    +0.000 A 
ATOM     20  H   UNL     1      -2.547  12.035  22.711  0.00  0.00    +0.000 HD
ATOM     21  H   UNL     1      -1.486  11.654  24.017  0.00  0.00    +0.000 HD
ATOM     22  H   UNL     1       1.871   9.394  23.549  0.00  0.00    +0.000 HD
ATOM     23  H   UNL     1       2.798   9.099  22.197  0.00  0.00    +0.000 HD
BRANCH  12  25
ATOM     24  C   UNL     1      -1.396  11.702  18.146  0.00  0.00    +0.000 C 
ATOM     25  C   UNL     1      -1.027  10.326  18.692  0.00  0.00    +0.000 C 
ENDBRANCH  12  25
ENDBRANCH   1  19
BRANCH   7  26
ATOM     26  C   UNL     1       2.716   4.715  20.765  0.00  0.00    +0.000 C 
BRANCH  26  27
ATOM     27  C   UNL     1       2.732   3.187  20.773  0.00  0.00    +0.000 C 
BRANCH  27  28
ATOM     28  C   UNL     1       1.377   2.554  21.040  0.00  0.00    +0.000 C 
BRANCH  28  29
ATOM     29  O   UNL     1       0.499   2.957  19.985  0.00  0.00    +0.000 OA
ATOM     30  C   UNL     1       0.753   2.244  18.783  0.00  0.00    +0.000 C 
ENDBRANCH  28  29
ENDBRANCH  27  28
ENDBRANCH  26  27
ENDBRANCH   7  26
TORSDOF 6
ENDMDL
