MODEL 1
REMARK VINA RESULT:      -7.9      0.000      0.000
REMARK  Name = 
REMARK  7 active torsions:
REMARK  status: ('A' for Active; 'I' for Inactive)
REMARK    1  A    between atoms: C_1  and  N_2
REMARK    2  A    between atoms: C_12  and  N_13
REMARK    3  A    between atoms: N_13  and  C_14
REMARK    4  A    between atoms: C_14  and  C_15
REMARK    5  A    between atoms: C_15  and  C_16
REMARK    6  A    between atoms: C_16  and  C_17
REMARK    7  A    between atoms: C_17  and  N_18
REMARK                            x       y       z     vdW  Elec       q    Type
REMARK                         _______ _______ _______ _____ _____    ______ ____
ROOT
ATOM      1  C   UNL     1       2.008   5.194  20.946  0.00  0.00    +0.000 C 
ATOM      2  N   UNL     1       2.809   5.911  19.954  0.00  0.00    +0.000 N 
ATOM      3  C   UNL     1       3.588   5.152  19.123  0.00  0.00    +0.000 C 
ATOM      4  N   UNL     1       4.200   4.065  19.523  0.00  0.00    +0.000 NA
ATOM      5  C   UNL     1       3.924   3.121  18.397  0.00  0.00    +0.000 C 
ATOM      6  C   UNL     1       3.315   1.973  19.148  0.00  0.00    +0.000 C 
ATOM      7  C   UNL     1       1.996   1.828  19.308  0.00  0.00    +0.000 C 
ATOM      8  C   UNL     1       1.068   2.746  18.642  0.00  0.00    +0.000 C 
ATOM      9  C   UNL     1       1.494   3.692  17.779  0.00  0.00    +0.000 C 
ATOM     10  C   UNL     1       2.980   3.913  17.405  0.00  0.00    +0.000 C 
ATOM     11  C   UNL     1       3.584   5.305  17.647  0.00  0.00    +0.000 C 
ATOM     12  C   UNL     1       3.490   6.615  17.271  0.00  0.00    +0.000 C 
ATOM     13  C   UNL     1       2.746   7.568  18.192  0.00  0.00    +0.000 A 
ATOM     14  C   UNL     1       2.521   8.915  17.857  0.00  0.00    +0.000 A 
ATOM     15  C   UNL     1       1.723   9.741  18.661  0.00  0.00    +0.000 A 
ATOM     16  C   UNL     1       1.097   9.216  19.783  0.00  0.00    +0.000 A 
ATOM     17  C   UNL     1       1.371   7.906  20.170  0.00  0.00    +0.000 A 
ATOM     18  C   UNL     1       2.263   7.105  19.434  0.00  0.00    +0.000 A 
ENDROOT
BRANCH  12  19
ATOM     19  N   UNL     1       4.624   7.282  16.726  0.00  0.00    +0.000 N 
ATOM     20  H   UNL     1       4.700   8.221  17.123  0.00  0.00    +0.000 HD
BRANCH  19  21
ATOM     21  C   UNL     1       5.941   6.648  16.722  0.00  0.00    +0.000 C 
BRANCH  21  22
ATOM     22  C   UNL     1       7.029   7.552  17.311  0.00  0.00    +0.000 C 
BRANCH  22  23
ATOM     23  C   UNL     1       7.957   6.931  18.365  0.00  0.00    +0.000 C 
BRANCH  23  24
ATOM     24  C   UNL     1       7.719   5.456  18.692  0.00  0.00    +0.000 C 
BRANCH  24  25
ATOM     25  N   UNL     1       7.113   5.266  20.004  0.00  0.00    +0.000 NA
ATOM     26  H   UNL     1       6.788   4.308  20.114  0.00  0.00    +0.000 HD
ATOM     27  H   UNL     1       6.287   5.860  20.085  0.00  0.00    +0.000 HD
ENDBRANCH  24  25
ENDBRANCH  23  24
ENDBRANCH  22  23
ENDBRANCH  21  22
ENDBRANCH  19  21
ENDBRANCH  12  19
TORSDOF 6
ENDMDL
MODEL 2
REMARK VINA RESULT:      -7.8      3.017      4.667
REMARK  Name = 
REMARK  7 active torsions:
REMARK  status: ('A' for Active; 'I' for Inactive)
REMARK    1  A    between atoms: C_1  and  N_2
REMARK    2  A    between atoms: C_12  and  N_13
REMARK    3  A    between atoms: N_13  and  C_14
REMARK    4  A    between atoms: C_14  and  C_15
REMARK    5  A    between atoms: C_15  and  C_16
REMARK    6  A    between atoms: C_16  and  C_17
REMARK    7  A    between atoms: C_17  and  N_18
REMARK                            x       y       z     vdW  Elec       q    Type
REMARK                         _______ _______ _______ _____ _____    ______ ____
ROOT
ATOM      1  C   UNL     1       4.884   3.291  20.203  0.00  0.00    +0.000 C 
ATOM      2  N   UNL     1       5.164   3.655  18.815  0.00  0.00    +0.000 N 
ATOM      3  C   UNL     1       4.212   3.329  17.886  0.00  0.00    +0.000 C 
ATOM      4  N   UNL     1       3.509   2.225  17.950  0.00  0.00    +0.000 NA
ATOM      5  C   UNL     1       2.131   2.716  17.643  0.00  0.00    +0.000 C 
ATOM      6  C   UNL     1       1.385   2.195  18.835  0.00  0.00    +0.000 C 
ATOM      7  C   UNL     1       1.168   2.926  19.934  0.00  0.00    +0.000 C 
ATOM      8  C   UNL     1       1.562   4.337  19.968  0.00  0.00    +0.000 C 
ATOM      9  C   UNL     1       2.056   4.968  18.883  0.00  0.00    +0.000 C 
ATOM     10  C   UNL     1       2.263   4.287  17.508  0.00  0.00    +0.000 C 
ATOM     11  C   UNL     1       3.676   4.302  16.903  0.00  0.00    +0.000 C 
ATOM     12  C   UNL     1       4.649   5.133  16.426  0.00  0.00    +0.000 C 
ATOM     13  C   UNL     1       5.818   5.459  17.342  0.00  0.00    +0.000 A 
ATOM     14  C   UNL     1       6.826   6.369  16.978  0.00  0.00    +0.000 A 
ATOM     15  C   UNL     1       7.823   6.751  17.887  0.00  0.00    +0.000 A 
ATOM     16  C   UNL     1       7.793   6.268  19.188  0.00  0.00    +0.000 A 
ATOM     17  C   UNL     1       6.847   5.308  19.540  0.00  0.00    +0.000 A 
ATOM     18  C   UNL     1       5.914   4.831  18.602  0.00  0.00    +0.000 A 
ENDROOT
BRANCH  12  19
ATOM     19  N   UNL     1       5.128   4.977  15.094  0.00  0.00    +0.000 N 
ATOM     20  H   UNL     1       5.688   5.791  14.828  0.00  0.00    +0.000 HD
BRANCH  19  21
ATOM     21  C   UNL     1       5.817   3.757  14.679  0.00  0.00    +0.000 C 
BRANCH  21  22
ATOM     22  C   UNL     1       6.283   3.812  13.221  0.00  0.00    +0.000 C 
BRANCH  22  23
ATOM     23  C   UNL     1       5.306   3.293  12.156  0.00  0.00    +0.000 C 
BRANCH  23  24
ATOM     24  C   UNL     1       5.679   1.973  11.480  0.00  0.00    +0.000 C 
BRANCH  24  25
ATOM     25  N   UNL     1       7.121   1.768  11.415  0.00  0.00    +0.000 NA
ATOM     26  H   UNL     1       7.535   2.361  10.699  0.00  0.00    +0.000 HD
ATOM     27  H   UNL     1       7.314   0.806  11.137  0.00  0.00    +0.000 HD
ENDBRANCH  24  25
ENDBRANCH  23  24
ENDBRANCH  22  23
ENDBRANCH  21  22
ENDBRANCH  19  21
ENDBRANCH  12  19
TORSDOF 6
ENDMDL
MODEL 3
REMARK VINA RESULT:      -7.5      0.915      1.145
REMARK  Name = 
REMARK  7 active torsions:
REMARK  status: ('A' for Active; 'I' for Inactive)
REMARK    1  A    between atoms: C_1  and  N_2
REMARK    2  A    between atoms: C_12  and  N_13
REMARK    3  A    between atoms: N_13  and  C_14
REMARK    4  A    between atoms: C_14  and  C_15
REMARK    5  A    between atoms: C_15  and  C_16
REMARK    6  A    between atoms: C_16  and  C_17
REMARK    7  A    between atoms: C_17  and  N_18
REMARK                            x       y       z     vdW  Elec       q    Type
REMARK                         _______ _______ _______ _____ _____    ______ ____
ROOT
ATOM      1  C   UNL     1       2.131   4.970  21.118  0.00  0.00    +0.000 C 
ATOM      2  N   UNL     1       2.811   5.749  20.083  0.00  0.00    +0.000 N 
ATOM      3  C   UNL     1       3.507   5.046  19.137  0.00  0.00    +0.000 C 
ATOM      4  N   UNL     1       4.172   3.952  19.415  0.00  0.00    +0.000 NA
ATOM      5  C   UNL     1       3.790   3.059  18.279  0.00  0.00    +0.000 C 
ATOM      6  C   UNL     1       3.281   1.865  19.032  0.00  0.00    +0.000 C 
ATOM      7  C   UNL     1       1.988   1.687  19.325  0.00  0.00    +0.000 C 
ATOM      8  C   UNL     1       0.983   2.619  18.808  0.00  0.00    +0.000 C 
ATOM      9  C   UNL     1       1.300   3.613  17.952  0.00  0.00    +0.000 C 
ATOM     10  C   UNL     1       2.734   3.880  17.434  0.00  0.00    +0.000 C 
ATOM     11  C   UNL     1       3.342   5.270  17.680  0.00  0.00    +0.000 C 
ATOM     12  C   UNL     1       3.191   6.594  17.382  0.00  0.00    +0.000 C 
ATOM     13  C   UNL     1       2.537   7.488  18.423  0.00  0.00    +0.000 A 
ATOM     14  C   UNL     1       2.259   8.845  18.182  0.00  0.00    +0.000 A 
ATOM     15  C   UNL     1       1.541   9.616  19.106  0.00  0.00    +0.000 A 
ATOM     16  C   UNL     1       1.046   9.026  20.261  0.00  0.00    +0.000 A 
ATOM     17  C   UNL     1       1.378   7.704  20.551  0.00  0.00    +0.000 A 
ATOM     18  C   UNL     1       2.196   6.956  19.685  0.00  0.00    +0.000 A 
ENDROOT
BRANCH  12  19
ATOM     19  N   UNL     1       4.250   7.308  16.753  0.00  0.00    +0.000 N 
ATOM     20  H   UNL     1       4.284   8.266  17.107  0.00  0.00    +0.000 HD
BRANCH  19  21
ATOM     21  C   UNL     1       5.604   6.759  16.707  0.00  0.00    +0.000 C 
BRANCH  21  22
ATOM     22  C   UNL     1       5.791   5.752  15.568  0.00  0.00    +0.000 C 
BRANCH  22  23
ATOM     23  C   UNL     1       6.553   4.460  15.897  0.00  0.00    +0.000 C 
BRANCH  23  24
ATOM     24  C   UNL     1       7.585   4.551  17.023  0.00  0.00    +0.000 C 
BRANCH  24  25
ATOM     25  N   UNL     1       7.017   4.228  18.327  0.00  0.00    +0.000 NA
ATOM     26  H   UNL     1       7.316   3.303  18.628  0.00  0.00    +0.000 HD
ATOM     27  H   UNL     1       6.001   4.192  18.254  0.00  0.00    +0.000 HD
ENDBRANCH  24  25
ENDBRANCH  23  24
ENDBRANCH  22  23
ENDBRANCH  21  22
ENDBRANCH  19  21
ENDBRANCH  12  19
TORSDOF 6
ENDMDL
MODEL 4
REMARK VINA RESULT:      -7.4      1.407      1.977
REMARK  Name = 
REMARK  7 active torsions:
REMARK  status: ('A' for Active; 'I' for Inactive)
REMARK    1  A    between atoms: C_1  and  N_2
REMARK    2  A    between atoms: C_12  and  N_13
REMARK    3  A    between atoms: N_13  and  C_14
REMARK    4  A    between atoms: C_14  and  C_15
REMARK    5  A    between atoms: C_15  and  C_16
REMARK    6  A    between atoms: C_16  and  C_17
REMARK    7  A    between atoms: C_17  and  N_18
REMARK                            x       y       z     vdW  Elec       q    Type
REMARK                         _______ _______ _______ _____ _____    ______ ____
ROOT
ATOM      1  C   UNL     1       2.059   4.618  21.250  0.00  0.00    +0.000 C 
ATOM      2  N   UNL     1       2.727   5.509  20.302  0.00  0.00    +0.000 N 
ATOM      3  C   UNL     1       3.453   4.918  19.303  0.00  0.00    +0.000 C 
ATOM      4  N   UNL     1       4.147   3.821  19.486  0.00  0.00    +0.000 NA
ATOM      5  C   UNL     1       3.803   3.029  18.266  0.00  0.00    +0.000 C 
ATOM      6  C   UNL     1       3.320   1.756  18.897  0.00  0.00    +0.000 C 
ATOM      7  C   UNL     1       2.030   1.516  19.155  0.00  0.00    +0.000 C 
ATOM      8  C   UNL     1       1.004   2.464  18.714  0.00  0.00    +0.000 C 
ATOM      9  C   UNL     1       1.301   3.542  17.960  0.00  0.00    +0.000 C 
ATOM     10  C   UNL     1       2.732   3.896  17.488  0.00  0.00    +0.000 C 
ATOM     11  C   UNL     1       3.297   5.273  17.871  0.00  0.00    +0.000 C 
ATOM     12  C   UNL     1       3.111   6.615  17.697  0.00  0.00    +0.000 C 
ATOM     13  C   UNL     1       2.421   7.388  18.809  0.00  0.00    +0.000 A 
ATOM     14  C   UNL     1       2.106   8.754  18.692  0.00  0.00    +0.000 A 
ATOM     15  C   UNL     1       1.357   9.414  19.675  0.00  0.00    +0.000 A 
ATOM     16  C   UNL     1       0.868   8.705  20.763  0.00  0.00    +0.000 A 
ATOM     17  C   UNL     1       1.234   7.371  20.932  0.00  0.00    +0.000 A 
ATOM     18  C   UNL     1       2.082   6.731  20.011  0.00  0.00    +0.000 A 
ENDROOT
BRANCH  12  19
ATOM     19  N   UNL     1       4.156   7.414  17.151  0.00  0.00    +0.000 N 
ATOM     20  H   UNL     1       4.377   8.182  17.789  0.00  0.00    +0.000 HD
BRANCH  19  21
ATOM     21  C   UNL     1       5.398   6.807  16.675  0.00  0.00    +0.000 C 
BRANCH  21  22
ATOM     22  C   UNL     1       5.254   6.199  15.276  0.00  0.00    +0.000 C 
BRANCH  22  23
ATOM     23  C   UNL     1       5.603   4.712  15.122  0.00  0.00    +0.000 C 
BRANCH  23  24
ATOM     24  C   UNL     1       6.815   4.388  14.246  0.00  0.00    +0.000 C 
BRANCH  24  25
ATOM     25  N   UNL     1       7.789   5.472  14.217  0.00  0.00    +0.000 NA
ATOM     26  H   UNL     1       7.353   6.352  14.486  0.00  0.00    +0.000 HD
ATOM     27  H   UNL     1       8.126   5.599  13.263  0.00  0.00    +0.000 HD
ENDBRANCH  24  25
ENDBRANCH  23  24
ENDBRANCH  22  23
ENDBRANCH  21  22
ENDBRANCH  19  21
ENDBRANCH  12  19
TORSDOF 6
ENDMDL
MODEL 5
REMARK VINA RESULT:      -7.4      2.351      4.316
REMARK  Name = 
REMARK  7 active torsions:
REMARK  status: ('A' for Active; 'I' for Inactive)
REMARK    1  A    between atoms: C_1  and  N_2
REMARK    2  A    between atoms: C_12  and  N_13
REMARK    3  A    between atoms: N_13  and  C_14
REMARK    4  A    between atoms: C_14  and  C_15
REMARK    5  A    between atoms: C_15  and  C_16
REMARK    6  A    between atoms: C_16  and  C_17
REMARK    7  A    between atoms: C_17  and  N_18
REMARK                            x       y       z     vdW  Elec       q    Type
REMARK                         _______ _______ _______ _____ _____    ______ ____
ROOT
ATOM      1  C   UNL     1       4.807   3.292  19.741  0.00  0.00    +0.000 C 
ATOM      2  N   UNL     1       5.044   4.146  18.578  0.00  0.00    +0.000 N 
ATOM      3  C   UNL     1       3.976   4.380  17.753  0.00  0.00    +0.000 C 
ATOM      4  N   UNL     1       3.072   3.468  17.490  0.00  0.00    +0.000 NA
ATOM      5  C   UNL     1       1.801   4.246  17.614  0.00  0.00    +0.000 C 
ATOM      6  C   UNL     1       1.061   3.402  18.609  0.00  0.00    +0.000 C 
ATOM      7  C   UNL     1       1.084   3.642  19.924  0.00  0.00    +0.000 C 
ATOM      8  C   UNL     1       1.755   4.836  20.443  0.00  0.00    +0.000 C 
ATOM      9  C   UNL     1       2.280   5.774  19.627  0.00  0.00    +0.000 C 
ATOM     10  C   UNL     1       2.237   5.694  18.082  0.00  0.00    +0.000 C 
ATOM     11  C   UNL     1       3.572   5.740  17.320  0.00  0.00    +0.000 C 
ATOM     12  C   UNL     1       4.652   6.534  17.061  0.00  0.00    +0.000 C 
ATOM     13  C   UNL     1       5.931   6.273  17.840  0.00  0.00    +0.000 A 
ATOM     14  C   UNL     1       7.070   7.086  17.709  0.00  0.00    +0.000 A 
ATOM     15  C   UNL     1       8.192   6.904  18.530  0.00  0.00    +0.000 A 
ATOM     16  C   UNL     1       8.167   5.940  19.529  0.00  0.00    +0.000 A 
ATOM     17  C   UNL     1       7.078   5.078  19.621  0.00  0.00    +0.000 A 
ATOM     18  C   UNL     1       5.997   5.176  18.726  0.00  0.00    +0.000 A 
ENDROOT
BRANCH  12  19
ATOM     19  N   UNL     1       4.984   6.867  15.716  0.00  0.00    +0.000 N 
ATOM     20  H   UNL     1       5.841   7.425  15.697  0.00  0.00    +0.000 HD
BRANCH  19  21
ATOM     21  C   UNL     1       5.050   5.839  14.680  0.00  0.00    +0.000 C 
BRANCH  21  22
ATOM     22  C   UNL     1       6.346   5.024  14.744  0.00  0.00    +0.000 C 
BRANCH  22  23
ATOM     23  C   UNL     1       6.336   3.644  14.073  0.00  0.00    +0.000 C 
BRANCH  23  24
ATOM     24  C   UNL     1       6.392   3.633  12.544  0.00  0.00    +0.000 C 
BRANCH  24  25
ATOM     25  N   UNL     1       5.900   2.384  11.976  0.00  0.00    +0.000 NA
ATOM     26  H   UNL     1       6.316   1.586  12.451  0.00  0.00    +0.000 HD
ATOM     27  H   UNL     1       6.189   2.319  11.000  0.00  0.00    +0.000 HD
ENDBRANCH  24  25
ENDBRANCH  23  24
ENDBRANCH  22  23
ENDBRANCH  21  22
ENDBRANCH  19  21
ENDBRANCH  12  19
TORSDOF 6
ENDMDL
MODEL 6
REMARK VINA RESULT:      -7.2      1.359      1.547
REMARK  Name = 
REMARK  7 active torsions:
REMARK  status: ('A' for Active; 'I' for Inactive)
REMARK    1  A    between atoms: C_1  and  N_2
REMARK    2  A    between atoms: C_12  and  N_13
REMARK    3  A    between atoms: N_13  and  C_14
REMARK    4  A    between atoms: C_14  and  C_15
REMARK    5  A    between atoms: C_15  and  C_16
REMARK    6  A    between atoms: C_16  and  C_17
REMARK    7  A    between atoms: C_17  and  N_18
REMARK                            x       y       z     vdW  Elec       q    Type
REMARK                         _______ _______ _______ _____ _____    ______ ____
ROOT
ATOM      1  C   UNL     1       1.784   5.427  20.737  0.00  0.00    +0.000 C 
ATOM      2  N   UNL     1       2.774   6.059  19.866  0.00  0.00    +0.000 N 
ATOM      3  C   UNL     1       3.673   5.230  19.248  0.00  0.00    +0.000 C 
ATOM      4  N   UNL     1       4.169   4.166  19.829  0.00  0.00    +0.000 NA
ATOM      5  C   UNL     1       4.080   3.148  18.738  0.00  0.00    +0.000 C 
ATOM      6  C   UNL     1       3.312   2.066  19.439  0.00  0.00    +0.000 C 
ATOM      7  C   UNL     1       1.982   1.952  19.359  0.00  0.00    +0.000 C 
ATOM      8  C   UNL     1       1.220   2.833  18.470  0.00  0.00    +0.000 C 
ATOM      9  C   UNL     1       1.824   3.707  17.639  0.00  0.00    +0.000 C 
ATOM     10  C   UNL     1       3.359   3.880  17.536  0.00  0.00    +0.000 C 
ATOM     11  C   UNL     1       3.946   5.277  17.791  0.00  0.00    +0.000 C 
ATOM     12  C   UNL     1       3.960   6.557  17.316  0.00  0.00    +0.000 C 
ATOM     13  C   UNL     1       3.085   7.585  18.014  0.00  0.00    +0.000 A 
ATOM     14  C   UNL     1       2.963   8.907  17.551  0.00  0.00    +0.000 A 
ATOM     15  C   UNL     1       2.053   9.801  18.134  0.00  0.00    +0.000 A 
ATOM     16  C   UNL     1       1.216   9.367  19.153  0.00  0.00    +0.000 A 
ATOM     17  C   UNL     1       1.378   8.085  19.673  0.00  0.00    +0.000 A 
ATOM     18  C   UNL     1       2.367   7.219  19.173  0.00  0.00    +0.000 A 
ENDROOT
BRANCH  12  19
ATOM     19  N   UNL     1       5.193   7.166  16.947  0.00  0.00    +0.000 N 
ATOM     20  H   UNL     1       5.350   8.005  17.510  0.00  0.00    +0.000 HD
BRANCH  19  21
ATOM     21  C   UNL     1       6.428   6.387  16.883  0.00  0.00    +0.000 C 
BRANCH  21  22
ATOM     22  C   UNL     1       7.565   7.022  17.692  0.00  0.00    +0.000 C 
BRANCH  22  23
ATOM     23  C   UNL     1       7.735   8.544  17.580  0.00  0.00    +0.000 C 
BRANCH  23  24
ATOM     24  C   UNL     1       8.656   9.199  18.609  0.00  0.00    +0.000 C 
BRANCH  24  25
ATOM     25  N   UNL     1       9.125  10.512  18.183  0.00  0.00    +0.000 NA
ATOM     26  H   UNL     1       8.357  11.062  17.804  0.00  0.00    +0.000 HD
ATOM     27  H   UNL     1       9.800  10.402  17.426  0.00  0.00    +0.000 HD
ENDBRANCH  24  25
ENDBRANCH  23  24
ENDBRANCH  22  23
ENDBRANCH  21  22
ENDBRANCH  19  21
ENDBRANCH  12  19
TORSDOF 6
ENDMDL
MODEL 7
REMARK VINA RESULT:      -7.1      2.514      4.314
REMARK  Name = 
REMARK  7 active torsions:
REMARK  status: ('A' for Active; 'I' for Inactive)
REMARK    1  A    between atoms: C_1  and  N_2
REMARK    2  A    between atoms: C_12  and  N_13
REMARK    3  A    between atoms: N_13  and  C_14
REMARK    4  A    between atoms: C_14  and  C_15
REMARK    5  A    between atoms: C_15  and  C_16
REMARK    6  A    between atoms: C_16  and  C_17
REMARK    7  A    between atoms: C_17  and  N_18
REMARK                            x       y       z     vdW  Elec       q    Type
REMARK                         _______ _______ _______ _____ _____    ______ ____
ROOT
ATOM      1  C   UNL     1       4.810   3.187  20.230  0.00  0.00    +0.000 C 
ATOM      2  N   UNL     1       5.079   3.619  18.859  0.00  0.00    +0.000 N 
ATOM      3  C   UNL     1       4.103   3.374  17.930  0.00  0.00    +0.000 C 
ATOM      4  N   UNL     1       3.369   2.289  17.944  0.00  0.00    +0.000 NA
ATOM      5  C   UNL     1       2.002   2.836  17.688  0.00  0.00    +0.000 C 
ATOM      6  C   UNL     1       1.259   2.271  18.862  0.00  0.00    +0.000 C 
ATOM      7  C   UNL     1       1.081   2.946  20.003  0.00  0.00    +0.000 C 
ATOM      8  C   UNL     1       1.517   4.340  20.108  0.00  0.00    +0.000 C 
ATOM      9  C   UNL     1       2.013   5.016  19.052  0.00  0.00    +0.000 C 
ATOM     10  C   UNL     1       2.179   4.407  17.638  0.00  0.00    +0.000 C 
ATOM     11  C   UNL     1       3.582   4.415  17.011  0.00  0.00    +0.000 C 
ATOM     12  C   UNL     1       4.572   5.242  16.564  0.00  0.00    +0.000 C 
ATOM     13  C   UNL     1       5.764   5.483  17.477  0.00  0.00    +0.000 A 
ATOM     14  C   UNL     1       6.794   6.382  17.148  0.00  0.00    +0.000 A 
ATOM     15  C   UNL     1       7.815   6.684  18.059  0.00  0.00    +0.000 A 
ATOM     16  C   UNL     1       7.791   6.130  19.332  0.00  0.00    +0.000 A 
ATOM     17  C   UNL     1       6.822   5.180  19.646  0.00  0.00    +0.000 A 
ATOM     18  C   UNL     1       5.861   4.783  18.699  0.00  0.00    +0.000 A 
ENDROOT
BRANCH  12  19
ATOM     19  N   UNL     1       5.027   5.148  15.218  0.00  0.00    +0.000 N 
ATOM     20  H   UNL     1       5.382   6.054  14.905  0.00  0.00    +0.000 HD
BRANCH  19  21
ATOM     21  C   UNL     1       5.955   4.095  14.809  0.00  0.00    +0.000 C 
BRANCH  21  22
ATOM     22  C   UNL     1       5.798   3.717  13.332  0.00  0.00    +0.000 C 
BRANCH  22  23
ATOM     23  C   UNL     1       6.901   4.184  12.372  0.00  0.00    +0.000 C 
BRANCH  23  24
ATOM     24  C   UNL     1       8.024   5.022  12.986  0.00  0.00    +0.000 C 
BRANCH  24  25
ATOM     25  N   UNL     1       8.268   6.255  12.247  0.00  0.00    +0.000 NA
ATOM     26  H   UNL     1       8.154   7.064  12.853  0.00  0.00    +0.000 HD
ATOM     27  H   UNL     1       7.572   6.350  11.507  0.00  0.00    +0.000 HD
ENDBRANCH  24  25
ENDBRANCH  23  24
ENDBRANCH  22  23
ENDBRANCH  21  22
ENDBRANCH  19  21
ENDBRANCH  12  19
TORSDOF 6
ENDMDL
MODEL 8
REMARK VINA RESULT:      -7.0      2.208      5.132
REMARK  Name = 
REMARK  7 active torsions:
REMARK  status: ('A' for Active; 'I' for Inactive)
REMARK    1  A    between atoms: C_1  and  N_2
REMARK    2  A    between atoms: C_12  and  N_13
REMARK    3  A    between atoms: N_13  and  C_14
REMARK    4  A    between atoms: C_14  and  C_15
REMARK    5  A    between atoms: C_15  and  C_16
REMARK    6  A    between atoms: C_16  and  C_17
REMARK    7  A    between atoms: C_17  and  N_18
REMARK                            x       y       z     vdW  Elec       q    Type
REMARK                         _______ _______ _______ _____ _____    ______ ____
ROOT
ATOM      1  C   UNL     1       3.133   2.302  17.533  0.00  0.00    +0.000 C 
ATOM      2  N   UNL     1       3.131   3.742  17.280  0.00  0.00    +0.000 N 
ATOM      3  C   UNL     1       2.299   4.506  18.054  0.00  0.00    +0.000 C 
ATOM      4  N   UNL     1       1.115   4.095  18.439  0.00  0.00    +0.000 NA
ATOM      5  C   UNL     1       1.099   4.501  19.877  0.00  0.00    +0.000 C 
ATOM      6  C   UNL     1       0.770   3.188  20.525  0.00  0.00    +0.000 C 
ATOM      7  C   UNL     1       1.705   2.355  20.994  0.00  0.00    +0.000 C 
ATOM      8  C   UNL     1       3.114   2.757  20.995  0.00  0.00    +0.000 C 
ATOM      9  C   UNL     1       3.506   3.993  20.624  0.00  0.00    +0.000 C 
ATOM     10  C   UNL     1       2.533   5.104  20.162  0.00  0.00    +0.000 C 
ATOM     11  C   UNL     1       2.753   5.722  18.772  0.00  0.00    +0.000 C 
ATOM     12  C   UNL     1       3.638   6.451  18.030  0.00  0.00    +0.000 C 
ATOM     13  C   UNL     1       4.526   5.705  17.047  0.00  0.00    +0.000 A 
ATOM     14  C   UNL     1       5.527   6.350  16.299  0.00  0.00    +0.000 A 
ATOM     15  C   UNL     1       6.417   5.624  15.497  0.00  0.00    +0.000 A 
ATOM     16  C   UNL     1       6.351   4.238  15.472  0.00  0.00    +0.000 A 
ATOM     17  C   UNL     1       5.319   3.590  16.147  0.00  0.00    +0.000 A 
ATOM     18  C   UNL     1       4.350   4.318  16.861  0.00  0.00    +0.000 A 
ENDROOT
BRANCH  12  19
ATOM     19  N   UNL     1       3.232   7.686  17.449  0.00  0.00    +0.000 N 
ATOM     20  H   UNL     1       3.269   7.621  16.429  0.00  0.00    +0.000 HD
BRANCH  19  21
ATOM     21  C   UNL     1       1.984   8.333  17.850  0.00  0.00    +0.000 C 
BRANCH  21  22
ATOM     22  C   UNL     1       2.133   9.851  18.003  0.00  0.00    +0.000 C 
BRANCH  22  23
ATOM     23  C   UNL     1       0.937  10.613  18.591  0.00  0.00    +0.000 C 
BRANCH  23  24
ATOM     24  C   UNL     1      -0.446  10.022  18.312  0.00  0.00    +0.000 C 
BRANCH  24  25
ATOM     25  N   UNL     1      -1.265  10.888  17.473  0.00  0.00    +0.000 NA
ATOM     26  H   UNL     1      -1.864  11.479  18.045  0.00  0.00    +0.000 HD
ATOM     27  H   UNL     1      -1.887  10.316  16.902  0.00  0.00    +0.000 HD
ENDBRANCH  24  25
ENDBRANCH  23  24
ENDBRANCH  22  23
ENDBRANCH  21  22
ENDBRANCH  19  21
ENDBRANCH  12  19
TORSDOF 6
ENDMDL
MODEL 9
REMARK VINA RESULT:      -7.0      1.501      4.700
REMARK  Name = 
REMARK  7 active torsions:
REMARK  status: ('A' for Active; 'I' for Inactive)
REMARK    1  A    between atoms: C_1  and  N_2
REMARK    2  A    between atoms: C_12  and  N_13
REMARK    3  A    between atoms: N_13  and  C_14
REMARK    4  A    between atoms: C_14  and  C_15
REMARK    5  A    between atoms: C_15  and  C_16
REMARK    6  A    between atoms: C_16  and  C_17
REMARK    7  A    between atoms: C_17  and  N_18
REMARK                            x       y       z     vdW  Elec       q    Type
REMARK                         _______ _______ _______ _____ _____    ______ ____
ROOT
ATOM      1  C   UNL     1       4.197   7.114  16.269  0.00  0.00    +0.000 C 
ATOM      2  N   UNL     1       3.387   6.585  17.366  0.00  0.00    +0.000 N 
ATOM      3  C   UNL     1       3.757   5.371  17.880  0.00  0.00    +0.000 C 
ATOM      4  N   UNL     1       4.229   4.402  17.135  0.00  0.00    +0.000 NA
ATOM      5  C   UNL     1       5.382   3.915  17.953  0.00  0.00    +0.000 C 
ATOM      6  C   UNL     1       6.489   4.014  16.946  0.00  0.00    +0.000 C 
ATOM      7  C   UNL     1       7.288   5.082  16.847  0.00  0.00    +0.000 C 
ATOM      8  C   UNL     1       7.181   6.173  17.818  0.00  0.00    +0.000 C 
ATOM      9  C   UNL     1       6.360   6.103  18.887  0.00  0.00    +0.000 C 
ATOM     10  C   UNL     1       5.454   4.887  19.199  0.00  0.00    +0.000 C 
ATOM     11  C   UNL     1       3.942   5.131  19.332  0.00  0.00    +0.000 C 
ATOM     12  C   UNL     1       3.004   5.783  20.080  0.00  0.00    +0.000 C 
ATOM     13  C   UNL     1       2.438   7.084  19.535  0.00  0.00    +0.000 A 
ATOM     14  C   UNL     1       1.532   7.874  20.265  0.00  0.00    +0.000 A 
ATOM     15  C   UNL     1       1.123   9.131  19.798  0.00  0.00    +0.000 A 
ATOM     16  C   UNL     1       1.655   9.637  18.620  0.00  0.00    +0.000 A 
ATOM     17  C   UNL     1       2.493   8.835  17.848  0.00  0.00    +0.000 A 
ATOM     18  C   UNL     1       2.818   7.527  18.250  0.00  0.00    +0.000 A 
ENDROOT
BRANCH  12  19
ATOM     19  N   UNL     1       1.961   5.048  20.712  0.00  0.00    +0.000 N 
ATOM     20  H   UNL     1       1.220   4.843  20.038  0.00  0.00    +0.000 HD
BRANCH  19  21
ATOM     21  C   UNL     1       2.253   3.847  21.493  0.00  0.00    +0.000 C 
BRANCH  21  22
ATOM     22  C   UNL     1       1.634   2.586  20.882  0.00  0.00    +0.000 C 
BRANCH  22  23
ATOM     23  C   UNL     1       0.793   2.766  19.611  0.00  0.00    +0.000 C 
BRANCH  23  24
ATOM     24  C   UNL     1       1.492   2.457  18.287  0.00  0.00    +0.000 C 
BRANCH  24  25
ATOM     25  N   UNL     1       2.669   1.614  18.460  0.00  0.00    +0.000 NA
ATOM     26  H   UNL     1       2.481   0.869  19.127  0.00  0.00    +0.000 HD
ATOM     27  H   UNL     1       3.428   2.170  18.857  0.00  0.00    +0.000 HD
ENDBRANCH  24  25
ENDBRANCH  23  24
ENDBRANCH  22  23
ENDBRANCH  21  22
ENDBRANCH  19  21
ENDBRANCH  12  19
TORSDOF 6
ENDMDL
