MODEL 1
REMARK VINA RESULT:      -7.3      0.000      0.000
REMARK  Name = 
REMARK  10 active torsions:
REMARK  status: ('A' for Active; 'I' for Inactive)
REMARK    1  A    between atoms: C_1  and  O_2
REMARK    2  A    between atoms: O_2  and  C_3
REMARK    3  A    between atoms: C_6  and  N_7
REMARK    4  A    between atoms: N_7  and  C_8
REMARK    5  A    between atoms: N_7  and  S_9
REMARK    6  A    between atoms: S_9  and  C_12
REMARK    7  A    between atoms: C_13  and  C_14
REMARK    8  A    between atoms: C_17  and  C_18
REMARK    9  A    between atoms: C_19  and  O_20
REMARK   10  A    between atoms: O_20  and  C_21
REMARK                            x       y       z     vdW  Elec       q    Type
REMARK                         _______ _______ _______ _____ _____    ______ ____
ROOT
ATOM      1  N   UNL     1       3.796   4.989  18.208  0.00  0.00    +0.000 N 
ATOM      2  C   UNL     1       3.073   3.949  17.479  0.00  0.00    +0.000 C 
ENDROOT
BRANCH   1   6
ATOM      3  C   UNL     1       1.816   8.608  19.187  0.00  0.00    +0.000 A 
ATOM      4  C   UNL     1       2.493   8.453  17.979  0.00  0.00    +0.000 A 
ATOM      5  C   UNL     1       3.144   7.257  17.674  0.00  0.00    +0.000 A 
ATOM      6  C   UNL     1       3.126   6.197  18.585  0.00  0.00    +0.000 A 
ATOM      7  C   UNL     1       2.423   6.327  19.801  0.00  0.00    +0.000 A 
ATOM      8  C   UNL     1       1.782   7.544  20.093  0.00  0.00    +0.000 A 
BRANCH   3  10
ATOM      9  C   UNL     1       0.445  10.012  20.541  0.00  0.00    +0.000 C 
ATOM     10  O   UNL     1       1.222   9.828  19.362  0.00  0.00    +0.000 OA
ENDBRANCH   3  10
BRANCH   7  11
ATOM     11  O   UNL     1       2.387   5.231  20.630  0.00  0.00    +0.000 OA
ATOM     12  C   UNL     1       1.203   4.433  20.592  0.00  0.00    +0.000 C 
ENDBRANCH   7  11
ENDBRANCH   1   6
BRANCH   1  13
ATOM     13  S   UNL     1       5.411   4.757  18.612  0.00  0.00    +0.000 S 
ATOM     14  O   UNL     1       5.820   5.656  19.668  0.00  0.00    +0.000 OA
ATOM     15  O   UNL     1       5.663   3.331  18.695  0.00  0.00    +0.000 OA
BRANCH  13  16
ATOM     16  C   UNL     1       6.357   5.248  17.257  0.00  0.00    +0.000 A 
ATOM     17  C   UNL     1       6.424   4.655  15.974  0.00  0.00    +0.000 A 
ATOM     18  C   UNL     1       5.701   3.507  15.385  0.00  0.00    +0.000 C 
ATOM     19  N   UNL     1       7.311   5.299  15.198  0.00  0.00    +0.000 NA
ATOM     20  O   UNL     1       7.810   6.332  15.961  0.00  0.00    +0.000 OA
ATOM     21  C   UNL     1       7.238   6.307  17.194  0.00  0.00    +0.000 A 
ATOM     22  C   UNL     1       7.676   7.375  18.114  0.00  0.00    +0.000 C 
ENDBRANCH  13  16
ENDBRANCH   1  13
TORSDOF 5
ENDMDL
MODEL 2
REMARK VINA RESULT:      -7.1      2.891      6.356
REMARK  Name = 
REMARK  10 active torsions:
REMARK  status: ('A' for Active; 'I' for Inactive)
REMARK    1  A    between atoms: C_1  and  O_2
REMARK    2  A    between atoms: O_2  and  C_3
REMARK    3  A    between atoms: C_6  and  N_7
REMARK    4  A    between atoms: N_7  and  C_8
REMARK    5  A    between atoms: N_7  and  S_9
REMARK    6  A    between atoms: S_9  and  C_12
REMARK    7  A    between atoms: C_13  and  C_14
REMARK    8  A    between atoms: C_17  and  C_18
REMARK    9  A    between atoms: C_19  and  O_20
REMARK   10  A    between atoms: O_20  and  C_21
REMARK                            x       y       z     vdW  Elec       q    Type
REMARK                         _______ _______ _______ _____ _____    ______ ____
ROOT
ATOM      1  N   UNL     1       4.099   4.647  18.176  0.00  0.00    +0.000 N 
ATOM      2  C   UNL     1       3.857   5.720  19.137  0.00  0.00    +0.000 C 
ENDROOT
BRANCH   1   6
ATOM      3  C   UNL     1       7.063   5.112  15.181  0.00  0.00    +0.000 A 
ATOM      4  C   UNL     1       5.705   5.202  14.881  0.00  0.00    +0.000 A 
ATOM      5  C   UNL     1       4.743   5.041  15.878  0.00  0.00    +0.000 A 
ATOM      6  C   UNL     1       5.133   4.784  17.194  0.00  0.00    +0.000 A 
ATOM      7  C   UNL     1       6.503   4.717  17.522  0.00  0.00    +0.000 A 
ATOM      8  C   UNL     1       7.458   4.872  16.500  0.00  0.00    +0.000 A 
BRANCH   3  10
ATOM      9  C   UNL     1       7.460   4.806  12.850  0.00  0.00    +0.000 C 
ATOM     10  O   UNL     1       7.902   5.289  14.114  0.00  0.00    +0.000 OA
ENDBRANCH   3  10
BRANCH   7  11
ATOM     11  O   UNL     1       6.829   4.524  18.844  0.00  0.00    +0.000 OA
ATOM     12  C   UNL     1       7.572   5.564  19.482  0.00  0.00    +0.000 C 
ENDBRANCH   7  11
ENDBRANCH   1   6
BRANCH   1  13
ATOM     13  S   UNL     1       3.170   3.246  18.235  0.00  0.00    +0.000 S 
ATOM     14  O   UNL     1       1.857   3.467  17.672  0.00  0.00    +0.000 OA
ATOM     15  O   UNL     1       3.995   2.130  17.813  0.00  0.00    +0.000 OA
BRANCH  13  16
ATOM     16  C   UNL     1       2.860   2.904  19.896  0.00  0.00    +0.000 A 
ATOM     17  C   UNL     1       1.724   3.253  20.665  0.00  0.00    +0.000 A 
ATOM     18  C   UNL     1       0.469   3.946  20.303  0.00  0.00    +0.000 C 
ATOM     19  N   UNL     1       1.870   2.849  21.938  0.00  0.00    +0.000 NA
ATOM     20  O   UNL     1       3.089   2.211  22.001  0.00  0.00    +0.000 OA
ATOM     21  C   UNL     1       3.683   2.239  20.779  0.00  0.00    +0.000 A 
ATOM     22  C   UNL     1       4.999   1.574  20.702  0.00  0.00    +0.000 C 
ENDBRANCH  13  16
ENDBRANCH   1  13
TORSDOF 5
ENDMDL
MODEL 3
REMARK VINA RESULT:      -7.0      2.996      6.480
REMARK  Name = 
REMARK  10 active torsions:
REMARK  status: ('A' for Active; 'I' for Inactive)
REMARK    1  A    between atoms: C_1  and  O_2
REMARK    2  A    between atoms: O_2  and  C_3
REMARK    3  A    between atoms: C_6  and  N_7
REMARK    4  A    between atoms: N_7  and  C_8
REMARK    5  A    between atoms: N_7  and  S_9
REMARK    6  A    between atoms: S_9  and  C_12
REMARK    7  A    between atoms: C_13  and  C_14
REMARK    8  A    between atoms: C_17  and  C_18
REMARK    9  A    between atoms: C_19  and  O_20
REMARK   10  A    between atoms: O_20  and  C_21
REMARK                            x       y       z     vdW  Elec       q    Type
REMARK                         _______ _______ _______ _____ _____    ______ ____
ROOT
ATOM      1  N   UNL     1       4.734   4.453  18.421  0.00  0.00    +0.000 N 
ATOM      2  C   UNL     1       4.441   5.614  19.257  0.00  0.00    +0.000 C 
ENDROOT
BRANCH   1   6
ATOM      3  C   UNL     1       6.897   4.963  14.811  0.00  0.00    +0.000 A 
ATOM      4  C   UNL     1       5.504   4.977  14.833  0.00  0.00    +0.000 A 
ATOM      5  C   UNL     1       4.807   4.802  16.029  0.00  0.00    +0.000 A 
ATOM      6  C   UNL     1       5.504   4.607  17.224  0.00  0.00    +0.000 A 
ATOM      7  C   UNL     1       6.915   4.617  17.225  0.00  0.00    +0.000 A 
ATOM      8  C   UNL     1       7.598   4.784  16.007  0.00  0.00    +0.000 A 
BRANCH   3  10
ATOM      9  C   UNL     1       7.027   4.278  12.531  0.00  0.00    +0.000 C 
ATOM     10  O   UNL     1       7.456   5.144  13.576  0.00  0.00    +0.000 OA
ENDBRANCH   3  10
BRANCH   7  11
ATOM     11  O   UNL     1       7.547   4.483  18.439  0.00  0.00    +0.000 OA
ATOM     12  C   UNL     1       8.004   5.684  19.063  0.00  0.00    +0.000 C 
ENDBRANCH   7  11
ENDBRANCH   1   6
BRANCH   1  13
ATOM     13  S   UNL     1       4.176   2.933  18.877  0.00  0.00    +0.000 S 
ATOM     14  O   UNL     1       4.020   2.069  17.729  0.00  0.00    +0.000 OA
ATOM     15  O   UNL     1       4.915   2.506  20.050  0.00  0.00    +0.000 OA
BRANCH  13  16
ATOM     16  C   UNL     1       2.570   3.132  19.471  0.00  0.00    +0.000 A 
ATOM     17  C   UNL     1       2.051   2.761  20.734  0.00  0.00    +0.000 A 
ATOM     18  C   UNL     1       2.695   2.158  21.922  0.00  0.00    +0.000 C 
ATOM     19  N   UNL     1       0.739   3.038  20.810  0.00  0.00    +0.000 NA
ATOM     20  O   UNL     1       0.399   3.616  19.606  0.00  0.00    +0.000 OA
ATOM     21  C   UNL     1       1.494   3.677  18.803  0.00  0.00    +0.000 A 
ATOM     22  C   UNL     1       1.271   4.290  17.479  0.00  0.00    +0.000 C 
ENDBRANCH  13  16
ENDBRANCH   1  13
TORSDOF 5
ENDMDL
MODEL 4
REMARK VINA RESULT:      -7.0      0.643      1.800
REMARK  Name = 
REMARK  10 active torsions:
REMARK  status: ('A' for Active; 'I' for Inactive)
REMARK    1  A    between atoms: C_1  and  O_2
REMARK    2  A    between atoms: O_2  and  C_3
REMARK    3  A    between atoms: C_6  and  N_7
REMARK    4  A    between atoms: N_7  and  C_8
REMARK    5  A    between atoms: N_7  and  S_9
REMARK    6  A    between atoms: S_9  and  C_12
REMARK    7  A    between atoms: C_13  and  C_14
REMARK    8  A    between atoms: C_17  and  C_18
REMARK    9  A    between atoms: C_19  and  O_20
REMARK   10  A    between atoms: O_20  and  C_21
REMARK                            x       y       z     vdW  Elec       q    Type
REMARK                         _______ _______ _______ _____ _____    ______ ____
ROOT
ATOM      1  N   UNL     1       3.741   4.947  18.234  0.00  0.00    +0.000 N 
ATOM      2  C   UNL     1       3.026   3.958  17.432  0.00  0.00    +0.000 C 
ENDROOT
BRANCH   1   6
ATOM      3  C   UNL     1       1.749   8.496  19.422  0.00  0.00    +0.000 A 
ATOM      4  C   UNL     1       2.409   8.407  18.198  0.00  0.00    +0.000 A 
ATOM      5  C   UNL     1       3.064   7.233  17.825  0.00  0.00    +0.000 A 
ATOM      6  C   UNL     1       3.068   6.130  18.681  0.00  0.00    +0.000 A 
ATOM      7  C   UNL     1       2.382   6.192  19.912  0.00  0.00    +0.000 A 
ATOM      8  C   UNL     1       1.736   7.388  20.274  0.00  0.00    +0.000 A 
BRANCH   3  10
ATOM      9  C   UNL     1       1.096  10.634  18.593  0.00  0.00    +0.000 C 
ATOM     10  O   UNL     1       1.148   9.700  19.667  0.00  0.00    +0.000 OA
ENDBRANCH   3  10
BRANCH   7  11
ATOM     11  O   UNL     1       2.366   5.055  20.686  0.00  0.00    +0.000 OA
ATOM     12  C   UNL     1       1.186   4.253  20.627  0.00  0.00    +0.000 C 
ENDBRANCH   7  11
ENDBRANCH   1   6
BRANCH   1  13
ATOM     13  S   UNL     1       5.352   4.687  18.642  0.00  0.00    +0.000 S 
ATOM     14  O   UNL     1       5.758   5.542  19.735  0.00  0.00    +0.000 OA
ATOM     15  O   UNL     1       5.592   3.257  18.672  0.00  0.00    +0.000 OA
BRANCH  13  16
ATOM     16  C   UNL     1       6.312   5.222  17.314  0.00  0.00    +0.000 A 
ATOM     17  C   UNL     1       7.247   6.284  17.281  0.00  0.00    +0.000 A 
ATOM     18  C   UNL     1       7.724   7.206  18.335  0.00  0.00    +0.000 C 
ATOM     19  N   UNL     1       7.764   6.424  16.049  0.00  0.00    +0.000 NA
ATOM     20  O   UNL     1       7.189   5.438  15.277  0.00  0.00    +0.000 OA
ATOM     21  C   UNL     1       6.322   4.714  16.033  0.00  0.00    +0.000 A 
ATOM     22  C   UNL     1       5.642   3.609  15.328  0.00  0.00    +0.000 C 
ENDBRANCH  13  16
ENDBRANCH   1  13
TORSDOF 5
ENDMDL
MODEL 5
REMARK VINA RESULT:      -6.9      3.101      6.471
REMARK  Name = 
REMARK  10 active torsions:
REMARK  status: ('A' for Active; 'I' for Inactive)
REMARK    1  A    between atoms: C_1  and  O_2
REMARK    2  A    between atoms: O_2  and  C_3
REMARK    3  A    between atoms: C_6  and  N_7
REMARK    4  A    between atoms: N_7  and  C_8
REMARK    5  A    between atoms: N_7  and  S_9
REMARK    6  A    between atoms: S_9  and  C_12
REMARK    7  A    between atoms: C_13  and  C_14
REMARK    8  A    between atoms: C_17  and  C_18
REMARK    9  A    between atoms: C_19  and  O_20
REMARK   10  A    between atoms: O_20  and  C_21
REMARK                            x       y       z     vdW  Elec       q    Type
REMARK                         _______ _______ _______ _____ _____    ______ ____
ROOT
ATOM      1  N   UNL     1       4.749   4.335  18.447  0.00  0.00    +0.000 N 
ATOM      2  C   UNL     1       4.522   5.514  19.278  0.00  0.00    +0.000 C 
ENDROOT
BRANCH   1   6
ATOM      3  C   UNL     1       6.790   4.722  14.752  0.00  0.00    +0.000 A 
ATOM      4  C   UNL     1       5.399   4.656  14.811  0.00  0.00    +0.000 A 
ATOM      5  C   UNL     1       4.744   4.523  16.035  0.00  0.00    +0.000 A 
ATOM      6  C   UNL     1       5.479   4.452  17.221  0.00  0.00    +0.000 A 
ATOM      7  C   UNL     1       6.886   4.545  17.182  0.00  0.00    +0.000 A 
ATOM      8  C   UNL     1       7.529   4.669  15.937  0.00  0.00    +0.000 A 
BRANCH   3  10
ATOM      9  C   UNL     1       6.789   3.993  12.482  0.00  0.00    +0.000 C 
ATOM     10  O   UNL     1       7.308   4.852  13.492  0.00  0.00    +0.000 OA
ENDBRANCH   3  10
BRANCH   7  11
ATOM     11  O   UNL     1       7.554   4.533  18.384  0.00  0.00    +0.000 OA
ATOM     12  C   UNL     1       7.965   5.798  18.906  0.00  0.00    +0.000 C 
ENDBRANCH   7  11
ENDBRANCH   1   6
BRANCH   1  13
ATOM     13  S   UNL     1       4.161   2.838  18.941  0.00  0.00    +0.000 S 
ATOM     14  O   UNL     1       3.966   1.956  17.813  0.00  0.00    +0.000 OA
ATOM     15  O   UNL     1       4.907   2.416  20.111  0.00  0.00    +0.000 OA
BRANCH  13  16
ATOM     16  C   UNL     1       2.570   3.088  19.555  0.00  0.00    +0.000 A 
ATOM     17  C   UNL     1       1.472   3.711  18.916  0.00  0.00    +0.000 A 
ATOM     18  C   UNL     1       1.318   4.279  17.558  0.00  0.00    +0.000 C 
ATOM     19  N   UNL     1       0.408   3.757  19.735  0.00  0.00    +0.000 NA
ATOM     20  O   UNL     1       0.797   3.141  20.904  0.00  0.00    +0.000 OA
ATOM     21  C   UNL     1       2.090   2.736  20.799  0.00  0.00    +0.000 A 
ATOM     22  C   UNL     1       2.633   2.045  21.985  0.00  0.00    +0.000 C 
ENDBRANCH  13  16
ENDBRANCH   1  13
TORSDOF 5
ENDMDL
MODEL 6
REMARK VINA RESULT:      -6.8      1.655      2.443
REMARK  Name = 
REMARK  10 active torsions:
REMARK  status: ('A' for Active; 'I' for Inactive)
REMARK    1  A    between atoms: C_1  and  O_2
REMARK    2  A    between atoms: O_2  and  C_3
REMARK    3  A    between atoms: C_6  and  N_7
REMARK    4  A    between atoms: N_7  and  C_8
REMARK    5  A    between atoms: N_7  and  S_9
REMARK    6  A    between atoms: S_9  and  C_12
REMARK    7  A    between atoms: C_13  and  C_14
REMARK    8  A    between atoms: C_17  and  C_18
REMARK    9  A    between atoms: C_19  and  O_20
REMARK   10  A    between atoms: O_20  and  C_21
REMARK                            x       y       z     vdW  Elec       q    Type
REMARK                         _______ _______ _______ _____ _____    ______ ____
ROOT
ATOM      1  N   UNL     1       3.888   6.134  17.462  0.00  0.00    +0.000 N 
ATOM      2  C   UNL     1       3.560   4.717  17.324  0.00  0.00    +0.000 C 
ENDROOT
BRANCH   1   6
ATOM      3  C   UNL     1       1.339   8.740  19.626  0.00  0.00    +0.000 A 
ATOM      4  C   UNL     1       1.678   8.991  18.297  0.00  0.00    +0.000 A 
ATOM      5  C   UNL     1       2.523   8.126  17.601  0.00  0.00    +0.000 A 
ATOM      6  C   UNL     1       3.042   6.994  18.234  0.00  0.00    +0.000 A 
ATOM      7  C   UNL     1       2.688   6.709  19.569  0.00  0.00    +0.000 A 
ATOM      8  C   UNL     1       1.843   7.599  20.256  0.00  0.00    +0.000 A 
BRANCH   3  10
ATOM      9  C   UNL     1       0.051  10.729  19.363  0.00  0.00    +0.000 C 
ATOM     10  O   UNL     1       0.505   9.665  20.192  0.00  0.00    +0.000 OA
ENDBRANCH   3  10
BRANCH   7  11
ATOM     11  O   UNL     1       3.179   5.548  20.120  0.00  0.00    +0.000 OA
ATOM     12  C   UNL     1       2.255   4.744  20.855  0.00  0.00    +0.000 C 
ENDBRANCH   7  11
ENDBRANCH   1   6
BRANCH   1  13
ATOM     13  S   UNL     1       5.268   6.749  16.722  0.00  0.00    +0.000 S 
ATOM     14  O   UNL     1       5.075   6.894  15.297  0.00  0.00    +0.000 OA
ATOM     15  O   UNL     1       5.775   7.840  17.531  0.00  0.00    +0.000 OA
BRANCH  13  16
ATOM     16  C   UNL     1       6.500   5.550  16.855  0.00  0.00    +0.000 A 
ATOM     17  C   UNL     1       7.237   5.176  18.004  0.00  0.00    +0.000 A 
ATOM     18  C   UNL     1       7.161   5.630  19.410  0.00  0.00    +0.000 C 
ATOM     19  N   UNL     1       8.145   4.233  17.701  0.00  0.00    +0.000 NA
ATOM     20  O   UNL     1       7.987   3.967  16.358  0.00  0.00    +0.000 OA
ATOM     21  C   UNL     1       7.001   4.752  15.849  0.00  0.00    +0.000 A 
ATOM     22  C   UNL     1       6.719   4.558  14.413  0.00  0.00    +0.000 C 
ENDBRANCH  13  16
ENDBRANCH   1  13
TORSDOF 5
ENDMDL
MODEL 7
REMARK VINA RESULT:      -6.8      2.708      6.307
REMARK  Name = 
REMARK  10 active torsions:
REMARK  status: ('A' for Active; 'I' for Inactive)
REMARK    1  A    between atoms: C_1  and  O_2
REMARK    2  A    between atoms: O_2  and  C_3
REMARK    3  A    between atoms: C_6  and  N_7
REMARK    4  A    between atoms: N_7  and  C_8
REMARK    5  A    between atoms: N_7  and  S_9
REMARK    6  A    between atoms: S_9  and  C_12
REMARK    7  A    between atoms: C_13  and  C_14
REMARK    8  A    between atoms: C_17  and  C_18
REMARK    9  A    between atoms: C_19  and  O_20
REMARK   10  A    between atoms: O_20  and  C_21
REMARK                            x       y       z     vdW  Elec       q    Type
REMARK                         _______ _______ _______ _____ _____    ______ ____
ROOT
ATOM      1  N   UNL     1       3.817   4.787  17.881  0.00  0.00    +0.000 N 
ATOM      2  C   UNL     1       3.416   6.006  18.580  0.00  0.00    +0.000 C 
ENDROOT
BRANCH   1   6
ATOM      3  C   UNL     1       7.154   4.862  15.267  0.00  0.00    +0.000 A 
ATOM      4  C   UNL     1       5.849   4.958  14.785  0.00  0.00    +0.000 A 
ATOM      5  C   UNL     1       4.762   4.926  15.659  0.00  0.00    +0.000 A 
ATOM      6  C   UNL     1       4.972   4.794  17.034  0.00  0.00    +0.000 A 
ATOM      7  C   UNL     1       6.286   4.724  17.542  0.00  0.00    +0.000 A 
ATOM      8  C   UNL     1       7.367   4.747  16.643  0.00  0.00    +0.000 A 
BRANCH   3  10
ATOM      9  C   UNL     1       7.727   5.259  12.987  0.00  0.00    +0.000 C 
ATOM     10  O   UNL     1       8.127   4.905  14.306  0.00  0.00    +0.000 OA
ENDBRANCH   3  10
BRANCH   7  11
ATOM     11  O   UNL     1       6.433   4.659  18.907  0.00  0.00    +0.000 OA
ATOM     12  C   UNL     1       7.382   5.550  19.496  0.00  0.00    +0.000 C 
ENDBRANCH   7  11
ENDBRANCH   1   6
BRANCH   1  13
ATOM     13  S   UNL     1       2.928   3.375  18.086  0.00  0.00    +0.000 S 
ATOM     14  O   UNL     1       1.572   3.538  17.613  0.00  0.00    +0.000 OA
ATOM     15  O   UNL     1       3.746   2.253  17.665  0.00  0.00    +0.000 OA
BRANCH  13  16
ATOM     16  C   UNL     1       2.750   3.120  19.782  0.00  0.00    +0.000 A 
ATOM     17  C   UNL     1       3.585   2.374  20.648  0.00  0.00    +0.000 A 
ATOM     18  C   UNL     1       4.851   1.648  20.407  0.00  0.00    +0.000 C 
ATOM     19  N   UNL     1       3.091   2.371  21.898  0.00  0.00    +0.000 NA
ATOM     20  O   UNL     1       1.946   3.135  21.860  0.00  0.00    +0.000 OA
ATOM     21  C   UNL     1       1.740   3.589  20.595  0.00  0.00    +0.000 A 
ATOM     22  C   UNL     1       0.546   4.437  20.416  0.00  0.00    +0.000 C 
ENDBRANCH  13  16
ENDBRANCH   1  13
TORSDOF 5
ENDMDL
MODEL 8
REMARK VINA RESULT:      -6.6      2.466      5.804
REMARK  Name = 
REMARK  10 active torsions:
REMARK  status: ('A' for Active; 'I' for Inactive)
REMARK    1  A    between atoms: C_1  and  O_2
REMARK    2  A    between atoms: O_2  and  C_3
REMARK    3  A    between atoms: C_6  and  N_7
REMARK    4  A    between atoms: N_7  and  C_8
REMARK    5  A    between atoms: N_7  and  S_9
REMARK    6  A    between atoms: S_9  and  C_12
REMARK    7  A    between atoms: C_13  and  C_14
REMARK    8  A    between atoms: C_17  and  C_18
REMARK    9  A    between atoms: C_19  and  O_20
REMARK   10  A    between atoms: O_20  and  C_21
REMARK                            x       y       z     vdW  Elec       q    Type
REMARK                         _______ _______ _______ _____ _____    ______ ____
ROOT
ATOM      1  N   UNL     1       3.778   2.897  17.993  0.00  0.00    +0.000 N 
ATOM      2  C   UNL     1       4.153   1.487  17.917  0.00  0.00    +0.000 C 
ENDROOT
BRANCH   1   6
ATOM      3  C   UNL     1       6.810   5.857  18.134  0.00  0.00    +0.000 A 
ATOM      4  C   UNL     1       6.315   5.266  19.296  0.00  0.00    +0.000 A 
ATOM      5  C   UNL     1       5.313   4.297  19.231  0.00  0.00    +0.000 A 
ATOM      6  C   UNL     1       4.791   3.909  17.995  0.00  0.00    +0.000 A 
ATOM      7  C   UNL     1       5.298   4.477  16.808  0.00  0.00    +0.000 A 
ATOM      8  C   UNL     1       6.302   5.459  16.895  0.00  0.00    +0.000 A 
BRANCH   3  10
ATOM      9  C   UNL     1       7.724   7.982  17.558  0.00  0.00    +0.000 C 
ATOM     10  O   UNL     1       7.789   6.791  18.335  0.00  0.00    +0.000 OA
ENDBRANCH   3  10
BRANCH   7  11
ATOM     11  O   UNL     1       4.791   4.012  15.617  0.00  0.00    +0.000 OA
ATOM     12  C   UNL     1       5.556   4.282  14.442  0.00  0.00    +0.000 C 
ENDBRANCH   7  11
ENDBRANCH   1   6
BRANCH   1  13
ATOM     13  S   UNL     1       2.153   3.327  18.064  0.00  0.00    +0.000 S 
ATOM     14  O   UNL     1       1.742   4.012  16.859  0.00  0.00    +0.000 OA
ATOM     15  O   UNL     1       1.403   2.201  18.587  0.00  0.00    +0.000 OA
BRANCH  13  16
ATOM     16  C   UNL     1       1.990   4.519  19.298  0.00  0.00    +0.000 A 
ATOM     17  C   UNL     1       2.162   5.920  19.191  0.00  0.00    +0.000 A 
ATOM     18  C   UNL     1       2.470   6.786  18.033  0.00  0.00    +0.000 C 
ATOM     19  N   UNL     1       1.993   6.512  20.386  0.00  0.00    +0.000 NA
ATOM     20  O   UNL     1       1.685   5.505  21.274  0.00  0.00    +0.000 OA
ATOM     21  C   UNL     1       1.679   4.310  20.625  0.00  0.00    +0.000 A 
ATOM     22  C   UNL     1       1.348   3.140  21.462  0.00  0.00    +0.000 C 
ENDBRANCH  13  16
ENDBRANCH   1  13
TORSDOF 5
ENDMDL
MODEL 9
REMARK VINA RESULT:      -6.6      1.469      2.034
REMARK  Name = 
REMARK  10 active torsions:
REMARK  status: ('A' for Active; 'I' for Inactive)
REMARK    1  A    between atoms: C_1  and  O_2
REMARK    2  A    between atoms: O_2  and  C_3
REMARK    3  A    between atoms: C_6  and  N_7
REMARK    4  A    between atoms: N_7  and  C_8
REMARK    5  A    between atoms: N_7  and  S_9
REMARK    6  A    between atoms: S_9  and  C_12
REMARK    7  A    between atoms: C_13  and  C_14
REMARK    8  A    between atoms: C_17  and  C_18
REMARK    9  A    between atoms: C_19  and  O_20
REMARK   10  A    between atoms: O_20  and  C_21
REMARK                            x       y       z     vdW  Elec       q    Type
REMARK                         _______ _______ _______ _____ _____    ______ ____
ROOT
ATOM      1  N   UNL     1       3.449   4.492  17.887  0.00  0.00    +0.000 N 
ATOM      2  C   UNL     1       2.584   3.775  16.953  0.00  0.00    +0.000 C 
ENDROOT
BRANCH   1   6
ATOM      3  C   UNL     1       1.842   7.676  20.179  0.00  0.00    +0.000 A 
ATOM      4  C   UNL     1       2.312   7.878  18.882  0.00  0.00    +0.000 A 
ATOM      5  C   UNL     1       2.843   6.820  18.144  0.00  0.00    +0.000 A 
ATOM      6  C   UNL     1       2.911   5.541  18.701  0.00  0.00    +0.000 A 
ATOM      7  C   UNL     1       2.415   5.312  20.001  0.00  0.00    +0.000 A 
ATOM      8  C   UNL     1       1.893   6.394  20.733  0.00  0.00    +0.000 A 
BRANCH   3  10
ATOM      9  C   UNL     1       0.078   8.683  21.426  0.00  0.00    +0.000 C 
ATOM     10  O   UNL     1       1.348   8.794  20.793  0.00  0.00    +0.000 OA
ENDBRANCH   3  10
BRANCH   7  11
ATOM     11  O   UNL     1       2.451   4.021  20.474  0.00  0.00    +0.000 OA
ATOM     12  C   UNL     1       1.206   3.324  20.537  0.00  0.00    +0.000 C 
ENDBRANCH   7  11
ENDBRANCH   1   6
BRANCH   1  13
ATOM     13  S   UNL     1       5.073   4.074  18.011  0.00  0.00    +0.000 S 
ATOM     14  O   UNL     1       5.432   3.775  19.379  0.00  0.00    +0.000 OA
ATOM     15  O   UNL     1       5.396   3.164  16.929  0.00  0.00    +0.000 OA
BRANCH  13  16
ATOM     16  C   UNL     1       5.997   5.480  17.635  0.00  0.00    +0.000 A 
ATOM     17  C   UNL     1       7.032   6.077  18.394  0.00  0.00    +0.000 A 
ATOM     18  C   UNL     1       7.667   5.681  19.670  0.00  0.00    +0.000 C 
ATOM     19  N   UNL     1       7.481   7.191  17.792  0.00  0.00    +0.000 NA
ATOM     20  O   UNL     1       6.760   7.314  16.625  0.00  0.00    +0.000 OA
ATOM     21  C   UNL     1       5.873   6.289  16.526  0.00  0.00    +0.000 A 
ATOM     22  C   UNL     1       5.040   6.292  15.307  0.00  0.00    +0.000 C 
ENDBRANCH  13  16
ENDBRANCH   1  13
TORSDOF 5
ENDMDL
