MODEL 1
REMARK VINA RESULT:      -8.2      0.000      0.000
REMARK  Name = 
REMARK  9 active torsions:
REMARK  status: ('A' for Active; 'I' for Inactive)
REMARK    1  A    between atoms: C_1  and  C_2
REMARK    2  A    between atoms: C_2  and  O_3
REMARK    3  A    between atoms: O_3  and  C_4
REMARK    4  A    between atoms: C_4  and  C_6
REMARK    5  A    between atoms: N_8  and  C_9
REMARK    6  A    between atoms: C_9  and  C_10
REMARK    7  A    between atoms: C_10  and  O_11
REMARK    8  A    between atoms: C_10  and  C_12
REMARK    9  A    between atoms: C_12  and  N_13
REMARK                            x       y       z     vdW  Elec       q    Type
REMARK                         _______ _______ _______ _____ _____    ______ ____
ROOT
ATOM      1  C   UNL     1       5.766   5.227  16.225  0.00  0.00    +0.000 A 
ATOM      2  C   UNL     1       5.614   4.403  17.275  0.00  0.00    +0.000 A 
ATOM      3  N   UNL     1       4.738   4.550  18.349  0.00  0.00    +0.000 N 
ATOM      4  C   UNL     1       3.948   5.733  18.398  0.00  0.00    +0.000 A 
ATOM      5  C   UNL     1       3.102   6.061  19.472  0.00  0.00    +0.000 A 
ATOM      6  C   UNL     1       2.401   7.276  19.500  0.00  0.00    +0.000 A 
ATOM      7 CL   UNL     1       1.420   7.648  20.866  0.00  0.00    +0.000 Cl
ATOM      8  C   UNL     1       2.511   8.177  18.448  0.00  0.00    +0.000 A 
ATOM      9  F   UNL     1       1.859   9.348  18.471  0.00  0.00    +0.000 F 
ATOM     10  C   UNL     1       3.306   7.877  17.356  0.00  0.00    +0.000 A 
ATOM     11  C   UNL     1       4.015   6.668  17.334  0.00  0.00    +0.000 A 
ATOM     12  C   UNL     1       4.861   6.389  16.151  0.00  0.00    +0.000 A 
ATOM     13  O   UNL     1       4.781   7.110  15.165  0.00  0.00    +0.000 OA
ENDROOT
BRANCH   1  14
ATOM     14  C   UNL     1       6.901   4.989  15.314  0.00  0.00    +0.000 C 
ATOM     15  O   UNL     1       7.808   5.790  15.122  0.00  0.00    +0.000 OA
BRANCH  14  16
ATOM     16  O   UNL     1       6.677   3.864  14.598  0.00  0.00    +0.000 OA
BRANCH  16  18
ATOM     17  C   UNL     1       6.307   3.364  12.300  0.00  0.00    +0.000 C 
ATOM     18  C   UNL     1       5.694   3.950  13.560  0.00  0.00    +0.000 C 
ENDBRANCH  16  18
ENDBRANCH  14  16
ENDBRANCH   1  14
BRANCH   3  19
ATOM     19  C   UNL     1       4.652   3.604  19.500  0.00  0.00    +0.000 C 
BRANCH  19  20
ATOM     20  C   UNL     1       4.635   2.099  19.135  0.00  0.00    +0.000 C 
BRANCH  20  21
ATOM     21  O   UNL     1       5.135   1.310  20.232  0.00  0.00    +0.000 OA
ATOM     22  H   UNL     1       4.627   1.505  21.038  0.00  0.00    +0.000 HD
ENDBRANCH  20  21
BRANCH  20  23
ATOM     23  C   UNL     1       3.218   1.615  18.814  0.00  0.00    +0.000 C 
BRANCH  23  24
ATOM     24  N   UNL     1       2.240   2.317  19.624  0.00  0.00    +0.000 N 
ATOM     25  C   UNL     1       1.189   3.063  19.189  0.00  0.00    +0.000 A 
ATOM     26  N   UNL     1       0.585   3.607  20.223  0.00  0.00    +0.000 NA
ATOM     27  C   UNL     1       1.328   3.163  21.279  0.00  0.00    +0.000 A 
ATOM     28  N   UNL     1       2.340   2.345  20.964  0.00  0.00    +0.000 NA
ENDBRANCH  23  24
ENDBRANCH  20  23
ENDBRANCH  19  20
ENDBRANCH   3  19
TORSDOF 8
ENDMDL
MODEL 2
REMARK VINA RESULT:      -7.7      3.968      6.578
REMARK  Name = 
REMARK  9 active torsions:
REMARK  status: ('A' for Active; 'I' for Inactive)
REMARK    1  A    between atoms: C_1  and  C_2
REMARK    2  A    between atoms: C_2  and  O_3
REMARK    3  A    between atoms: O_3  and  C_4
REMARK    4  A    between atoms: C_4  and  C_6
REMARK    5  A    between atoms: N_8  and  C_9
REMARK    6  A    between atoms: C_9  and  C_10
REMARK    7  A    between atoms: C_10  and  O_11
REMARK    8  A    between atoms: C_10  and  C_12
REMARK    9  A    between atoms: C_12  and  N_13
REMARK                            x       y       z     vdW  Elec       q    Type
REMARK                         _______ _______ _______ _____ _____    ______ ____
ROOT
ATOM      1  C   UNL     1       2.013   3.807  18.356  0.00  0.00    +0.000 A 
ATOM      2  C   UNL     1       1.802   5.134  18.343  0.00  0.00    +0.000 A 
ATOM      3  N   UNL     1       2.727   6.137  18.057  0.00  0.00    +0.000 N 
ATOM      4  C   UNL     1       4.072   5.743  17.812  0.00  0.00    +0.000 A 
ATOM      5  C   UNL     1       5.127   6.652  17.615  0.00  0.00    +0.000 A 
ATOM      6  C   UNL     1       6.447   6.209  17.449  0.00  0.00    +0.000 A 
ATOM      7 CL   UNL     1       7.706   7.370  17.265  0.00  0.00    +0.000 Cl
ATOM      8  C   UNL     1       6.739   4.851  17.452  0.00  0.00    +0.000 A 
ATOM      9  F   UNL     1       7.999   4.415  17.311  0.00  0.00    +0.000 F 
ATOM     10  C   UNL     1       5.726   3.921  17.608  0.00  0.00    +0.000 A 
ATOM     11  C   UNL     1       4.407   4.366  17.786  0.00  0.00    +0.000 A 
ATOM     12  C   UNL     1       3.354   3.340  17.958  0.00  0.00    +0.000 A 
ATOM     13  O   UNL     1       3.618   2.161  17.760  0.00  0.00    +0.000 OA
ENDROOT
BRANCH   1  14
ATOM     14  C   UNL     1       0.948   2.940  18.893  0.00  0.00    +0.000 C 
ATOM     15  O   UNL     1       0.325   2.123  18.226  0.00  0.00    +0.000 OA
BRANCH  14  16
ATOM     16  O   UNL     1       0.644   3.325  20.153  0.00  0.00    +0.000 OA
BRANCH  16  18
ATOM     17  C   UNL     1       2.322   3.667  21.806  0.00  0.00    +0.000 C 
ATOM     18  C   UNL     1       1.348   2.666  21.212  0.00  0.00    +0.000 C 
ENDBRANCH  16  18
ENDBRANCH  14  16
ENDBRANCH   1  14
BRANCH   3  19
ATOM     19  C   UNL     1       2.422   7.597  18.098  0.00  0.00    +0.000 C 
BRANCH  19  20
ATOM     20  C   UNL     1       1.522   8.065  19.268  0.00  0.00    +0.000 C 
BRANCH  20  21
ATOM     21  O   UNL     1       2.198   7.881  20.527  0.00  0.00    +0.000 OA
ATOM     22  H   UNL     1       1.788   7.150  21.019  0.00  0.00    +0.000 HD
ENDBRANCH  20  21
BRANCH  20  23
ATOM     23  C   UNL     1       1.161   9.548  19.141  0.00  0.00    +0.000 C 
BRANCH  23  24
ATOM     24  N   UNL     1       0.593  10.047  20.379  0.00  0.00    +0.000 N 
ATOM     25  C   UNL     1       0.836  11.244  20.976  0.00  0.00    +0.000 A 
ATOM     26  N   UNL     1       0.200  11.294  22.127  0.00  0.00    +0.000 NA
ATOM     27  C   UNL     1      -0.415  10.076  22.187  0.00  0.00    +0.000 A 
ATOM     28  N   UNL     1      -0.226   9.285  21.124  0.00  0.00    +0.000 NA
ENDBRANCH  23  24
ENDBRANCH  20  23
ENDBRANCH  19  20
ENDBRANCH   3  19
TORSDOF 8
ENDMDL
MODEL 3
REMARK VINA RESULT:      -7.6      2.460      5.820
REMARK  Name = 
REMARK  9 active torsions:
REMARK  status: ('A' for Active; 'I' for Inactive)
REMARK    1  A    between atoms: C_1  and  C_2
REMARK    2  A    between atoms: C_2  and  O_3
REMARK    3  A    between atoms: O_3  and  C_4
REMARK    4  A    between atoms: C_4  and  C_6
REMARK    5  A    between atoms: N_8  and  C_9
REMARK    6  A    between atoms: C_9  and  C_10
REMARK    7  A    between atoms: C_10  and  O_11
REMARK    8  A    between atoms: C_10  and  C_12
REMARK    9  A    between atoms: C_12  and  N_13
REMARK                            x       y       z     vdW  Elec       q    Type
REMARK                         _______ _______ _______ _____ _____    ______ ____
ROOT
ATOM      1  C   UNL     1       3.791   3.957  19.421  0.00  0.00    +0.000 A 
ATOM      2  C   UNL     1       4.358   4.429  18.298  0.00  0.00    +0.000 A 
ATOM      3  N   UNL     1       4.228   5.706  17.755  0.00  0.00    +0.000 N 
ATOM      4  C   UNL     1       3.347   6.614  18.408  0.00  0.00    +0.000 A 
ATOM      5  C   UNL     1       3.040   7.893  17.913  0.00  0.00    +0.000 A 
ATOM      6  C   UNL     1       2.108   8.718  18.561  0.00  0.00    +0.000 A 
ATOM      7 CL   UNL     1       1.731  10.255  17.880  0.00  0.00    +0.000 Cl
ATOM      8  C   UNL     1       1.483   8.294  19.727  0.00  0.00    +0.000 A 
ATOM      9  F   UNL     1       0.579   9.067  20.346  0.00  0.00    +0.000 F 
ATOM     10  C   UNL     1       1.782   7.056  20.266  0.00  0.00    +0.000 A 
ATOM     11  C   UNL     1       2.705   6.227  19.611  0.00  0.00    +0.000 A 
ATOM     12  C   UNL     1       2.992   4.906  20.217  0.00  0.00    +0.000 A 
ATOM     13  O   UNL     1       2.574   4.650  21.339  0.00  0.00    +0.000 OA
ENDROOT
BRANCH   1  14
ATOM     14  C   UNL     1       3.894   2.511  19.695  0.00  0.00    +0.000 C 
ATOM     15  O   UNL     1       4.809   1.995  20.326  0.00  0.00    +0.000 OA
BRANCH  14  16
ATOM     16  O   UNL     1       2.952   1.848  18.987  0.00  0.00    +0.000 OA
BRANCH  16  18
ATOM     17  C   UNL     1       0.685   2.501  18.676  0.00  0.00    +0.000 C 
ATOM     18  C   UNL     1       1.651   1.756  19.579  0.00  0.00    +0.000 C 
ENDBRANCH  16  18
ENDBRANCH  14  16
ENDBRANCH   1  14
BRANCH   3  19
ATOM     19  C   UNL     1       4.865   6.146  16.479  0.00  0.00    +0.000 C 
BRANCH  19  20
ATOM     20  C   UNL     1       6.408   6.269  16.505  0.00  0.00    +0.000 C 
BRANCH  20  21
ATOM     21  O   UNL     1       6.862   6.624  17.827  0.00  0.00    +0.000 OA
ATOM     22  H   UNL     1       7.724   6.211  18.002  0.00  0.00    +0.000 HD
ENDBRANCH  20  21
BRANCH  20  23
ATOM     23  C   UNL     1       7.084   4.951  16.115  0.00  0.00    +0.000 C 
BRANCH  23  24
ATOM     24  N   UNL     1       7.028   4.751  14.679  0.00  0.00    +0.000 N 
ATOM     25  C   UNL     1       6.284   3.837  14.000  0.00  0.00    +0.000 A 
ATOM     26  N   UNL     1       6.570   3.910  12.718  0.00  0.00    +0.000 NA
ATOM     27  C   UNL     1       7.519   4.891  12.673  0.00  0.00    +0.000 A 
ATOM     28  N   UNL     1       7.814   5.458  13.849  0.00  0.00    +0.000 NA
ENDBRANCH  23  24
ENDBRANCH  20  23
ENDBRANCH  19  20
ENDBRANCH   3  19
TORSDOF 8
ENDMDL
MODEL 4
REMARK VINA RESULT:      -7.5      4.027      6.037
REMARK  Name = 
REMARK  9 active torsions:
REMARK  status: ('A' for Active; 'I' for Inactive)
REMARK    1  A    between atoms: C_1  and  C_2
REMARK    2  A    between atoms: C_2  and  O_3
REMARK    3  A    between atoms: O_3  and  C_4
REMARK    4  A    between atoms: C_4  and  C_6
REMARK    5  A    between atoms: N_8  and  C_9
REMARK    6  A    between atoms: C_9  and  C_10
REMARK    7  A    between atoms: C_10  and  O_11
REMARK    8  A    between atoms: C_10  and  C_12
REMARK    9  A    between atoms: C_12  and  N_13
REMARK                            x       y       z     vdW  Elec       q    Type
REMARK                         _______ _______ _______ _____ _____    ______ ____
ROOT
ATOM      1  C   UNL     1       5.952   6.288  17.703  0.00  0.00    +0.000 A 
ATOM      2  C   UNL     1       4.826   7.007  17.563  0.00  0.00    +0.000 A 
ATOM      3  N   UNL     1       3.518   6.588  17.800  0.00  0.00    +0.000 N 
ATOM      4  C   UNL     1       3.318   5.228  18.171  0.00  0.00    +0.000 A 
ATOM      5  C   UNL     1       2.050   4.644  18.337  0.00  0.00    +0.000 A 
ATOM      6  C   UNL     1       1.911   3.280  18.633  0.00  0.00    +0.000 A 
ATOM      7 CL   UNL     1       0.331   2.608  18.774  0.00  0.00    +0.000 Cl
ATOM      8  C   UNL     1       3.033   2.476  18.792  0.00  0.00    +0.000 A 
ATOM      9  F   UNL     1       2.913   1.168  19.058  0.00  0.00    +0.000 F 
ATOM     10  C   UNL     1       4.300   3.019  18.670  0.00  0.00    +0.000 A 
ATOM     11  C   UNL     1       4.438   4.380  18.363  0.00  0.00    +0.000 A 
ATOM     12  C   UNL     1       5.811   4.919  18.233  0.00  0.00    +0.000 A 
ATOM     13  O   UNL     1       6.767   4.232  18.570  0.00  0.00    +0.000 OA
ENDROOT
BRANCH   1  14
ATOM     14  C   UNL     1       7.211   6.864  17.193  0.00  0.00    +0.000 C 
ATOM     15  O   UNL     1       7.756   6.511  16.154  0.00  0.00    +0.000 OA
BRANCH  14  16
ATOM     16  O   UNL     1       7.750   7.674  18.131  0.00  0.00    +0.000 OA
BRANCH  16  18
ATOM     17  C   UNL     1       8.899   9.650  18.795  0.00  0.00    +0.000 C 
ATOM     18  C   UNL     1       8.005   9.028  17.739  0.00  0.00    +0.000 C 
ENDBRANCH  16  18
ENDBRANCH  14  16
ENDBRANCH   1  14
BRANCH   3  19
ATOM     19  C   UNL     1       2.311   7.439  17.587  0.00  0.00    +0.000 C 
BRANCH  19  20
ATOM     20  C   UNL     1       2.335   8.826  18.276  0.00  0.00    +0.000 C 
BRANCH  20  21
ATOM     21  O   UNL     1       1.915   9.852  17.356  0.00  0.00    +0.000 OA
ATOM     22  H   UNL     1       2.398   9.762  16.518  0.00  0.00    +0.000 HD
ENDBRANCH  20  21
BRANCH  20  23
ATOM     23  C   UNL     1       1.397   8.867  19.487  0.00  0.00    +0.000 C 
BRANCH  23  24
ATOM     24  N   UNL     1       0.630  10.098  19.501  0.00  0.00    +0.000 N 
ATOM     25  C   UNL     1      -0.706  10.242  19.294  0.00  0.00    +0.000 A 
ATOM     26  N   UNL     1      -1.013  11.521  19.302  0.00  0.00    +0.000 NA
ATOM     27  C   UNL     1       0.196  12.122  19.508  0.00  0.00    +0.000 A 
ATOM     28  N   UNL     1       1.232  11.289  19.665  0.00  0.00    +0.000 NA
ENDBRANCH  23  24
ENDBRANCH  20  23
ENDBRANCH  19  20
ENDBRANCH   3  19
TORSDOF 8
ENDMDL
MODEL 5
REMARK VINA RESULT:      -7.5      3.938      6.001
REMARK  Name = 
REMARK  9 active torsions:
REMARK  status: ('A' for Active; 'I' for Inactive)
REMARK    1  A    between atoms: C_1  and  C_2
REMARK    2  A    between atoms: C_2  and  O_3
REMARK    3  A    between atoms: O_3  and  C_4
REMARK    4  A    between atoms: C_4  and  C_6
REMARK    5  A    between atoms: N_8  and  C_9
REMARK    6  A    between atoms: C_9  and  C_10
REMARK    7  A    between atoms: C_10  and  O_11
REMARK    8  A    between atoms: C_10  and  C_12
REMARK    9  A    between atoms: C_12  and  N_13
REMARK                            x       y       z     vdW  Elec       q    Type
REMARK                         _______ _______ _______ _____ _____    ______ ____
ROOT
ATOM      1  C   UNL     1       5.863   6.366  17.535  0.00  0.00    +0.000 A 
ATOM      2  C   UNL     1       4.713   7.050  17.419  0.00  0.00    +0.000 A 
ATOM      3  N   UNL     1       3.481   6.741  17.994  0.00  0.00    +0.000 N 
ATOM      4  C   UNL     1       3.386   5.533  18.741  0.00  0.00    +0.000 A 
ATOM      5  C   UNL     1       2.185   5.047  19.286  0.00  0.00    +0.000 A 
ATOM      6  C   UNL     1       2.137   3.813  19.952  0.00  0.00    +0.000 A 
ATOM      7 CL   UNL     1       0.627   3.242  20.554  0.00  0.00    +0.000 Cl
ATOM      8  C   UNL     1       3.289   3.052  20.109  0.00  0.00    +0.000 A 
ATOM      9  F   UNL     1       3.253   1.864  20.730  0.00  0.00    +0.000 F 
ATOM     10  C   UNL     1       4.498   3.511  19.618  0.00  0.00    +0.000 A 
ATOM     11  C   UNL     1       4.543   4.739  18.942  0.00  0.00    +0.000 A 
ATOM     12  C   UNL     1       5.856   5.190  18.424  0.00  0.00    +0.000 A 
ATOM     13  O   UNL     1       6.874   4.592  18.749  0.00  0.00    +0.000 OA
ENDROOT
BRANCH   1  14
ATOM     14  C   UNL     1       6.992   6.754  16.668  0.00  0.00    +0.000 C 
ATOM     15  O   UNL     1       7.572   5.986  15.910  0.00  0.00    +0.000 OA
BRANCH  14  16
ATOM     16  O   UNL     1       7.398   8.003  16.987  0.00  0.00    +0.000 OA
BRANCH  16  18
ATOM     17  C   UNL     1       8.580   9.600  18.299  0.00  0.00    +0.000 C 
ATOM     18  C   UNL     1       8.214   8.133  18.157  0.00  0.00    +0.000 C 
ENDBRANCH  16  18
ENDBRANCH  14  16
ENDBRANCH   1  14
BRANCH   3  19
ATOM     19  C   UNL     1       2.235   7.536  17.788  0.00  0.00    +0.000 C 
BRANCH  19  20
ATOM     20  C   UNL     1       2.258   8.980  18.348  0.00  0.00    +0.000 C 
BRANCH  20  21
ATOM     21  O   UNL     1       1.991   9.930  17.297  0.00  0.00    +0.000 OA
ATOM     22  H   UNL     1       1.791   9.460  16.470  0.00  0.00    +0.000 HD
ENDBRANCH  20  21
BRANCH  20  23
ATOM     23  C   UNL     1       1.200   9.175  19.438  0.00  0.00    +0.000 C 
BRANCH  23  24
ATOM     24  N   UNL     1       0.332  10.293  19.118  0.00  0.00    +0.000 N 
ATOM     25  C   UNL     1       0.326  11.526  19.691  0.00  0.00    +0.000 A 
ATOM     26  N   UNL     1      -0.662  12.234  19.189  0.00  0.00    +0.000 NA
ATOM     27  C   UNL     1      -1.243  11.366  18.310  0.00  0.00    +0.000 A 
ATOM     28  N   UNL     1      -0.651  10.170  18.209  0.00  0.00    +0.000 NA
ENDBRANCH  23  24
ENDBRANCH  20  23
ENDBRANCH  19  20
ENDBRANCH   3  19
TORSDOF 8
ENDMDL
MODEL 6
REMARK VINA RESULT:      -7.5      3.658      5.524
REMARK  Name = 
REMARK  9 active torsions:
REMARK  status: ('A' for Active; 'I' for Inactive)
REMARK    1  A    between atoms: C_1  and  C_2
REMARK    2  A    between atoms: C_2  and  O_3
REMARK    3  A    between atoms: O_3  and  C_4
REMARK    4  A    between atoms: C_4  and  C_6
REMARK    5  A    between atoms: N_8  and  C_9
REMARK    6  A    between atoms: C_9  and  C_10
REMARK    7  A    between atoms: C_10  and  O_11
REMARK    8  A    between atoms: C_10  and  C_12
REMARK    9  A    between atoms: C_12  and  N_13
REMARK                            x       y       z     vdW  Elec       q    Type
REMARK                         _______ _______ _______ _____ _____    ______ ____
ROOT
ATOM      1  C   UNL     1       5.836   6.119  17.397  0.00  0.00    +0.000 A 
ATOM      2  C   UNL     1       4.686   6.808  17.314  0.00  0.00    +0.000 A 
ATOM      3  N   UNL     1       3.487   6.539  17.973  0.00  0.00    +0.000 N 
ATOM      4  C   UNL     1       3.427   5.370  18.782  0.00  0.00    +0.000 A 
ATOM      5  C   UNL     1       2.256   4.922  19.419  0.00  0.00    +0.000 A 
ATOM      6  C   UNL     1       2.238   3.722  20.146  0.00  0.00    +0.000 A 
ATOM      7 CL   UNL     1       0.762   3.196  20.860  0.00  0.00    +0.000 Cl
ATOM      8  C   UNL     1       3.391   2.958  20.273  0.00  0.00    +0.000 A 
ATOM      9  F   UNL     1       3.383   1.802  20.952  0.00  0.00    +0.000 F 
ATOM     10  C   UNL     1       4.574   3.381  19.692  0.00  0.00    +0.000 A 
ATOM     11  C   UNL     1       4.588   4.575  18.955  0.00  0.00    +0.000 A 
ATOM     12  C   UNL     1       5.872   4.987  18.342  0.00  0.00    +0.000 A 
ATOM     13  O   UNL     1       6.903   4.396  18.637  0.00  0.00    +0.000 OA
ENDROOT
BRANCH   1  14
ATOM     14  C   UNL     1       6.916   6.454  16.449  0.00  0.00    +0.000 C 
ATOM     15  O   UNL     1       7.848   7.206  16.708  0.00  0.00    +0.000 OA
BRANCH  14  16
ATOM     16  O   UNL     1       6.609   5.971  15.225  0.00  0.00    +0.000 OA
BRANCH  16  18
ATOM     17  C   UNL     1       5.886   3.952  14.191  0.00  0.00    +0.000 C 
ATOM     18  C   UNL     1       7.018   4.627  14.944  0.00  0.00    +0.000 C 
ENDBRANCH  16  18
ENDBRANCH  14  16
ENDBRANCH   1  14
BRANCH   3  19
ATOM     19  C   UNL     1       2.237   7.335  17.801  0.00  0.00    +0.000 C 
BRANCH  19  20
ATOM     20  C   UNL     1       2.278   8.781  18.355  0.00  0.00    +0.000 C 
BRANCH  20  21
ATOM     21  O   UNL     1       1.889   9.721  17.334  0.00  0.00    +0.000 OA
ATOM     22  H   UNL     1       2.634   9.882  16.732  0.00  0.00    +0.000 HD
ENDBRANCH  20  21
BRANCH  20  23
ATOM     23  C   UNL     1       1.325   8.954  19.541  0.00  0.00    +0.000 C 
BRANCH  23  24
ATOM     24  N   UNL     1       0.611  10.214  19.448  0.00  0.00    +0.000 N 
ATOM     25  C   UNL     1       0.880  11.367  20.117  0.00  0.00    +0.000 A 
ATOM     26  N   UNL     1      -0.041  12.261  19.828  0.00  0.00    +0.000 NA
ATOM     27  C   UNL     1      -0.866  11.585  18.975  0.00  0.00    +0.000 A 
ATOM     28  N   UNL     1      -0.491  10.332  18.689  0.00  0.00    +0.000 NA
ENDBRANCH  23  24
ENDBRANCH  20  23
ENDBRANCH  19  20
ENDBRANCH   3  19
TORSDOF 8
ENDMDL
MODEL 7
REMARK VINA RESULT:      -7.4      2.291      5.412
REMARK  Name = 
REMARK  9 active torsions:
REMARK  status: ('A' for Active; 'I' for Inactive)
REMARK    1  A    between atoms: C_1  and  C_2
REMARK    2  A    between atoms: C_2  and  O_3
REMARK    3  A    between atoms: O_3  and  C_4
REMARK    4  A    between atoms: C_4  and  C_6
REMARK    5  A    between atoms: N_8  and  C_9
REMARK    6  A    between atoms: C_9  and  C_10
REMARK    7  A    between atoms: C_10  and  O_11
REMARK    8  A    between atoms: C_10  and  C_12
REMARK    9  A    between atoms: C_12  and  N_13
REMARK                            x       y       z     vdW  Elec       q    Type
REMARK                         _______ _______ _______ _____ _____    ______ ____
ROOT
ATOM      1  C   UNL     1       3.759   3.843  19.448  0.00  0.00    +0.000 A 
ATOM      2  C   UNL     1       4.268   4.242  18.271  0.00  0.00    +0.000 A 
ATOM      3  N   UNL     1       4.140   5.494  17.672  0.00  0.00    +0.000 N 
ATOM      4  C   UNL     1       3.327   6.460  18.330  0.00  0.00    +0.000 A 
ATOM      5  C   UNL     1       3.026   7.723  17.791  0.00  0.00    +0.000 A 
ATOM      6  C   UNL     1       2.160   8.607  18.451  0.00  0.00    +0.000 A 
ATOM      7 CL   UNL     1       1.785  10.120  17.717  0.00  0.00    +0.000 Cl
ATOM      8  C   UNL     1       1.596   8.261  19.672  0.00  0.00    +0.000 A 
ATOM      9  F   UNL     1       0.755   9.090  20.305  0.00  0.00    +0.000 F 
ATOM     10  C   UNL     1       1.894   7.041  20.255  0.00  0.00    +0.000 A 
ATOM     11  C   UNL     1       2.751   6.153  19.589  0.00  0.00    +0.000 A 
ATOM     12  C   UNL     1       3.037   4.855  20.242  0.00  0.00    +0.000 A 
ATOM     13  O   UNL     1       2.682   4.667  21.399  0.00  0.00    +0.000 OA
ENDROOT
BRANCH   1  14
ATOM     14  C   UNL     1       3.838   2.410  19.789  0.00  0.00    +0.000 C 
ATOM     15  O   UNL     1       4.760   1.903  20.416  0.00  0.00    +0.000 OA
BRANCH  14  16
ATOM     16  O   UNL     1       2.859   1.737  19.143  0.00  0.00    +0.000 OA
BRANCH  16  18
ATOM     17  C   UNL     1       0.655   2.481  18.638  0.00  0.00    +0.000 C 
ATOM     18  C   UNL     1       1.540   1.840  19.692  0.00  0.00    +0.000 C 
ENDBRANCH  16  18
ENDBRANCH  14  16
ENDBRANCH   1  14
BRANCH   3  19
ATOM     19  C   UNL     1       4.709   5.851  16.340  0.00  0.00    +0.000 C 
BRANCH  19  20
ATOM     20  C   UNL     1       5.641   4.792  15.700  0.00  0.00    +0.000 C 
BRANCH  20  21
ATOM     21  O   UNL     1       5.312   4.608  14.309  0.00  0.00    +0.000 OA
ATOM     22  H   UNL     1       4.815   5.376  13.983  0.00  0.00    +0.000 HD
ENDBRANCH  20  21
BRANCH  20  23
ATOM     23  C   UNL     1       7.111   5.214  15.785  0.00  0.00    +0.000 C 
BRANCH  23  24
ATOM     24  N   UNL     1       7.450   5.629  17.133  0.00  0.00    +0.000 N 
ATOM     25  C   UNL     1       7.658   6.896  17.581  0.00  0.00    +0.000 A 
ATOM     26  N   UNL     1       8.028   6.857  18.842  0.00  0.00    +0.000 NA
ATOM     27  C   UNL     1       8.042   5.518  19.114  0.00  0.00    +0.000 A 
ATOM     28  N   UNL     1       7.667   4.724  18.103  0.00  0.00    +0.000 NA
ENDBRANCH  23  24
ENDBRANCH  20  23
ENDBRANCH  19  20
ENDBRANCH   3  19
TORSDOF 8
ENDMDL
MODEL 8
REMARK VINA RESULT:      -7.4      3.985      6.011
REMARK  Name = 
REMARK  9 active torsions:
REMARK  status: ('A' for Active; 'I' for Inactive)
REMARK    1  A    between atoms: C_1  and  C_2
REMARK    2  A    between atoms: C_2  and  O_3
REMARK    3  A    between atoms: O_3  and  C_4
REMARK    4  A    between atoms: C_4  and  C_6
REMARK    5  A    between atoms: N_8  and  C_9
REMARK    6  A    between atoms: C_9  and  C_10
REMARK    7  A    between atoms: C_10  and  O_11
REMARK    8  A    between atoms: C_10  and  C_12
REMARK    9  A    between atoms: C_12  and  N_13
REMARK                            x       y       z     vdW  Elec       q    Type
REMARK                         _______ _______ _______ _____ _____    ______ ____
ROOT
ATOM      1  C   UNL     1       5.868   6.500  17.573  0.00  0.00    +0.000 A 
ATOM      2  C   UNL     1       4.705   7.151  17.405  0.00  0.00    +0.000 A 
ATOM      3  N   UNL     1       3.463   6.823  17.947  0.00  0.00    +0.000 N 
ATOM      4  C   UNL     1       3.375   5.630  18.719  0.00  0.00    +0.000 A 
ATOM      5  C   UNL     1       2.170   5.125  19.237  0.00  0.00    +0.000 A 
ATOM      6  C   UNL     1       2.132   3.906  19.929  0.00  0.00    +0.000 A 
ATOM      7 CL   UNL     1       0.618   3.309  20.496  0.00  0.00    +0.000 Cl
ATOM      8  C   UNL     1       3.297   3.179  20.141  0.00  0.00    +0.000 A 
ATOM      9  F   UNL     1       3.271   2.004  20.787  0.00  0.00    +0.000 F 
ATOM     10  C   UNL     1       4.509   3.658  19.677  0.00  0.00    +0.000 A 
ATOM     11  C   UNL     1       4.545   4.871  18.975  0.00  0.00    +0.000 A 
ATOM     12  C   UNL     1       5.861   5.345  18.489  0.00  0.00    +0.000 A 
ATOM     13  O   UNL     1       6.883   4.782  18.860  0.00  0.00    +0.000 OA
ENDROOT
BRANCH   1  14
ATOM     14  C   UNL     1       7.014   6.899  16.734  0.00  0.00    +0.000 C 
ATOM     15  O   UNL     1       7.590   6.148  15.955  0.00  0.00    +0.000 OA
BRANCH  14  16
ATOM     16  O   UNL     1       7.439   8.128  17.103  0.00  0.00    +0.000 OA
BRANCH  16  18
ATOM     17  C   UNL     1       8.667   9.650  18.459  0.00  0.00    +0.000 C 
ATOM     18  C   UNL     1       8.276   8.196  18.262  0.00  0.00    +0.000 C 
ENDBRANCH  16  18
ENDBRANCH  14  16
ENDBRANCH   1  14
BRANCH   3  19
ATOM     19  C   UNL     1       2.205   7.580  17.684  0.00  0.00    +0.000 C 
BRANCH  19  20
ATOM     20  C   UNL     1       2.139   9.007  18.283  0.00  0.00    +0.000 C 
BRANCH  20  21
ATOM     21  O   UNL     1       2.376   9.993  17.260  0.00  0.00    +0.000 OA
ATOM     22  H   UNL     1       1.568  10.126  16.736  0.00  0.00    +0.000 HD
ENDBRANCH  20  21
BRANCH  20  23
ATOM     23  C   UNL     1       0.768   9.292  18.904  0.00  0.00    +0.000 C 
BRANCH  23  24
ATOM     24  N   UNL     1       0.829  10.451  19.775  0.00  0.00    +0.000 N 
ATOM     25  C   UNL     1       0.831  10.463  21.135  0.00  0.00    +0.000 A 
ATOM     26  N   UNL     1       0.809  11.708  21.558  0.00  0.00    +0.000 NA
ATOM     27  C   UNL     1       0.782  12.425  20.396  0.00  0.00    +0.000 A 
ATOM     28  N   UNL     1       0.821  11.697  19.273  0.00  0.00    +0.000 NA
ENDBRANCH  23  24
ENDBRANCH  20  23
ENDBRANCH  19  20
ENDBRANCH   3  19
TORSDOF 8
ENDMDL
MODEL 9
REMARK VINA RESULT:      -7.3      3.667      6.323
REMARK  Name = 
REMARK  9 active torsions:
REMARK  status: ('A' for Active; 'I' for Inactive)
REMARK    1  A    between atoms: C_1  and  C_2
REMARK    2  A    between atoms: C_2  and  O_3
REMARK    3  A    between atoms: O_3  and  C_4
REMARK    4  A    between atoms: C_4  and  C_6
REMARK    5  A    between atoms: N_8  and  C_9
REMARK    6  A    between atoms: C_9  and  C_10
REMARK    7  A    between atoms: C_10  and  O_11
REMARK    8  A    between atoms: C_10  and  C_12
REMARK    9  A    between atoms: C_12  and  N_13
REMARK                            x       y       z     vdW  Elec       q    Type
REMARK                         _______ _______ _______ _____ _____    ______ ____
ROOT
ATOM      1  C   UNL     1       2.137   4.039  18.500  0.00  0.00    +0.000 A 
ATOM      2  C   UNL     1       1.824   5.329  18.295  0.00  0.00    +0.000 A 
ATOM      3  N   UNL     1       2.688   6.367  17.949  0.00  0.00    +0.000 N 
ATOM      4  C   UNL     1       4.077   6.067  17.859  0.00  0.00    +0.000 A 
ATOM      5  C   UNL     1       5.069   7.035  17.623  0.00  0.00    +0.000 A 
ATOM      6  C   UNL     1       6.430   6.693  17.617  0.00  0.00    +0.000 A 
ATOM      7 CL   UNL     1       7.604   7.929  17.374  0.00  0.00    +0.000 Cl
ATOM      8  C   UNL     1       6.826   5.378  17.822  0.00  0.00    +0.000 A 
ATOM      9  F   UNL     1       8.124   5.041  17.834  0.00  0.00    +0.000 F 
ATOM     10  C   UNL     1       5.880   4.389  18.024  0.00  0.00    +0.000 A 
ATOM     11  C   UNL     1       4.520   4.733  18.042  0.00  0.00    +0.000 A 
ATOM     12  C   UNL     1       3.540   3.647  18.269  0.00  0.00    +0.000 A 
ATOM     13  O   UNL     1       3.912   2.480  18.251  0.00  0.00    +0.000 OA
ENDROOT
BRANCH   1  14
ATOM     14  C   UNL     1       1.102   3.155  19.067  0.00  0.00    +0.000 C 
ATOM     15  O   UNL     1       0.499   2.303  18.425  0.00  0.00    +0.000 OA
BRANCH  14  16
ATOM     16  O   UNL     1       0.795   3.563  20.319  0.00  0.00    +0.000 OA
BRANCH  16  18
ATOM     17  C   UNL     1       2.618   2.786  21.636  0.00  0.00    +0.000 C 
ATOM     18  C   UNL     1       1.126   2.666  21.385  0.00  0.00    +0.000 C 
ENDBRANCH  16  18
ENDBRANCH  14  16
ENDBRANCH   1  14
BRANCH   3  19
ATOM     19  C   UNL     1       2.267   7.788  17.772  0.00  0.00    +0.000 C 
BRANCH  19  20
ATOM     20  C   UNL     1       2.078   8.601  19.076  0.00  0.00    +0.000 C 
BRANCH  20  21
ATOM     21  O   UNL     1       1.024   9.570  18.916  0.00  0.00    +0.000 OA
ATOM     22  H   UNL     1       0.345   9.223  18.313  0.00  0.00    +0.000 HD
ENDBRANCH  20  21
BRANCH  20  23
ATOM     23  C   UNL     1       1.708   7.695  20.254  0.00  0.00    +0.000 C 
BRANCH  23  24
ATOM     24  N   UNL     1       1.057   8.456  21.304  0.00  0.00    +0.000 N 
ATOM     25  C   UNL     1       1.651   9.158  22.306  0.00  0.00    +0.000 A 
ATOM     26  N   UNL     1       0.726   9.641  23.106  0.00  0.00    +0.000 NA
ATOM     27  C   UNL     1      -0.432   9.185  22.544  0.00  0.00    +0.000 A 
ATOM     28  N   UNL     1      -0.282   8.475  21.418  0.00  0.00    +0.000 NA
ENDBRANCH  23  24
ENDBRANCH  20  23
ENDBRANCH  19  20
ENDBRANCH   3  19
TORSDOF 8
ENDMDL
