MODEL 1
REMARK VINA RESULT:      -9.2      0.000      0.000
REMARK  Name = 
REMARK  5 active torsions:
REMARK  status: ('A' for Active; 'I' for Inactive)
REMARK    1  A    between atoms: C_1  and  C_2
REMARK    2  A    between atoms: C_9  and  C_10
REMARK    3  A    between atoms: N_18  and  C_19
REMARK    4  A    between atoms: C_22  and  O_23
REMARK    5  A    between atoms: O_23  and  C_24
REMARK                            x       y       z     vdW  Elec       q    Type
REMARK                         _______ _______ _______ _____ _____    ______ ____
ROOT
ATOM      1  C   UNL     1       2.146   6.488  20.237  0.00  0.00    +0.000 A 
ATOM      2  C   UNL     1       3.183   6.109  19.376  0.00  0.00    +0.000 A 
ATOM      3  C   UNL     1       3.339   4.734  19.173  0.00  0.00    +0.000 A 
ATOM      4  C   UNL     1       2.577   3.802  19.864  0.00  0.00    +0.000 A 
ATOM      5  C   UNL     1       1.703   4.253  20.851  0.00  0.00    +0.000 A 
ATOM      6  N   UNL     1       1.473   5.587  20.996  0.00  0.00    +0.000 NA
ATOM      7  N   UNL     1       2.809   2.535  19.392  0.00  0.00    +0.000 NA
ATOM      8  C   UNL     1       3.647   2.695  18.393  0.00  0.00    +0.000 A 
ATOM      9  N   UNL     1       4.077   3.998  18.269  0.00  0.00    +0.000 N 
ENDROOT
BRANCH   1  18
ATOM     10  C   UNL     1       2.109   8.290  17.746  0.00  0.00    +0.000 C 
ATOM     11  C   UNL     1       1.606   8.731  19.098  0.00  0.00    +0.000 A 
ATOM     12  C   UNL     1       1.141  10.059  19.217  0.00  0.00    +0.000 A 
ATOM     13  C   UNL     1       0.686  10.548  20.436  0.00  0.00    +0.000 A 
ATOM     14  F   UNL     1       0.246  11.810  20.521  0.00  0.00    +0.000 F 
ATOM     15  C   UNL     1       0.698   9.737  21.552  0.00  0.00    +0.000 A 
ATOM     16  F   UNL     1       0.268  10.195  22.736  0.00  0.00    +0.000 F 
ATOM     17  C   UNL     1       1.167   8.432  21.461  0.00  0.00    +0.000 A 
ATOM     18  C   UNL     1       1.623   7.882  20.236  0.00  0.00    +0.000 A 
ENDBRANCH   1  18
BRANCH   9  19
ATOM     19  C   UNL     1       5.069   4.450  17.368  0.00  0.00    +0.000 A 
ATOM     20  C   UNL     1       4.696   4.802  16.070  0.00  0.00    +0.000 A 
ATOM     21  C   UNL     1       5.681   5.082  15.128  0.00  0.00    +0.000 A 
ATOM     22  C   UNL     1       7.037   4.989  15.461  0.00  0.00    +0.000 A 
ATOM     23  C   UNL     1       7.407   4.685  16.770  0.00  0.00    +0.000 A 
ATOM     24  C   UNL     1       6.421   4.435  17.735  0.00  0.00    +0.000 A 
BRANCH  22  25
ATOM     25  O   UNL     1       7.868   5.174  14.394  0.00  0.00    +0.000 OA
BRANCH  25  26
ATOM     26  C   UNL     1       7.284   5.193  13.106  0.00  0.00    +0.000 C 
ATOM     27  F   UNL     1       8.125   5.811  12.241  0.00  0.00    +0.000 F 
ATOM     28  F   UNL     1       7.186   3.902  12.699  0.00  0.00    +0.000 F 
ENDBRANCH  25  26
ENDBRANCH  22  25
ENDBRANCH   9  19
TORSDOF 4
ENDMDL
MODEL 2
REMARK VINA RESULT:      -9.1      2.483      8.046
REMARK  Name = 
REMARK  5 active torsions:
REMARK  status: ('A' for Active; 'I' for Inactive)
REMARK    1  A    between atoms: C_1  and  C_2
REMARK    2  A    between atoms: C_9  and  C_10
REMARK    3  A    between atoms: N_18  and  C_19
REMARK    4  A    between atoms: C_22  and  O_23
REMARK    5  A    between atoms: O_23  and  C_24
REMARK                            x       y       z     vdW  Elec       q    Type
REMARK                         _______ _______ _______ _____ _____    ______ ____
ROOT
ATOM      1  C   UNL     1       4.346   4.187  17.048  0.00  0.00    +0.000 A 
ATOM      2  C   UNL     1       3.620   5.283  17.529  0.00  0.00    +0.000 A 
ATOM      3  C   UNL     1       3.011   5.115  18.777  0.00  0.00    +0.000 A 
ATOM      4  C   UNL     1       3.042   3.900  19.447  0.00  0.00    +0.000 A 
ATOM      5  C   UNL     1       3.614   2.800  18.812  0.00  0.00    +0.000 A 
ATOM      6  N   UNL     1       4.290   2.967  17.641  0.00  0.00    +0.000 NA
ATOM      7  N   UNL     1       2.507   4.022  20.705  0.00  0.00    +0.000 NA
ATOM      8  C   UNL     1       2.212   5.297  20.824  0.00  0.00    +0.000 A 
ATOM      9  N   UNL     1       2.411   5.995  19.654  0.00  0.00    +0.000 N 
ENDROOT
BRANCH   1  18
ATOM     10  C   UNL     1       7.087   5.523  17.437  0.00  0.00    +0.000 C 
ATOM     11  C   UNL     1       6.611   4.973  16.116  0.00  0.00    +0.000 A 
ATOM     12  C   UNL     1       7.463   5.130  15.001  0.00  0.00    +0.000 A 
ATOM     13  C   UNL     1       7.084   4.674  13.744  0.00  0.00    +0.000 A 
ATOM     14  F   UNL     1       7.912   4.833  12.703  0.00  0.00    +0.000 F 
ATOM     15  C   UNL     1       5.856   4.070  13.571  0.00  0.00    +0.000 A 
ATOM     16  F   UNL     1       5.473   3.630  12.365  0.00  0.00    +0.000 F 
ATOM     17  C   UNL     1       4.995   3.919  14.652  0.00  0.00    +0.000 A 
ATOM     18  C   UNL     1       5.344   4.351  15.957  0.00  0.00    +0.000 A 
ENDBRANCH   1  18
BRANCH   9  19
ATOM     19  C   UNL     1       2.069   7.351  19.441  0.00  0.00    +0.000 A 
ATOM     20  C   UNL     1       1.458   8.065  20.473  0.00  0.00    +0.000 A 
ATOM     21  C   UNL     1       0.961   9.341  20.220  0.00  0.00    +0.000 A 
ATOM     22  C   UNL     1       1.045   9.902  18.942  0.00  0.00    +0.000 A 
ATOM     23  C   UNL     1       1.699   9.207  17.925  0.00  0.00    +0.000 A 
ATOM     24  C   UNL     1       2.233   7.935  18.178  0.00  0.00    +0.000 A 
BRANCH  22  25
ATOM     25  O   UNL     1       0.403  11.101  18.836  0.00  0.00    +0.000 OA
BRANCH  25  26
ATOM     26  C   UNL     1      -1.010  11.096  18.895  0.00  0.00    +0.000 C 
ATOM     27  F   UNL     1      -1.485  12.257  18.384  0.00  0.00    +0.000 F 
ATOM     28  F   UNL     1      -1.434  10.103  18.073  0.00  0.00    +0.000 F 
ENDBRANCH  25  26
ENDBRANCH  22  25
ENDBRANCH   9  19
TORSDOF 4
ENDMDL
MODEL 3
REMARK VINA RESULT:      -8.9      0.621      1.104
REMARK  Name = 
REMARK  5 active torsions:
REMARK  status: ('A' for Active; 'I' for Inactive)
REMARK    1  A    between atoms: C_1  and  C_2
REMARK    2  A    between atoms: C_9  and  C_10
REMARK    3  A    between atoms: N_18  and  C_19
REMARK    4  A    between atoms: C_22  and  O_23
REMARK    5  A    between atoms: O_23  and  C_24
REMARK                            x       y       z     vdW  Elec       q    Type
REMARK                         _______ _______ _______ _____ _____    ______ ____
ROOT
ATOM      1  C   UNL     1       2.382   6.544  19.985  0.00  0.00    +0.000 A 
ATOM      2  C   UNL     1       3.367   5.992  19.158  0.00  0.00    +0.000 A 
ATOM      3  C   UNL     1       3.537   4.607  19.248  0.00  0.00    +0.000 A 
ATOM      4  C   UNL     1       2.842   3.844  20.176  0.00  0.00    +0.000 A 
ATOM      5  C   UNL     1       2.025   4.494  21.100  0.00  0.00    +0.000 A 
ATOM      6  N   UNL     1       1.778   5.827  20.967  0.00  0.00    +0.000 NA
ATOM      7  N   UNL     1       3.067   2.505  19.976  0.00  0.00    +0.000 NA
ATOM      8  C   UNL     1       3.834   2.448  18.911  0.00  0.00    +0.000 A 
ATOM      9  N   UNL     1       4.229   3.695  18.478  0.00  0.00    +0.000 N 
ENDROOT
BRANCH   1  18
ATOM     10  C   UNL     1       2.794   8.056  17.341  0.00  0.00    +0.000 C 
ATOM     11  C   UNL     1       2.019   8.617  18.506  0.00  0.00    +0.000 A 
ATOM     12  C   UNL     1       1.504   9.925  18.375  0.00  0.00    +0.000 A 
ATOM     13  C   UNL     1       0.801  10.523  19.414  0.00  0.00    +0.000 A 
ATOM     14  F   UNL     1       0.319  11.763  19.262  0.00  0.00    +0.000 F 
ATOM     15  C   UNL     1       0.612   9.841  20.599  0.00  0.00    +0.000 A 
ATOM     16  F   UNL     1      -0.058  10.406  21.614  0.00  0.00    +0.000 F 
ATOM     17  C   UNL     1       1.125   8.560  20.756  0.00  0.00    +0.000 A 
ATOM     18  C   UNL     1       1.832   7.901  19.718  0.00  0.00    +0.000 A 
ENDBRANCH   1  18
BRANCH   9  19
ATOM     19  C   UNL     1       5.150   3.945  17.434  0.00  0.00    +0.000 A 
ATOM     20  C   UNL     1       6.455   4.317  17.757  0.00  0.00    +0.000 A 
ATOM     21  C   UNL     1       7.318   4.733  16.747  0.00  0.00    +0.000 A 
ATOM     22  C   UNL     1       6.883   4.805  15.420  0.00  0.00    +0.000 A 
ATOM     23  C   UNL     1       5.594   4.387  15.091  0.00  0.00    +0.000 A 
ATOM     24  C   UNL     1       4.728   3.935  16.097  0.00  0.00    +0.000 A 
BRANCH  22  25
ATOM     25  O   UNL     1       7.811   5.347  14.578  0.00  0.00    +0.000 OA
BRANCH  25  26
ATOM     26  C   UNL     1       7.497   5.393  13.200  0.00  0.00    +0.000 C 
ATOM     27  F   UNL     1       8.491   6.030  12.534  0.00  0.00    +0.000 F 
ATOM     28  F   UNL     1       7.487   4.111  12.755  0.00  0.00    +0.000 F 
ENDBRANCH  25  26
ENDBRANCH  22  25
ENDBRANCH   9  19
TORSDOF 4
ENDMDL
MODEL 4
REMARK VINA RESULT:      -8.8      2.389      7.909
REMARK  Name = 
REMARK  5 active torsions:
REMARK  status: ('A' for Active; 'I' for Inactive)
REMARK    1  A    between atoms: C_1  and  C_2
REMARK    2  A    between atoms: C_9  and  C_10
REMARK    3  A    between atoms: N_18  and  C_19
REMARK    4  A    between atoms: C_22  and  O_23
REMARK    5  A    between atoms: O_23  and  C_24
REMARK                            x       y       z     vdW  Elec       q    Type
REMARK                         _______ _______ _______ _____ _____    ______ ____
ROOT
ATOM      1  C   UNL     1       4.339   4.167  17.029  0.00  0.00    +0.000 A 
ATOM      2  C   UNL     1       3.628   5.265  17.527  0.00  0.00    +0.000 A 
ATOM      3  C   UNL     1       3.026   5.089  18.777  0.00  0.00    +0.000 A 
ATOM      4  C   UNL     1       3.049   3.866  19.434  0.00  0.00    +0.000 A 
ATOM      5  C   UNL     1       3.606   2.767  18.782  0.00  0.00    +0.000 A 
ATOM      6  N   UNL     1       4.275   2.941  17.609  0.00  0.00    +0.000 NA
ATOM      7  N   UNL     1       2.525   3.979  20.697  0.00  0.00    +0.000 NA
ATOM      8  C   UNL     1       2.244   5.256  20.833  0.00  0.00    +0.000 A 
ATOM      9  N   UNL     1       2.441   5.965  19.668  0.00  0.00    +0.000 N 
ENDROOT
BRANCH   1  18
ATOM     10  C   UNL     1       7.090   5.485  17.409  0.00  0.00    +0.000 C 
ATOM     11  C   UNL     1       6.603   4.947  16.087  0.00  0.00    +0.000 A 
ATOM     12  C   UNL     1       7.448   5.108  14.968  0.00  0.00    +0.000 A 
ATOM     13  C   UNL     1       7.059   4.662  13.710  0.00  0.00    +0.000 A 
ATOM     14  F   UNL     1       7.881   4.824  12.666  0.00  0.00    +0.000 F 
ATOM     15  C   UNL     1       5.826   4.066  13.542  0.00  0.00    +0.000 A 
ATOM     16  F   UNL     1       5.433   3.636  12.335  0.00  0.00    +0.000 F 
ATOM     17  C   UNL     1       4.971   3.912  14.627  0.00  0.00    +0.000 A 
ATOM     18  C   UNL     1       5.331   4.333  15.932  0.00  0.00    +0.000 A 
ENDBRANCH   1  18
BRANCH   9  19
ATOM     19  C   UNL     1       2.111   7.326  19.473  0.00  0.00    +0.000 A 
ATOM     20  C   UNL     1       1.511   8.034  20.516  0.00  0.00    +0.000 A 
ATOM     21  C   UNL     1       1.026   9.317  20.281  0.00  0.00    +0.000 A 
ATOM     22  C   UNL     1       1.110   9.893  19.009  0.00  0.00    +0.000 A 
ATOM     23  C   UNL     1       1.753   9.204  17.981  0.00  0.00    +0.000 A 
ATOM     24  C   UNL     1       2.276   7.924  18.216  0.00  0.00    +0.000 A 
BRANCH  22  25
ATOM     25  O   UNL     1       0.479  11.100  18.920  0.00  0.00    +0.000 OA
BRANCH  25  26
ATOM     26  C   UNL     1       1.273  12.264  19.037  0.00  0.00    +0.000 C 
ATOM     27  F   UNL     1       1.813  12.315  20.279  0.00  0.00    +0.000 F 
ATOM     28  F   UNL     1       2.306  12.125  18.167  0.00  0.00    +0.000 F 
ENDBRANCH  25  26
ENDBRANCH  22  25
ENDBRANCH   9  19
TORSDOF 4
ENDMDL
MODEL 5
REMARK VINA RESULT:      -8.5      2.248      7.928
REMARK  Name = 
REMARK  5 active torsions:
REMARK  status: ('A' for Active; 'I' for Inactive)
REMARK    1  A    between atoms: C_1  and  C_2
REMARK    2  A    between atoms: C_9  and  C_10
REMARK    3  A    between atoms: N_18  and  C_19
REMARK    4  A    between atoms: C_22  and  O_23
REMARK    5  A    between atoms: O_23  and  C_24
REMARK                            x       y       z     vdW  Elec       q    Type
REMARK                         _______ _______ _______ _____ _____    ______ ____
ROOT
ATOM      1  C   UNL     1       4.402   4.002  17.288  0.00  0.00    +0.000 A 
ATOM      2  C   UNL     1       3.590   5.031  17.780  0.00  0.00    +0.000 A 
ATOM      3  C   UNL     1       3.007   4.806  19.031  0.00  0.00    +0.000 A 
ATOM      4  C   UNL     1       3.144   3.594  19.694  0.00  0.00    +0.000 A 
ATOM      5  C   UNL     1       3.802   2.549  19.048  0.00  0.00    +0.000 A 
ATOM      6  N   UNL     1       4.452   2.779  17.874  0.00  0.00    +0.000 NA
ATOM      7  N   UNL     1       2.610   3.664  20.956  0.00  0.00    +0.000 NA
ATOM      8  C   UNL     1       2.210   4.909  21.085  0.00  0.00    +0.000 A 
ATOM      9  N   UNL     1       2.342   5.628  19.917  0.00  0.00    +0.000 N 
ENDROOT
BRANCH   1  18
ATOM     10  C   UNL     1       7.105   5.407  17.702  0.00  0.00    +0.000 C 
ATOM     11  C   UNL     1       6.624   4.910  16.362  0.00  0.00    +0.000 A 
ATOM     12  C   UNL     1       7.450   5.153  15.243  0.00  0.00    +0.000 A 
ATOM     13  C   UNL     1       7.065   4.749  13.970  0.00  0.00    +0.000 A 
ATOM     14  F   UNL     1       7.869   4.988  12.926  0.00  0.00    +0.000 F 
ATOM     15  C   UNL     1       5.854   4.114  13.786  0.00  0.00    +0.000 A 
ATOM     16  F   UNL     1       5.464   3.723  12.565  0.00  0.00    +0.000 F 
ATOM     17  C   UNL     1       5.017   3.880  14.871  0.00  0.00    +0.000 A 
ATOM     18  C   UNL     1       5.375   4.256  16.191  0.00  0.00    +0.000 A 
ENDBRANCH   1  18
BRANCH   9  19
ATOM     19  C   UNL     1       1.885   6.951  19.715  0.00  0.00    +0.000 A 
ATOM     20  C   UNL     1       2.111   7.566  18.483  0.00  0.00    +0.000 A 
ATOM     21  C   UNL     1       1.824   8.918  18.330  0.00  0.00    +0.000 A 
ATOM     22  C   UNL     1       1.336   9.672  19.402  0.00  0.00    +0.000 A 
ATOM     23  C   UNL     1       1.064   9.047  20.618  0.00  0.00    +0.000 A 
ATOM     24  C   UNL     1       1.319   7.677  20.772  0.00  0.00    +0.000 A 
BRANCH  22  25
ATOM     25  O   UNL     1       1.224  11.003  19.119  0.00  0.00    +0.000 OA
BRANCH  25  26
ATOM     26  C   UNL     1      -0.076  11.525  18.930  0.00  0.00    +0.000 C 
ATOM     27  F   UNL     1      -0.870  10.569  18.389  0.00  0.00    +0.000 F 
ATOM     28  F   UNL     1      -0.576  11.795  20.163  0.00  0.00    +0.000 F 
ENDBRANCH  25  26
ENDBRANCH  22  25
ENDBRANCH   9  19
TORSDOF 4
ENDMDL
MODEL 6
REMARK VINA RESULT:      -8.4      2.318      7.963
REMARK  Name = 
REMARK  5 active torsions:
REMARK  status: ('A' for Active; 'I' for Inactive)
REMARK    1  A    between atoms: C_1  and  C_2
REMARK    2  A    between atoms: C_9  and  C_10
REMARK    3  A    between atoms: N_18  and  C_19
REMARK    4  A    between atoms: C_22  and  O_23
REMARK    5  A    between atoms: O_23  and  C_24
REMARK                            x       y       z     vdW  Elec       q    Type
REMARK                         _______ _______ _______ _____ _____    ______ ____
ROOT
ATOM      1  C   UNL     1       4.355   4.223  17.178  0.00  0.00    +0.000 A 
ATOM      2  C   UNL     1       3.568   5.298  17.605  0.00  0.00    +0.000 A 
ATOM      3  C   UNL     1       2.983   5.166  18.868  0.00  0.00    +0.000 A 
ATOM      4  C   UNL     1       3.097   3.997  19.607  0.00  0.00    +0.000 A 
ATOM      5  C   UNL     1       3.730   2.899  19.028  0.00  0.00    +0.000 A 
ATOM      6  N   UNL     1       4.382   3.039  17.841  0.00  0.00    +0.000 NA
ATOM      7  N   UNL     1       2.568   4.159  20.863  0.00  0.00    +0.000 NA
ATOM      8  C   UNL     1       2.196   5.418  20.913  0.00  0.00    +0.000 A 
ATOM      9  N   UNL     1       2.339   6.058  19.701  0.00  0.00    +0.000 N 
ENDROOT
BRANCH   1  18
ATOM     10  C   UNL     1       7.119   5.527  17.512  0.00  0.00    +0.000 C 
ATOM     11  C   UNL     1       6.607   4.991  16.199  0.00  0.00    +0.000 A 
ATOM     12  C   UNL     1       7.435   5.148  15.065  0.00  0.00    +0.000 A 
ATOM     13  C   UNL     1       7.022   4.704  13.814  0.00  0.00    +0.000 A 
ATOM     14  F   UNL     1       7.828   4.861  12.756  0.00  0.00    +0.000 F 
ATOM     15  C   UNL     1       5.784   4.114  13.666  0.00  0.00    +0.000 A 
ATOM     16  F   UNL     1       5.369   3.686  12.466  0.00  0.00    +0.000 F 
ATOM     17  C   UNL     1       4.947   3.965  14.765  0.00  0.00    +0.000 A 
ATOM     18  C   UNL     1       5.330   4.384  16.065  0.00  0.00    +0.000 A 
ENDBRANCH   1  18
BRANCH   9  19
ATOM     19  C   UNL     1       1.910   7.375  19.415  0.00  0.00    +0.000 A 
ATOM     20  C   UNL     1       2.168   7.913  18.154  0.00  0.00    +0.000 A 
ATOM     21  C   UNL     1       1.908   9.260  17.919  0.00  0.00    +0.000 A 
ATOM     22  C   UNL     1       1.416  10.082  18.937  0.00  0.00    +0.000 A 
ATOM     23  C   UNL     1       1.113   9.533  20.182  0.00  0.00    +0.000 A 
ATOM     24  C   UNL     1       1.340   8.169  20.419  0.00  0.00    +0.000 A 
BRANCH  22  25
ATOM     25  O   UNL     1       1.333  11.396  18.577  0.00  0.00    +0.000 OA
BRANCH  25  26
ATOM     26  C   UNL     1       1.031  12.335  19.590  0.00  0.00    +0.000 C 
ATOM     27  F   UNL     1       2.178  12.721  20.200  0.00  0.00    +0.000 F 
ATOM     28  F   UNL     1       0.530  13.434  18.971  0.00  0.00    +0.000 F 
ENDBRANCH  25  26
ENDBRANCH  22  25
ENDBRANCH   9  19
TORSDOF 4
ENDMDL
MODEL 7
REMARK VINA RESULT:      -8.4      1.035      2.018
REMARK  Name = 
REMARK  5 active torsions:
REMARK  status: ('A' for Active; 'I' for Inactive)
REMARK    1  A    between atoms: C_1  and  C_2
REMARK    2  A    between atoms: C_9  and  C_10
REMARK    3  A    between atoms: N_18  and  C_19
REMARK    4  A    between atoms: C_22  and  O_23
REMARK    5  A    between atoms: O_23  and  C_24
REMARK                            x       y       z     vdW  Elec       q    Type
REMARK                         _______ _______ _______ _____ _____    ______ ____
ROOT
ATOM      1  C   UNL     1       2.306   6.619  19.901  0.00  0.00    +0.000 A 
ATOM      2  C   UNL     1       3.290   6.042  19.089  0.00  0.00    +0.000 A 
ATOM      3  C   UNL     1       3.358   4.646  19.107  0.00  0.00    +0.000 A 
ATOM      4  C   UNL     1       2.565   3.886  19.956  0.00  0.00    +0.000 A 
ATOM      5  C   UNL     1       1.751   4.544  20.877  0.00  0.00    +0.000 A 
ATOM      6  N   UNL     1       1.605   5.896  20.810  0.00  0.00    +0.000 NA
ATOM      7  N   UNL     1       2.705   2.548  19.689  0.00  0.00    +0.000 NA
ATOM      8  C   UNL     1       3.519   2.492  18.659  0.00  0.00    +0.000 A 
ATOM      9  N   UNL     1       4.021   3.729  18.317  0.00  0.00    +0.000 N 
ENDROOT
BRANCH   1  18
ATOM     10  C   UNL     1       0.576   8.184  21.903  0.00  0.00    +0.000 C 
ATOM     11  C   UNL     1       1.062   8.761  20.596  0.00  0.00    +0.000 A 
ATOM     12  C   UNL     1       0.651  10.072  20.272  0.00  0.00    +0.000 A 
ATOM     13  C   UNL     1       1.035  10.663  19.074  0.00  0.00    +0.000 A 
ATOM     14  F   UNL     1       0.636  11.910  18.792  0.00  0.00    +0.000 F 
ATOM     15  C   UNL     1       1.816   9.962  18.178  0.00  0.00    +0.000 A 
ATOM     16  F   UNL     1       2.190  10.515  17.016  0.00  0.00    +0.000 F 
ATOM     17  C   UNL     1       2.217   8.664  18.470  0.00  0.00    +0.000 A 
ATOM     18  C   UNL     1       1.867   8.025  19.687  0.00  0.00    +0.000 A 
ENDBRANCH   1  18
BRANCH   9  19
ATOM     19  C   UNL     1       5.008   3.968  17.333  0.00  0.00    +0.000 A 
ATOM     20  C   UNL     1       6.295   4.327  17.737  0.00  0.00    +0.000 A 
ATOM     21  C   UNL     1       7.223   4.732  16.783  0.00  0.00    +0.000 A 
ATOM     22  C   UNL     1       6.874   4.806  15.431  0.00  0.00    +0.000 A 
ATOM     23  C   UNL     1       5.604   4.400  15.022  0.00  0.00    +0.000 A 
ATOM     24  C   UNL     1       4.672   3.958  15.973  0.00  0.00    +0.000 A 
BRANCH  22  25
ATOM     25  O   UNL     1       7.858   5.336  14.648  0.00  0.00    +0.000 OA
BRANCH  25  26
ATOM     26  C   UNL     1       7.594   5.472  13.266  0.00  0.00    +0.000 C 
ATOM     27  F   UNL     1       8.682   5.993  12.649  0.00  0.00    +0.000 F 
ATOM     28  F   UNL     1       7.427   4.219  12.771  0.00  0.00    +0.000 F 
ENDBRANCH  25  26
ENDBRANCH  22  25
ENDBRANCH   9  19
TORSDOF 4
ENDMDL
MODEL 8
REMARK VINA RESULT:      -8.2      1.093      1.782
REMARK  Name = 
REMARK  5 active torsions:
REMARK  status: ('A' for Active; 'I' for Inactive)
REMARK    1  A    between atoms: C_1  and  C_2
REMARK    2  A    between atoms: C_9  and  C_10
REMARK    3  A    between atoms: N_18  and  C_19
REMARK    4  A    between atoms: C_22  and  O_23
REMARK    5  A    between atoms: O_23  and  C_24
REMARK                            x       y       z     vdW  Elec       q    Type
REMARK                         _______ _______ _______ _____ _____    ______ ____
ROOT
ATOM      1  C   UNL     1       2.050   7.105  20.082  0.00  0.00    +0.000 A 
ATOM      2  C   UNL     1       3.113   6.629  19.306  0.00  0.00    +0.000 A 
ATOM      3  C   UNL     1       3.298   5.243  19.306  0.00  0.00    +0.000 A 
ATOM      4  C   UNL     1       2.536   4.403  20.107  0.00  0.00    +0.000 A 
ATOM      5  C   UNL     1       1.631   4.972  21.000  0.00  0.00    +0.000 A 
ATOM      6  N   UNL     1       1.374   6.309  20.948  0.00  0.00    +0.000 NA
ATOM      7  N   UNL     1       2.800   3.087  19.826  0.00  0.00    +0.000 NA
ATOM      8  C   UNL     1       3.660   3.119  18.832  0.00  0.00    +0.000 A 
ATOM      9  N   UNL     1       4.070   4.400  18.532  0.00  0.00    +0.000 N 
ENDROOT
BRANCH   1  18
ATOM     10  C   UNL     1      -0.193   8.325  21.795  0.00  0.00    +0.000 C 
ATOM     11  C   UNL     1       0.463   9.050  20.646  0.00  0.00    +0.000 A 
ATOM     12  C   UNL     1      -0.024  10.336  20.326  0.00  0.00    +0.000 A 
ATOM     13  C   UNL     1       0.510  11.057  19.265  0.00  0.00    +0.000 A 
ATOM     14  F   UNL     1       0.033  12.277  18.985  0.00  0.00    +0.000 F 
ATOM     15  C   UNL     1       1.520  10.511  18.500  0.00  0.00    +0.000 A 
ATOM     16  F   UNL     1       2.042  11.191  17.469  0.00  0.00    +0.000 F 
ATOM     17  C   UNL     1       2.003   9.240  18.787  0.00  0.00    +0.000 A 
ATOM     18  C   UNL     1       1.503   8.474  19.871  0.00  0.00    +0.000 A 
ENDBRANCH   1  18
BRANCH   9  19
ATOM     19  C   UNL     1       5.075   4.739  17.598  0.00  0.00    +0.000 A 
ATOM     20  C   UNL     1       4.703   5.304  16.377  0.00  0.00    +0.000 A 
ATOM     21  C   UNL     1       5.662   5.481  15.384  0.00  0.00    +0.000 A 
ATOM     22  C   UNL     1       6.986   5.078  15.588  0.00  0.00    +0.000 A 
ATOM     23  C   UNL     1       7.367   4.559  16.825  0.00  0.00    +0.000 A 
ATOM     24  C   UNL     1       6.414   4.408  17.843  0.00  0.00    +0.000 A 
BRANCH  22  25
ATOM     25  O   UNL     1       7.766   5.209  14.476  0.00  0.00    +0.000 OA
BRANCH  25  26
ATOM     26  C   UNL     1       7.156   4.994  13.219  0.00  0.00    +0.000 C 
ATOM     27  F   UNL     1       8.041   5.285  12.235  0.00  0.00    +0.000 F 
ATOM     28  F   UNL     1       6.895   3.665  13.129  0.00  0.00    +0.000 F 
ENDBRANCH  25  26
ENDBRANCH  22  25
ENDBRANCH   9  19
TORSDOF 4
ENDMDL
MODEL 9
REMARK VINA RESULT:      -8.1      4.497      6.777
REMARK  Name = 
REMARK  5 active torsions:
REMARK  status: ('A' for Active; 'I' for Inactive)
REMARK    1  A    between atoms: C_1  and  C_2
REMARK    2  A    between atoms: C_9  and  C_10
REMARK    3  A    between atoms: N_18  and  C_19
REMARK    4  A    between atoms: C_22  and  O_23
REMARK    5  A    between atoms: O_23  and  C_24
REMARK                            x       y       z     vdW  Elec       q    Type
REMARK                         _______ _______ _______ _____ _____    ______ ____
ROOT
ATOM      1  C   UNL     1      -1.302  10.890  19.100  0.00  0.00    +0.000 A 
ATOM      2  C   UNL     1      -0.336   9.886  19.233  0.00  0.00    +0.000 A 
ATOM      3  C   UNL     1       0.247   9.760  20.498  0.00  0.00    +0.000 A 
ATOM      4  C   UNL     1      -0.044  10.643  21.528  0.00  0.00    +0.000 A 
ATOM      5  C   UNL     1      -0.866  11.736  21.260  0.00  0.00    +0.000 A 
ATOM      6  N   UNL     1      -1.512  11.823  20.064  0.00  0.00    +0.000 NA
ATOM      7  N   UNL     1       0.533  10.231  22.703  0.00  0.00    +0.000 NA
ATOM      8  C   UNL     1       1.112   9.088  22.412  0.00  0.00    +0.000 A 
ATOM      9  N   UNL     1       1.051   8.794  21.067  0.00  0.00    +0.000 N 
ENDROOT
BRANCH   1  18
ATOM     10  C   UNL     1      -4.113  12.128  19.235  0.00  0.00    +0.000 C 
ATOM     11  C   UNL     1      -3.566  11.441  18.009  0.00  0.00    +0.000 A 
ATOM     12  C   UNL     1      -4.421  11.328  16.891  0.00  0.00    +0.000 A 
ATOM     13  C   UNL     1      -3.999  10.686  15.733  0.00  0.00    +0.000 A 
ATOM     14  F   UNL     1      -4.828  10.596  14.684  0.00  0.00    +0.000 F 
ATOM     15  C   UNL     1      -2.735  10.135  15.671  0.00  0.00    +0.000 A 
ATOM     16  F   UNL     1      -2.316   9.506  14.564  0.00  0.00    +0.000 F 
ATOM     17  C   UNL     1      -1.884  10.219  16.766  0.00  0.00    +0.000 A 
ATOM     18  C   UNL     1      -2.262  10.882  17.962  0.00  0.00    +0.000 A 
ENDBRANCH   1  18
BRANCH   9  19
ATOM     19  C   UNL     1       1.688   7.699  20.440  0.00  0.00    +0.000 A 
ATOM     20  C   UNL     1       2.319   7.895  19.210  0.00  0.00    +0.000 A 
ATOM     21  C   UNL     1       2.796   6.795  18.503  0.00  0.00    +0.000 A 
ATOM     22  C   UNL     1       2.628   5.498  18.999  0.00  0.00    +0.000 A 
ATOM     23  C   UNL     1       2.042   5.307  20.249  0.00  0.00    +0.000 A 
ATOM     24  C   UNL     1       1.588   6.411  20.985  0.00  0.00    +0.000 A 
BRANCH  22  25
ATOM     25  O   UNL     1       3.042   4.531  18.129  0.00  0.00    +0.000 OA
BRANCH  25  26
ATOM     26  C   UNL     1       2.046   3.758  17.487  0.00  0.00    +0.000 C 
ATOM     27  F   UNL     1       1.616   2.791  18.332  0.00  0.00    +0.000 F 
ATOM     28  F   UNL     1       0.990   4.582  17.265  0.00  0.00    +0.000 F 
ENDBRANCH  25  26
ENDBRANCH  22  25
ENDBRANCH   9  19
TORSDOF 4
ENDMDL
