MODEL 1
REMARK VINA RESULT:      -8.8      0.000      0.000
REMARK  Name = 
REMARK  6 active torsions:
REMARK  status: ('A' for Active; 'I' for Inactive)
REMARK    1  A    between atoms: C_1  and  O_2
REMARK    2  A    between atoms: O_2  and  C_3
REMARK    3  A    between atoms: C_7  and  C_8
REMARK    4  A    between atoms: N_9  and  N_10
REMARK    5  A    between atoms: C_11  and  C_13
REMARK    6  A    between atoms: C_15  and  C_16
REMARK                            x       y       z     vdW  Elec       q    Type
REMARK                         _______ _______ _______ _____ _____    ______ ____
ROOT
ATOM      1  C   UNL     1       7.312   6.791  17.495  0.00  0.00    +0.000 A 
ATOM      2  C   UNL     1       7.578   8.177  17.344  0.00  0.00    +0.000 A 
ATOM      3  C   UNL     1       8.375   8.544  18.411  0.00  0.00    +0.000 A 
ATOM      4  N   UNL     1       8.521   7.389  19.136  0.00  0.00    +0.000 N 
ATOM      5  N   UNL     1       7.901   6.311  18.610  0.00  0.00    +0.000 NA
ATOM      6  H   UNL     1       9.050   7.267  19.992  0.00  0.00    +0.000 HD
ENDROOT
BRANCH   3   7
ATOM      7  C   UNL     1       8.963   9.838  18.759  0.00  0.00    +0.000 A 
ATOM      8  C   UNL     1       9.133  10.176  20.108  0.00  0.00    +0.000 A 
ATOM      9  C   UNL     1       9.802  11.345  20.478  0.00  0.00    +0.000 A 
ATOM     10  C   UNL     1      10.325  12.205  19.506  0.00  0.00    +0.000 A 
ATOM     11  C   UNL     1      11.095  13.322  19.866  0.00  0.00    +0.000 A 
ATOM     12  C   UNL     1      11.616  14.173  18.891  0.00  0.00    +0.000 A 
ATOM     13  C   UNL     1      11.334  13.941  17.548  0.00  0.00    +0.000 A 
ATOM     14  C   UNL     1      10.575  12.828  17.175  0.00  0.00    +0.000 A 
ATOM     15  C   UNL     1      10.093  11.927  18.141  0.00  0.00    +0.000 A 
ATOM     16  C   UNL     1       9.416  10.740  17.784  0.00  0.00    +0.000 A 
ENDBRANCH   3   7
BRANCH   1  18
ATOM     17  N   UNL     1       7.263   5.010  15.899  0.00  0.00    +0.000 N 
ATOM     18  C   UNL     1       6.514   5.960  16.579  0.00  0.00    +0.000 C 
ATOM     19  O   UNL     1       5.302   6.129  16.451  0.00  0.00    +0.000 OA
ATOM     20  H   UNL     1       8.262   4.969  16.084  0.00  0.00    +0.000 HD
BRANCH  17  22
ATOM     21  C   UNL     1       6.809   4.452  13.750  0.00  0.00    +0.000 C 
ATOM     22  N   UNL     1       6.658   4.182  15.005  0.00  0.00    +0.000 NA
BRANCH  21  27
ATOM     23  C   UNL     1       4.304   3.088  11.281  0.00  0.00    +0.000 A 
ATOM     24  C   UNL     1       5.007   1.989  10.775  0.00  0.00    +0.000 A 
ATOM     25  C   UNL     1       6.291   1.691  11.231  0.00  0.00    +0.000 A 
ATOM     26  C   UNL     1       6.880   2.494  12.205  0.00  0.00    +0.000 A 
ATOM     27  C   UNL     1       6.183   3.595  12.714  0.00  0.00    +0.000 A 
ATOM     28  C   UNL     1       4.895   3.895  12.256  0.00  0.00    +0.000 A 
BRANCH  23  30
ATOM     29  C   UNL     1       2.922   4.187   9.687  0.00  0.00    +0.000 C 
ATOM     30  O   UNL     1       3.056   3.251  10.747  0.00  0.00    +0.000 OA
ENDBRANCH  23  30
ENDBRANCH  21  27
ENDBRANCH  17  22
ENDBRANCH   1  18
TORSDOF 5
ENDMDL
MODEL 2
REMARK VINA RESULT:      -8.3      0.768      1.678
REMARK  Name = 
REMARK  6 active torsions:
REMARK  status: ('A' for Active; 'I' for Inactive)
REMARK    1  A    between atoms: C_1  and  O_2
REMARK    2  A    between atoms: O_2  and  C_3
REMARK    3  A    between atoms: C_7  and  C_8
REMARK    4  A    between atoms: N_9  and  N_10
REMARK    5  A    between atoms: C_11  and  C_13
REMARK    6  A    between atoms: C_15  and  C_16
REMARK                            x       y       z     vdW  Elec       q    Type
REMARK                         _______ _______ _______ _____ _____    ______ ____
ROOT
ATOM      1  C   UNL     1       7.454   7.043  17.425  0.00  0.00    +0.000 A 
ATOM      2  C   UNL     1       7.732   8.430  17.306  0.00  0.00    +0.000 A 
ATOM      3  C   UNL     1       8.489   8.776  18.408  0.00  0.00    +0.000 A 
ATOM      4  N   UNL     1       8.602   7.610  19.121  0.00  0.00    +0.000 N 
ATOM      5  N   UNL     1       7.998   6.543  18.554  0.00  0.00    +0.000 NA
ATOM      6  H   UNL     1       9.097   7.472  19.994  0.00  0.00    +0.000 HD
ENDROOT
BRANCH   3   7
ATOM      7  C   UNL     1       9.068  10.062  18.800  0.00  0.00    +0.000 A 
ATOM      8  C   UNL     1       9.650  10.881  17.823  0.00  0.00    +0.000 A 
ATOM      9  C   UNL     1      10.101  12.165  18.135  0.00  0.00    +0.000 A 
ATOM     10  C   UNL     1       9.976  12.668  19.435  0.00  0.00    +0.000 A 
ATOM     11  C   UNL     1      10.322  13.995  19.735  0.00  0.00    +0.000 A 
ATOM     12  C   UNL     1      10.191  14.489  21.033  0.00  0.00    +0.000 A 
ATOM     13  C   UNL     1       9.756  13.649  22.053  0.00  0.00    +0.000 A 
ATOM     14  C   UNL     1       9.401  12.327  21.768  0.00  0.00    +0.000 A 
ATOM     15  C   UNL     1       9.470  11.830  20.454  0.00  0.00    +0.000 A 
ATOM     16  C   UNL     1       9.016  10.534  20.120  0.00  0.00    +0.000 A 
ENDBRANCH   3   7
BRANCH   1  18
ATOM     17  N   UNL     1       7.368   5.103  16.029  0.00  0.00    +0.000 N 
ATOM     18  C   UNL     1       6.688   6.231  16.466  0.00  0.00    +0.000 C 
ATOM     19  O   UNL     1       5.558   6.559  16.106  0.00  0.00    +0.000 OA
ATOM     20  H   UNL     1       8.303   4.939  16.395  0.00  0.00    +0.000 HD
BRANCH  17  22
ATOM     21  C   UNL     1       6.903   4.571  13.876  0.00  0.00    +0.000 C 
ATOM     22  N   UNL     1       6.787   4.267  15.127  0.00  0.00    +0.000 NA
BRANCH  21  27
ATOM     23  C   UNL     1       4.409   3.122  11.445  0.00  0.00    +0.000 A 
ATOM     24  C   UNL     1       5.166   2.093  10.875  0.00  0.00    +0.000 A 
ATOM     25  C   UNL     1       6.483   1.870  11.276  0.00  0.00    +0.000 A 
ATOM     26  C   UNL     1       7.052   2.678  12.257  0.00  0.00    +0.000 A 
ATOM     27  C   UNL     1       6.299   3.710  12.831  0.00  0.00    +0.000 A 
ATOM     28  C   UNL     1       4.978   3.935  12.429  0.00  0.00    +0.000 A 
BRANCH  23  30
ATOM     29  C   UNL     1       2.959   3.885   9.719  0.00  0.00    +0.000 C 
ATOM     30  O   UNL     1       3.133   3.216  10.961  0.00  0.00    +0.000 OA
ENDBRANCH  23  30
ENDBRANCH  21  27
ENDBRANCH  17  22
ENDBRANCH   1  18
TORSDOF 5
ENDMDL
MODEL 3
REMARK VINA RESULT:      -8.2      8.744     12.483
REMARK  Name = 
REMARK  6 active torsions:
REMARK  status: ('A' for Active; 'I' for Inactive)
REMARK    1  A    between atoms: C_1  and  O_2
REMARK    2  A    between atoms: O_2  and  C_3
REMARK    3  A    between atoms: C_7  and  C_8
REMARK    4  A    between atoms: N_9  and  N_10
REMARK    5  A    between atoms: C_11  and  C_13
REMARK    6  A    between atoms: C_15  and  C_16
REMARK                            x       y       z     vdW  Elec       q    Type
REMARK                         _______ _______ _______ _____ _____    ______ ____
ROOT
ATOM      1  C   UNL     1       1.272   8.986  19.752  0.00  0.00    +0.000 A 
ATOM      2  C   UNL     1       1.879   7.704  19.689  0.00  0.00    +0.000 A 
ATOM      3  C   UNL     1       2.559   7.649  18.488  0.00  0.00    +0.000 A 
ATOM      4  N   UNL     1       2.310   8.863  17.902  0.00  0.00    +0.000 N 
ATOM      5  N   UNL     1       1.545   9.697  18.639  0.00  0.00    +0.000 NA
ATOM      6  H   UNL     1       2.652   9.192  17.007  0.00  0.00    +0.000 HD
ENDROOT
BRANCH   3   7
ATOM      7  C   UNL     1       3.374   6.582  17.903  0.00  0.00    +0.000 A 
ATOM      8  C   UNL     1       3.001   5.246  18.099  0.00  0.00    +0.000 A 
ATOM      9  C   UNL     1       3.679   4.208  17.456  0.00  0.00    +0.000 A 
ATOM     10  C   UNL     1       4.747   4.482  16.593  0.00  0.00    +0.000 A 
ATOM     11  C   UNL     1       5.362   3.458  15.856  0.00  0.00    +0.000 A 
ATOM     12  C   UNL     1       6.424   3.739  14.995  0.00  0.00    +0.000 A 
ATOM     13  C   UNL     1       6.910   5.039  14.898  0.00  0.00    +0.000 A 
ATOM     14  C   UNL     1       6.302   6.069  15.620  0.00  0.00    +0.000 A 
ATOM     15  C   UNL     1       5.193   5.814  16.446  0.00  0.00    +0.000 A 
ATOM     16  C   UNL     1       4.494   6.851  17.103  0.00  0.00    +0.000 A 
ENDBRANCH   3   7
BRANCH   1  18
ATOM     17  N   UNL     1       0.663  10.849  21.122  0.00  0.00    +0.000 N 
ATOM     18  C   UNL     1       0.456   9.501  20.863  0.00  0.00    +0.000 C 
ATOM     19  O   UNL     1      -0.317   8.773  21.483  0.00  0.00    +0.000 OA
ATOM     20  H   UNL     1       1.335  11.348  20.544  0.00  0.00    +0.000 HD
BRANCH  17  22
ATOM     21  C   UNL     1      -1.135  12.026  21.840  0.00  0.00    +0.000 C 
ATOM     22  N   UNL     1      -0.013  11.457  22.134  0.00  0.00    +0.000 NA
BRANCH  21  27
ATOM     23  C   UNL     1      -3.890  12.783  24.303  0.00  0.00    +0.000 A 
ATOM     24  C   UNL     1      -3.430  13.986  24.849  0.00  0.00    +0.000 A 
ATOM     25  C   UNL     1      -2.228  14.551  24.421  0.00  0.00    +0.000 A 
ATOM     26  C   UNL     1      -1.478  13.912  23.437  0.00  0.00    +0.000 A 
ATOM     27  C   UNL     1      -1.933  12.708  22.888  0.00  0.00    +0.000 A 
ATOM     28  C   UNL     1      -3.138  12.140  23.316  0.00  0.00    +0.000 A 
BRANCH  23  30
ATOM     29  C   UNL     1      -6.259  12.701  24.087  0.00  0.00    +0.000 C 
ATOM     30  O   UNL     1      -5.086  12.356  24.811  0.00  0.00    +0.000 OA
ENDBRANCH  23  30
ENDBRANCH  21  27
ENDBRANCH  17  22
ENDBRANCH   1  18
TORSDOF 5
ENDMDL
MODEL 4
REMARK VINA RESULT:      -8.0      9.023     12.706
REMARK  Name = 
REMARK  6 active torsions:
REMARK  status: ('A' for Active; 'I' for Inactive)
REMARK    1  A    between atoms: C_1  and  O_2
REMARK    2  A    between atoms: O_2  and  C_3
REMARK    3  A    between atoms: C_7  and  C_8
REMARK    4  A    between atoms: N_9  and  N_10
REMARK    5  A    between atoms: C_11  and  C_13
REMARK    6  A    between atoms: C_15  and  C_16
REMARK                            x       y       z     vdW  Elec       q    Type
REMARK                         _______ _______ _______ _____ _____    ______ ____
ROOT
ATOM      1  C   UNL     1       1.112   8.868  20.449  0.00  0.00    +0.000 A 
ATOM      2  C   UNL     1       1.874   8.473  19.318  0.00  0.00    +0.000 A 
ATOM      3  C   UNL     1       2.345   7.202  19.585  0.00  0.00    +0.000 A 
ATOM      4  N   UNL     1       1.869   6.922  20.840  0.00  0.00    +0.000 N 
ATOM      5  N   UNL     1       1.115   7.900  21.388  0.00  0.00    +0.000 NA
ATOM      6  H   UNL     1       2.007   6.070  21.371  0.00  0.00    +0.000 HD
ENDROOT
BRANCH   3   7
ATOM      7  C   UNL     1       3.167   6.302  18.775  0.00  0.00    +0.000 A 
ATOM      8  C   UNL     1       3.184   4.932  19.070  0.00  0.00    +0.000 A 
ATOM      9  C   UNL     1       3.856   4.027  18.246  0.00  0.00    +0.000 A 
ATOM     10  C   UNL     1       4.526   4.468  17.100  0.00  0.00    +0.000 A 
ATOM     11  C   UNL     1       5.108   3.556  16.206  0.00  0.00    +0.000 A 
ATOM     12  C   UNL     1       5.771   4.004  15.062  0.00  0.00    +0.000 A 
ATOM     13  C   UNL     1       5.898   5.369  14.826  0.00  0.00    +0.000 A 
ATOM     14  C   UNL     1       5.316   6.288  15.704  0.00  0.00    +0.000 A 
ATOM     15  C   UNL     1       4.593   5.853  16.829  0.00  0.00    +0.000 A 
ATOM     16  C   UNL     1       3.906   6.755  17.672  0.00  0.00    +0.000 A 
ENDBRANCH   3   7
BRANCH   1  18
ATOM     17  N   UNL     1       0.233  10.527  21.931  0.00  0.00    +0.000 N 
ATOM     18  C   UNL     1       0.401  10.147  20.606  0.00  0.00    +0.000 C 
ATOM     19  O   UNL     1       0.002  10.784  19.632  0.00  0.00    +0.000 OA
ATOM     20  H   UNL     1       0.603   9.913  22.653  0.00  0.00    +0.000 HD
BRANCH  17  22
ATOM     21  C   UNL     1      -1.443  11.598  23.017  0.00  0.00    +0.000 C 
ATOM     22  N   UNL     1      -0.423  11.681  22.228  0.00  0.00    +0.000 NA
BRANCH  21  27
ATOM     23  C   UNL     1      -4.328  13.898  23.801  0.00  0.00    +0.000 A 
ATOM     24  C   UNL     1      -3.646  15.086  24.086  0.00  0.00    +0.000 A 
ATOM     25  C   UNL     1      -2.253  15.141  24.026  0.00  0.00    +0.000 A 
ATOM     26  C   UNL     1      -1.532  14.002  23.676  0.00  0.00    +0.000 A 
ATOM     27  C   UNL     1      -2.209  12.811  23.390  0.00  0.00    +0.000 A 
ATOM     28  C   UNL     1      -3.606  12.754  23.451  0.00  0.00    +0.000 A 
BRANCH  23  30
ATOM     29  C   UNL     1      -6.456  13.257  22.949  0.00  0.00    +0.000 C 
ATOM     30  O   UNL     1      -5.689  13.996  23.891  0.00  0.00    +0.000 OA
ENDBRANCH  23  30
ENDBRANCH  21  27
ENDBRANCH  17  22
ENDBRANCH   1  18
TORSDOF 5
ENDMDL
MODEL 5
REMARK VINA RESULT:      -8.0      3.836      5.117
REMARK  Name = 
REMARK  6 active torsions:
REMARK  status: ('A' for Active; 'I' for Inactive)
REMARK    1  A    between atoms: C_1  and  O_2
REMARK    2  A    between atoms: O_2  and  C_3
REMARK    3  A    between atoms: C_7  and  C_8
REMARK    4  A    between atoms: N_9  and  N_10
REMARK    5  A    between atoms: C_11  and  C_13
REMARK    6  A    between atoms: C_15  and  C_16
REMARK                            x       y       z     vdW  Elec       q    Type
REMARK                         _______ _______ _______ _____ _____    ______ ____
ROOT
ATOM      1  C   UNL     1       7.998   8.480  18.094  0.00  0.00    +0.000 A 
ATOM      2  C   UNL     1       8.169   9.744  17.472  0.00  0.00    +0.000 A 
ATOM      3  C   UNL     1       9.138  10.412  18.196  0.00  0.00    +0.000 A 
ATOM      4  N   UNL     1       9.469   9.540  19.201  0.00  0.00    +0.000 N 
ATOM      5  N   UNL     1       8.808   8.363  19.166  0.00  0.00    +0.000 NA
ATOM      6  H   UNL     1      10.156   9.682  19.932  0.00  0.00    +0.000 HD
ENDROOT
BRANCH   3   7
ATOM      7  C   UNL     1       9.724  11.739  18.004  0.00  0.00    +0.000 A 
ATOM      8  C   UNL     1      11.039  11.850  17.533  0.00  0.00    +0.000 A 
ATOM      9  C   UNL     1      11.589  13.094  17.220  0.00  0.00    +0.000 A 
ATOM     10  C   UNL     1      10.834  14.264  17.365  0.00  0.00    +0.000 A 
ATOM     11  C   UNL     1      11.337  15.507  16.948  0.00  0.00    +0.000 A 
ATOM     12  C   UNL     1      10.577  16.668  17.092  0.00  0.00    +0.000 A 
ATOM     13  C   UNL     1       9.325  16.604  17.695  0.00  0.00    +0.000 A 
ATOM     14  C   UNL     1       8.808  15.373  18.108  0.00  0.00    +0.000 A 
ATOM     15  C   UNL     1       9.536  14.184  17.916  0.00  0.00    +0.000 A 
ATOM     16  C   UNL     1       8.994  12.917  18.225  0.00  0.00    +0.000 A 
ENDBRANCH   3   7
BRANCH   1  18
ATOM     17  N   UNL     1       6.883   6.427  18.607  0.00  0.00    +0.000 N 
ATOM     18  C   UNL     1       7.077   7.419  17.655  0.00  0.00    +0.000 C 
ATOM     19  O   UNL     1       6.556   7.442  16.541  0.00  0.00    +0.000 OA
ATOM     20  H   UNL     1       7.374   6.514  19.493  0.00  0.00    +0.000 HD
BRANCH  17  22
ATOM     21  C   UNL     1       4.867   5.412  18.808  0.00  0.00    +0.000 C 
ATOM     22  N   UNL     1       6.068   5.373  18.331  0.00  0.00    +0.000 NA
BRANCH  21  27
ATOM     23  C   UNL     1       2.275   2.729  19.365  0.00  0.00    +0.000 A 
ATOM     24  C   UNL     1       2.139   2.222  18.068  0.00  0.00    +0.000 A 
ATOM     25  C   UNL     1       2.885   2.750  17.013  0.00  0.00    +0.000 A 
ATOM     26  C   UNL     1       3.778   3.792  17.255  0.00  0.00    +0.000 A 
ATOM     27  C   UNL     1       3.917   4.303  18.550  0.00  0.00    +0.000 A 
ATOM     28  C   UNL     1       3.169   3.775  19.608  0.00  0.00    +0.000 A 
BRANCH  23  30
ATOM     29  C   UNL     1       1.492   2.647  21.611  0.00  0.00    +0.000 C 
ATOM     30  O   UNL     1       1.488   2.108  20.296  0.00  0.00    +0.000 OA
ENDBRANCH  23  30
ENDBRANCH  21  27
ENDBRANCH  17  22
ENDBRANCH   1  18
TORSDOF 5
ENDMDL
MODEL 6
REMARK VINA RESULT:      -7.9      6.195      7.469
REMARK  Name = 
REMARK  6 active torsions:
REMARK  status: ('A' for Active; 'I' for Inactive)
REMARK    1  A    between atoms: C_1  and  O_2
REMARK    2  A    between atoms: O_2  and  C_3
REMARK    3  A    between atoms: C_7  and  C_8
REMARK    4  A    between atoms: N_9  and  N_10
REMARK    5  A    between atoms: C_11  and  C_13
REMARK    6  A    between atoms: C_15  and  C_16
REMARK                            x       y       z     vdW  Elec       q    Type
REMARK                         _______ _______ _______ _____ _____    ______ ____
ROOT
ATOM      1  C   UNL     1       2.821   5.849  18.886  0.00  0.00    +0.000 A 
ATOM      2  C   UNL     1       2.270   7.143  18.697  0.00  0.00    +0.000 A 
ATOM      3  C   UNL     1       1.828   7.568  19.934  0.00  0.00    +0.000 A 
ATOM      4  N   UNL     1       2.113   6.521  20.773  0.00  0.00    +0.000 N 
ATOM      5  N   UNL     1       2.719   5.472  20.177  0.00  0.00    +0.000 NA
ATOM      6  H   UNL     1       1.936   6.470  21.770  0.00  0.00    +0.000 HD
ENDROOT
BRANCH   3   7
ATOM      7  C   UNL     1       1.193   8.824  20.339  0.00  0.00    +0.000 A 
ATOM      8  C   UNL     1       1.207   9.916  19.462  0.00  0.00    +0.000 A 
ATOM      9  C   UNL     1       0.505  11.086  19.759  0.00  0.00    +0.000 A 
ATOM     10  C   UNL     1      -0.234  11.193  20.943  0.00  0.00    +0.000 A 
ATOM     11  C   UNL     1      -1.032  12.320  21.199  0.00  0.00    +0.000 A 
ATOM     12  C   UNL     1      -1.769  12.417  22.379  0.00  0.00    +0.000 A 
ATOM     13  C   UNL     1      -1.680  11.410  23.335  0.00  0.00    +0.000 A 
ATOM     14  C   UNL     1      -0.896  10.279  23.090  0.00  0.00    +0.000 A 
ATOM     15  C   UNL     1      -0.194  10.137  21.880  0.00  0.00    +0.000 A 
ATOM     16  C   UNL     1       0.518   8.959  21.562  0.00  0.00    +0.000 A 
ENDBRANCH   3   7
BRANCH   1  18
ATOM     17  N   UNL     1       4.585   5.558  17.297  0.00  0.00    +0.000 N 
ATOM     18  C   UNL     1       3.432   5.009  17.843  0.00  0.00    +0.000 C 
ATOM     19  O   UNL     1       2.933   3.935  17.510  0.00  0.00    +0.000 OA
ATOM     20  H   UNL     1       4.899   6.458  17.651  0.00  0.00    +0.000 HD
BRANCH  17  22
ATOM     21  C   UNL     1       5.208   5.411  15.123  0.00  0.00    +0.000 C 
ATOM     22  N   UNL     1       5.247   4.898  16.309  0.00  0.00    +0.000 NA
BRANCH  21  27
ATOM     23  C   UNL     1       5.947   3.069  12.259  0.00  0.00    +0.000 A 
ATOM     24  C   UNL     1       7.216   3.516  11.876  0.00  0.00    +0.000 A 
ATOM     25  C   UNL     1       7.831   4.576  12.544  0.00  0.00    +0.000 A 
ATOM     26  C   UNL     1       7.176   5.195  13.606  0.00  0.00    +0.000 A 
ATOM     27  C   UNL     1       5.906   4.752  13.993  0.00  0.00    +0.000 A 
ATOM     28  C   UNL     1       5.288   3.690  13.324  0.00  0.00    +0.000 A 
BRANCH  23  30
ATOM     29  C   UNL     1       6.433   1.098  11.018  0.00  0.00    +0.000 C 
ATOM     30  O   UNL     1       5.475   2.019  11.521  0.00  0.00    +0.000 OA
ENDBRANCH  23  30
ENDBRANCH  21  27
ENDBRANCH  17  22
ENDBRANCH   1  18
TORSDOF 5
ENDMDL
MODEL 7
REMARK VINA RESULT:      -7.9      8.474     12.522
REMARK  Name = 
REMARK  6 active torsions:
REMARK  status: ('A' for Active; 'I' for Inactive)
REMARK    1  A    between atoms: C_1  and  O_2
REMARK    2  A    between atoms: O_2  and  C_3
REMARK    3  A    between atoms: C_7  and  C_8
REMARK    4  A    between atoms: N_9  and  N_10
REMARK    5  A    between atoms: C_11  and  C_13
REMARK    6  A    between atoms: C_15  and  C_16
REMARK                            x       y       z     vdW  Elec       q    Type
REMARK                         _______ _______ _______ _____ _____    ______ ____
ROOT
ATOM      1  C   UNL     1       1.392   8.223  20.565  0.00  0.00    +0.000 A 
ATOM      2  C   UNL     1       2.192   7.953  19.424  0.00  0.00    +0.000 A 
ATOM      3  C   UNL     1       2.498   6.606  19.468  0.00  0.00    +0.000 A 
ATOM      4  N   UNL     1       1.896   6.160  20.616  0.00  0.00    +0.000 N 
ATOM      5  N   UNL     1       1.214   7.105  21.298  0.00  0.00    +0.000 NA
ATOM      6  H   UNL     1       1.897   5.214  20.980  0.00  0.00    +0.000 HD
ENDROOT
BRANCH   3   7
ATOM      7  C   UNL     1       3.277   5.776  18.547  0.00  0.00    +0.000 A 
ATOM      8  C   UNL     1       2.785   4.520  18.169  0.00  0.00    +0.000 A 
ATOM      9  C   UNL     1       3.436   3.754  17.200  0.00  0.00    +0.000 A 
ATOM     10  C   UNL     1       4.596   4.230  16.577  0.00  0.00    +0.000 A 
ATOM     11  C   UNL     1       5.195   3.520  15.524  0.00  0.00    +0.000 A 
ATOM     12  C   UNL     1       6.349   4.002  14.905  0.00  0.00    +0.000 A 
ATOM     13  C   UNL     1       6.941   5.174  15.365  0.00  0.00    +0.000 A 
ATOM     14  C   UNL     1       6.352   5.895  16.407  0.00  0.00    +0.000 A 
ATOM     15  C   UNL     1       5.156   5.455  17.002  0.00  0.00    +0.000 A 
ATOM     16  C   UNL     1       4.483   6.217  17.982  0.00  0.00    +0.000 A 
ENDBRANCH   3   7
BRANCH   1  18
ATOM     17  N   UNL     1       0.603   9.682  22.289  0.00  0.00    +0.000 N 
ATOM     18  C   UNL     1       0.816   9.529  20.925  0.00  0.00    +0.000 C 
ATOM     19  O   UNL     1       0.556  10.374  20.070  0.00  0.00    +0.000 OA
ATOM     20  H   UNL     1       0.854   8.908  22.900  0.00  0.00    +0.000 HD
BRANCH  17  22
ATOM     21  C   UNL     1      -1.227  10.947  22.716  0.00  0.00    +0.000 C 
ATOM     22  N   UNL     1       0.059  10.834  22.765  0.00  0.00    +0.000 NA
BRANCH  21  27
ATOM     23  C   UNL     1      -1.817  14.531  23.735  0.00  0.00    +0.000 A 
ATOM     24  C   UNL     1      -3.148  14.467  24.161  0.00  0.00    +0.000 A 
ATOM     25  C   UNL     1      -3.855  13.264  24.116  0.00  0.00    +0.000 A 
ATOM     26  C   UNL     1      -3.227  12.113  23.646  0.00  0.00    +0.000 A 
ATOM     27  C   UNL     1      -1.896  12.172  23.218  0.00  0.00    +0.000 A 
ATOM     28  C   UNL     1      -1.187  13.377  23.261  0.00  0.00    +0.000 A 
BRANCH  23  30
ATOM     29  C   UNL     1      -2.096  16.834  24.268  0.00  0.00    +0.000 C 
ATOM     30  O   UNL     1      -1.251  15.772  23.845  0.00  0.00    +0.000 OA
ENDBRANCH  23  30
ENDBRANCH  21  27
ENDBRANCH  17  22
ENDBRANCH   1  18
TORSDOF 5
ENDMDL
MODEL 8
REMARK VINA RESULT:      -7.9      9.889     11.171
REMARK  Name = 
REMARK  6 active torsions:
REMARK  status: ('A' for Active; 'I' for Inactive)
REMARK    1  A    between atoms: C_1  and  O_2
REMARK    2  A    between atoms: O_2  and  C_3
REMARK    3  A    between atoms: C_7  and  C_8
REMARK    4  A    between atoms: N_9  and  N_10
REMARK    5  A    between atoms: C_11  and  C_13
REMARK    6  A    between atoms: C_15  and  C_16
REMARK                            x       y       z     vdW  Elec       q    Type
REMARK                         _______ _______ _______ _____ _____    ______ ____
ROOT
ATOM      1  C   UNL     1       0.207   9.715  21.530  0.00  0.00    +0.000 A 
ATOM      2  C   UNL     1      -0.448  10.969  21.420  0.00  0.00    +0.000 A 
ATOM      3  C   UNL     1      -1.092  11.186  22.622  0.00  0.00    +0.000 A 
ATOM      4  N   UNL     1      -0.812  10.065  23.361  0.00  0.00    +0.000 N 
ATOM      5  N   UNL     1      -0.025   9.161  22.738  0.00  0.00    +0.000 NA
ATOM      6  H   UNL     1      -1.112   9.866  24.309  0.00  0.00    +0.000 HD
ENDROOT
BRANCH   3   7
ATOM      7  C   UNL     1      -1.904  12.315  23.078  0.00  0.00    +0.000 A 
ATOM      8  C   UNL     1      -1.282  13.536  23.371  0.00  0.00    +0.000 A 
ATOM      9  C   UNL     1      -2.035  14.669  23.688  0.00  0.00    +0.000 A 
ATOM     10  C   UNL     1      -3.433  14.611  23.715  0.00  0.00    +0.000 A 
ATOM     11  C   UNL     1      -4.202  15.767  23.922  0.00  0.00    +0.000 A 
ATOM     12  C   UNL     1      -5.595  15.702  23.944  0.00  0.00    +0.000 A 
ATOM     13  C   UNL     1      -6.232  14.473  23.806  0.00  0.00    +0.000 A 
ATOM     14  C   UNL     1      -5.480  13.314  23.591  0.00  0.00    +0.000 A 
ATOM     15  C   UNL     1      -4.077  13.371  23.506  0.00  0.00    +0.000 A 
ATOM     16  C   UNL     1      -3.300  12.236  23.184  0.00  0.00    +0.000 A 
ENDBRANCH   3   7
BRANCH   1  18
ATOM     17  N   UNL     1       1.604   7.879  20.898  0.00  0.00    +0.000 N 
ATOM     18  C   UNL     1       1.035   9.079  20.493  0.00  0.00    +0.000 C 
ATOM     19  O   UNL     1       1.190   9.597  19.388  0.00  0.00    +0.000 OA
ATOM     20  H   UNL     1       1.407   7.553  21.841  0.00  0.00    +0.000 HD
BRANCH  17  22
ATOM     21  C   UNL     1       2.028   6.001  19.704  0.00  0.00    +0.000 C 
ATOM     22  N   UNL     1       2.408   7.188  20.047  0.00  0.00    +0.000 NA
BRANCH  21  27
ATOM     23  C   UNL     1       4.982   4.704  17.749  0.00  0.00    +0.000 A 
ATOM     24  C   UNL     1       4.386   3.657  17.038  0.00  0.00    +0.000 A 
ATOM     25  C   UNL     1       3.029   3.369  17.193  0.00  0.00    +0.000 A 
ATOM     26  C   UNL     1       2.258   4.136  18.063  0.00  0.00    +0.000 A 
ATOM     27  C   UNL     1       2.849   5.184  18.777  0.00  0.00    +0.000 A 
ATOM     28  C   UNL     1       4.209   5.473  18.623  0.00  0.00    +0.000 A 
BRANCH  23  30
ATOM     29  C   UNL     1       7.117   5.400  18.537  0.00  0.00    +0.000 C 
ATOM     30  O   UNL     1       6.314   4.873  17.489  0.00  0.00    +0.000 OA
ENDBRANCH  23  30
ENDBRANCH  21  27
ENDBRANCH  17  22
ENDBRANCH   1  18
TORSDOF 5
ENDMDL
MODEL 9
REMARK VINA RESULT:      -7.9      6.248     10.687
REMARK  Name = 
REMARK  6 active torsions:
REMARK  status: ('A' for Active; 'I' for Inactive)
REMARK    1  A    between atoms: C_1  and  O_2
REMARK    2  A    between atoms: O_2  and  C_3
REMARK    3  A    between atoms: C_7  and  C_8
REMARK    4  A    between atoms: N_9  and  N_10
REMARK    5  A    between atoms: C_11  and  C_13
REMARK    6  A    between atoms: C_15  and  C_16
REMARK                            x       y       z     vdW  Elec       q    Type
REMARK                         _______ _______ _______ _____ _____    ______ ____
ROOT
ATOM      1  C   UNL     1       3.365   4.930  19.257  0.00  0.00    +0.000 A 
ATOM      2  C   UNL     1       3.824   5.516  18.048  0.00  0.00    +0.000 A 
ATOM      3  C   UNL     1       4.600   4.564  17.418  0.00  0.00    +0.000 A 
ATOM      4  N   UNL     1       4.582   3.493  18.274  0.00  0.00    +0.000 N 
ATOM      5  N   UNL     1       3.841   3.675  19.388  0.00  0.00    +0.000 NA
ATOM      6  H   UNL     1       5.041   2.598  18.145  0.00  0.00    +0.000 HD
ENDROOT
BRANCH   3   7
ATOM      7  C   UNL     1       5.312   4.609  16.139  0.00  0.00    +0.000 A 
ATOM      8  C   UNL     1       6.578   5.207  16.077  0.00  0.00    +0.000 A 
ATOM      9  C   UNL     1       7.339   5.159  14.907  0.00  0.00    +0.000 A 
ATOM     10  C   UNL     1       6.855   4.505  13.768  0.00  0.00    +0.000 A 
ATOM     11  C   UNL     1       7.656   4.354  12.625  0.00  0.00    +0.000 A 
ATOM     12  C   UNL     1       7.168   3.698  11.495  0.00  0.00    +0.000 A 
ATOM     13  C   UNL     1       5.859   3.227  11.480  0.00  0.00    +0.000 A 
ATOM     14  C   UNL     1       5.053   3.363  12.614  0.00  0.00    +0.000 A 
ATOM     15  C   UNL     1       5.549   3.969  13.782  0.00  0.00    +0.000 A 
ATOM     16  C   UNL     1       4.793   4.024  14.974  0.00  0.00    +0.000 A 
ENDBRANCH   3   7
BRANCH   1  18
ATOM     17  N   UNL     1       2.267   6.921  20.001  0.00  0.00    +0.000 N 
ATOM     18  C   UNL     1       2.488   5.572  20.248  0.00  0.00    +0.000 C 
ATOM     19  O   UNL     1       2.021   4.943  21.196  0.00  0.00    +0.000 OA
ATOM     20  H   UNL     1       2.713   7.335  19.186  0.00  0.00    +0.000 HD
BRANCH  17  22
ATOM     21  C   UNL     1       1.147   8.835  20.467  0.00  0.00    +0.000 C 
ATOM     22  N   UNL     1       1.488   7.647  20.847  0.00  0.00    +0.000 NA
BRANCH  21  27
ATOM     23  C   UNL     1      -0.977  11.716  21.657  0.00  0.00    +0.000 A 
ATOM     24  C   UNL     1      -1.295  11.290  22.952  0.00  0.00    +0.000 A 
ATOM     25  C   UNL     1      -0.823  10.070  23.438  0.00  0.00    +0.000 A 
ATOM     26  C   UNL     1      -0.024   9.268  22.627  0.00  0.00    +0.000 A 
ATOM     27  C   UNL     1       0.297   9.688  21.331  0.00  0.00    +0.000 A 
ATOM     28  C   UNL     1      -0.177  10.911  20.842  0.00  0.00    +0.000 A 
BRANCH  23  30
ATOM     29  C   UNL     1      -1.568  13.251  19.938  0.00  0.00    +0.000 C 
ATOM     30  O   UNL     1      -1.501  12.934  21.322  0.00  0.00    +0.000 OA
ENDBRANCH  23  30
ENDBRANCH  21  27
ENDBRANCH  17  22
ENDBRANCH   1  18
TORSDOF 5
ENDMDL
