MODEL 1
REMARK VINA RESULT:      -7.7      0.000      0.000
REMARK  Name = 
REMARK  6 active torsions:
REMARK  status: ('A' for Active; 'I' for Inactive)
REMARK    1  A    between atoms: C_1  and  C_2
REMARK    2  A    between atoms: C_2  and  C_3
REMARK    3  A    between atoms: C_2  and  N_4
REMARK    4  A    between atoms: C_2  and  C_14
REMARK    5  A    between atoms: N_4  and  C_5
REMARK    6  A    between atoms: C_5  and  C_6
REMARK                            x       y       z     vdW  Elec       q    Type
REMARK                         _______ _______ _______ _____ _____    ______ ____
ROOT
ATOM      1  C   UNL     1       5.684   4.906  18.938  0.00  0.00    +0.000 C 
ATOM      2  C   UNL     1       5.140   5.627  17.678  0.00  0.00    +0.000 C 
ATOM      3  C   UNL     1       6.287   6.493  17.103  0.00  0.00    +0.000 C 
ENDROOT
BRANCH   2   4
ATOM      4  C   UNL     1       3.933   6.486  18.137  0.00  0.00    +0.000 A 
ATOM      5  C   UNL     1       3.274   6.181  19.363  0.00  0.00    +0.000 A 
ATOM      6  C   UNL     1       2.269   7.005  19.888  0.00  0.00    +0.000 A 
ATOM      7  C   UNL     1       1.919   8.125  19.172  0.00  0.00    +0.000 A 
ATOM      8  C   UNL     1       2.510   8.420  17.971  0.00  0.00    +0.000 A 
ATOM      9  C   UNL     1       3.505   7.627  17.429  0.00  0.00    +0.000 A 
ATOM     10  O   UNL     1       2.029   9.567  17.422  0.00  0.00    +0.000 OA
ATOM     11  C   UNL     1       1.054   9.953  18.412  0.00  0.00    +0.000 C 
ATOM     12  O   UNL     1       0.991   9.050  19.536  0.00  0.00    +0.000 OA
ENDBRANCH   2   4
BRANCH   2  13
ATOM     13  N   UNL     1       4.681   4.629  16.677  0.00  0.00    +0.000 NA
ATOM     14  H   UNL     1       5.433   4.480  15.997  0.00  0.00    +0.000 HD
BRANCH  13  15
ATOM     15  C   UNL     1       4.320   3.313  17.239  0.00  0.00    +0.000 C 
BRANCH  15  16
ATOM     16  C   UNL     1       2.824   3.243  17.576  0.00  0.00    +0.000 C 
ATOM     17  O   UNL     1       2.000   3.693  16.775  0.00  0.00    +0.000 OA
ATOM     18  N   UNL     1       2.446   2.615  18.757  0.00  0.00    +0.000 N 
ATOM     19  C   UNL     1       1.034   2.329  19.002  0.00  0.00    +0.000 C 
ATOM     20  C   UNL     1       0.536   3.049  20.251  0.00  0.00    +0.000 C 
ATOM     21  C   UNL     1       1.430   2.752  21.454  0.00  0.00    +0.000 C 
ATOM     22  C   UNL     1       2.895   3.042  21.133  0.00  0.00    +0.000 C 
ATOM     23  C   UNL     1       3.344   2.309  19.871  0.00  0.00    +0.000 C 
ENDBRANCH  15  16
ENDBRANCH  13  15
ENDBRANCH   2  13
TORSDOF 4
ENDMDL
MODEL 2
REMARK VINA RESULT:      -7.3      2.251      4.608
REMARK  Name = 
REMARK  6 active torsions:
REMARK  status: ('A' for Active; 'I' for Inactive)
REMARK    1  A    between atoms: C_1  and  C_2
REMARK    2  A    between atoms: C_2  and  C_3
REMARK    3  A    between atoms: C_2  and  N_4
REMARK    4  A    between atoms: C_2  and  C_14
REMARK    5  A    between atoms: N_4  and  C_5
REMARK    6  A    between atoms: C_5  and  C_6
REMARK                            x       y       z     vdW  Elec       q    Type
REMARK                         _______ _______ _______ _____ _____    ______ ____
ROOT
ATOM      1  C   UNL     1       2.147   5.073  18.185  0.00  0.00    +0.000 C 
ATOM      2  C   UNL     1       2.321   5.725  19.581  0.00  0.00    +0.000 C 
ATOM      3  C   UNL     1       1.318   5.043  20.544  0.00  0.00    +0.000 C 
ENDROOT
BRANCH   2   4
ATOM      4  C   UNL     1       2.028   7.239  19.411  0.00  0.00    +0.000 A 
ATOM      5  C   UNL     1       2.203   7.853  18.137  0.00  0.00    +0.000 A 
ATOM      6  C   UNL     1       1.824   9.181  17.898  0.00  0.00    +0.000 A 
ATOM      7  C   UNL     1       1.286   9.893  18.943  0.00  0.00    +0.000 A 
ATOM      8  C   UNL     1       1.143   9.337  20.189  0.00  0.00    +0.000 A 
ATOM      9  C   UNL     1       1.506   8.029  20.454  0.00  0.00    +0.000 A 
ATOM     10  O   UNL     1       0.589  10.199  21.083  0.00  0.00    +0.000 OA
ATOM     11  C   UNL     1       0.415  11.369  20.258  0.00  0.00    +0.000 C 
ATOM     12  O   UNL     1       0.838  11.176  18.892  0.00  0.00    +0.000 OA
ENDBRANCH   2   4
BRANCH   2  13
ATOM     13  N   UNL     1       3.716   5.545  20.059  0.00  0.00    +0.000 NA
ATOM     14  H   UNL     1       3.701   5.453  21.080  0.00  0.00    +0.000 HD
BRANCH  13  15
ATOM     15  C   UNL     1       4.407   4.360  19.514  0.00  0.00    +0.000 C 
BRANCH  15  16
ATOM     16  C   UNL     1       5.772   4.736  18.923  0.00  0.00    +0.000 C 
ATOM     17  O   UNL     1       6.592   5.339  19.621  0.00  0.00    +0.000 OA
ATOM     18  N   UNL     1       6.060   4.326  17.625  0.00  0.00    +0.000 N 
ATOM     19  C   UNL     1       7.421   4.464  17.111  0.00  0.00    +0.000 C 
ATOM     20  C   UNL     1       7.458   5.383  15.894  0.00  0.00    +0.000 C 
ATOM     21  C   UNL     1       6.453   4.936  14.834  0.00  0.00    +0.000 C 
ATOM     22  C   UNL     1       5.055   4.780  15.432  0.00  0.00    +0.000 C 
ATOM     23  C   UNL     1       5.072   3.862  16.652  0.00  0.00    +0.000 C 
ENDBRANCH  15  16
ENDBRANCH  13  15
ENDBRANCH   2  13
TORSDOF 4
ENDMDL
MODEL 3
REMARK VINA RESULT:      -7.1      2.726      6.188
REMARK  Name = 
REMARK  6 active torsions:
REMARK  status: ('A' for Active; 'I' for Inactive)
REMARK    1  A    between atoms: C_1  and  C_2
REMARK    2  A    between atoms: C_2  and  C_3
REMARK    3  A    between atoms: C_2  and  N_4
REMARK    4  A    between atoms: C_2  and  C_14
REMARK    5  A    between atoms: N_4  and  C_5
REMARK    6  A    between atoms: C_5  and  C_6
REMARK                            x       y       z     vdW  Elec       q    Type
REMARK                         _______ _______ _______ _____ _____    ______ ____
ROOT
ATOM      1  C   UNL     1       3.353   3.471  20.075  0.00  0.00    +0.000 C 
ATOM      2  C   UNL     1       3.146   4.696  19.148  0.00  0.00    +0.000 C 
ATOM      3  C   UNL     1       1.871   4.438  18.308  0.00  0.00    +0.000 C 
ENDROOT
BRANCH   2   4
ATOM      4  C   UNL     1       4.415   4.809  18.262  0.00  0.00    +0.000 A 
ATOM      5  C   UNL     1       5.701   4.849  18.874  0.00  0.00    +0.000 A 
ATOM      6  C   UNL     1       6.881   4.814  18.117  0.00  0.00    +0.000 A 
ATOM      7  C   UNL     1       6.765   4.755  16.748  0.00  0.00    +0.000 A 
ATOM      8  C   UNL     1       5.539   4.755  16.135  0.00  0.00    +0.000 A 
ATOM      9  C   UNL     1       4.358   4.787  16.854  0.00  0.00    +0.000 A 
ATOM     10  O   UNL     1       5.635   4.690  14.780  0.00  0.00    +0.000 OA
ATOM     11  C   UNL     1       7.067   4.664  14.612  0.00  0.00    +0.000 C 
ATOM     12  O   UNL     1       7.791   4.687  15.860  0.00  0.00    +0.000 OA
ENDBRANCH   2   4
BRANCH   2  13
ATOM     13  N   UNL     1       3.002   5.932  19.960  0.00  0.00    +0.000 NA
ATOM     14  H   UNL     1       3.928   6.202  20.309  0.00  0.00    +0.000 HD
BRANCH  13  15
ATOM     15  C   UNL     1       2.445   7.088  19.229  0.00  0.00    +0.000 C 
BRANCH  15  16
ATOM     16  C   UNL     1       1.677   8.023  20.172  0.00  0.00    +0.000 C 
ATOM     17  O   UNL     1       1.504   7.692  21.349  0.00  0.00    +0.000 OA
ATOM     18  N   UNL     1       1.251   9.250  19.676  0.00  0.00    +0.000 N 
ATOM     19  C   UNL     1       0.721  10.256  20.595  0.00  0.00    +0.000 C 
ATOM     20  C   UNL     1      -0.724  10.604  20.255  0.00  0.00    +0.000 C 
ATOM     21  C   UNL     1      -0.867  10.994  18.784  0.00  0.00    +0.000 C 
ATOM     22  C   UNL     1      -0.273   9.922  17.871  0.00  0.00    +0.000 C 
ATOM     23  C   UNL     1       1.169   9.600  18.258  0.00  0.00    +0.000 C 
ENDBRANCH  15  16
ENDBRANCH  13  15
ENDBRANCH   2  13
TORSDOF 4
ENDMDL
MODEL 4
REMARK VINA RESULT:      -7.1      1.608      4.191
REMARK  Name = 
REMARK  6 active torsions:
REMARK  status: ('A' for Active; 'I' for Inactive)
REMARK    1  A    between atoms: C_1  and  C_2
REMARK    2  A    between atoms: C_2  and  C_3
REMARK    3  A    between atoms: C_2  and  N_4
REMARK    4  A    between atoms: C_2  and  C_14
REMARK    5  A    between atoms: N_4  and  C_5
REMARK    6  A    between atoms: C_5  and  C_6
REMARK                            x       y       z     vdW  Elec       q    Type
REMARK                         _______ _______ _______ _____ _____    ______ ____
ROOT
ATOM      1  C   UNL     1       1.568   2.574  18.620  0.00  0.00    +0.000 C 
ATOM      2  C   UNL     1       2.830   3.471  18.546  0.00  0.00    +0.000 C 
ATOM      3  C   UNL     1       3.862   2.909  19.554  0.00  0.00    +0.000 C 
ENDROOT
BRANCH   2   4
ATOM      4  C   UNL     1       2.381   4.910  18.912  0.00  0.00    +0.000 A 
ATOM      5  C   UNL     1       2.030   5.219  20.258  0.00  0.00    +0.000 A 
ATOM      6  C   UNL     1       1.751   6.531  20.668  0.00  0.00    +0.000 A 
ATOM      7  C   UNL     1       1.809   7.525  19.719  0.00  0.00    +0.000 A 
ATOM      8  C   UNL     1       2.106   7.247  18.410  0.00  0.00    +0.000 A 
ATOM      9  C   UNL     1       2.388   5.964  17.977  0.00  0.00    +0.000 A 
ATOM     10  O   UNL     1       2.116   8.363  17.632  0.00  0.00    +0.000 OA
ATOM     11  C   UNL     1       1.776   9.373  18.603  0.00  0.00    +0.000 C 
ATOM     12  O   UNL     1       1.597   8.850  19.935  0.00  0.00    +0.000 OA
ENDBRANCH   2   4
BRANCH   2  13
ATOM     13  N   UNL     1       3.382   3.464  17.166  0.00  0.00    +0.000 NA
ATOM     14  H   UNL     1       3.029   4.290  16.671  0.00  0.00    +0.000 HD
BRANCH  13  15
ATOM     15  C   UNL     1       4.856   3.493  17.092  0.00  0.00    +0.000 C 
BRANCH  15  16
ATOM     16  C   UNL     1       5.360   4.851  16.586  0.00  0.00    +0.000 C 
ATOM     17  O   UNL     1       5.247   5.134  15.390  0.00  0.00    +0.000 OA
ATOM     18  N   UNL     1       5.878   5.746  17.516  0.00  0.00    +0.000 N 
ATOM     19  C   UNL     1       6.156   7.123  17.114  0.00  0.00    +0.000 C 
ATOM     20  C   UNL     1       7.636   7.454  17.274  0.00  0.00    +0.000 C 
ATOM     21  C   UNL     1       8.126   7.126  18.683  0.00  0.00    +0.000 C 
ATOM     22  C   UNL     1       7.785   5.685  19.061  0.00  0.00    +0.000 C 
ATOM     23  C   UNL     1       6.297   5.399  18.874  0.00  0.00    +0.000 C 
ENDBRANCH  15  16
ENDBRANCH  13  15
ENDBRANCH   2  13
TORSDOF 4
ENDMDL
MODEL 5
REMARK VINA RESULT:      -7.0      0.823      1.604
REMARK  Name = 
REMARK  6 active torsions:
REMARK  status: ('A' for Active; 'I' for Inactive)
REMARK    1  A    between atoms: C_1  and  C_2
REMARK    2  A    between atoms: C_2  and  C_3
REMARK    3  A    between atoms: C_2  and  N_4
REMARK    4  A    between atoms: C_2  and  C_14
REMARK    5  A    between atoms: N_4  and  C_5
REMARK    6  A    between atoms: C_5  and  C_6
REMARK                            x       y       z     vdW  Elec       q    Type
REMARK                         _______ _______ _______ _____ _____    ______ ____
ROOT
ATOM      1  C   UNL     1       5.854   4.448  18.562  0.00  0.00    +0.000 C 
ATOM      2  C   UNL     1       5.230   5.274  17.409  0.00  0.00    +0.000 C 
ATOM      3  C   UNL     1       6.380   6.022  16.693  0.00  0.00    +0.000 C 
ENDROOT
BRANCH   2   4
ATOM      4  C   UNL     1       4.211   6.250  18.055  0.00  0.00    +0.000 A 
ATOM      5  C   UNL     1       3.808   7.419  17.347  0.00  0.00    +0.000 A 
ATOM      6  C   UNL     1       2.793   8.260  17.825  0.00  0.00    +0.000 A 
ATOM      7  C   UNL     1       2.198   7.932  19.020  0.00  0.00    +0.000 A 
ATOM      8  C   UNL     1       2.594   6.834  19.739  0.00  0.00    +0.000 A 
ATOM      9  C   UNL     1       3.591   5.986  19.293  0.00  0.00    +0.000 A 
ATOM     10  O   UNL     1       1.883   6.680  20.888  0.00  0.00    +0.000 OA
ATOM     11  C   UNL     1       1.002   7.820  20.815  0.00  0.00    +0.000 C 
ATOM     12  O   UNL     1       1.184   8.609  19.622  0.00  0.00    +0.000 OA
ENDBRANCH   2   4
BRANCH   2  13
ATOM     13  N   UNL     1       4.517   4.375  16.464  0.00  0.00    +0.000 NA
ATOM     14  H   UNL     1       5.146   4.159  15.683  0.00  0.00    +0.000 HD
BRANCH  13  15
ATOM     15  C   UNL     1       4.073   3.094  17.047  0.00  0.00    +0.000 C 
BRANCH  15  16
ATOM     16  C   UNL     1       2.617   3.177  17.527  0.00  0.00    +0.000 C 
ATOM     17  O   UNL     1       1.774   3.731  16.815  0.00  0.00    +0.000 OA
ATOM     18  N   UNL     1       2.287   2.566  18.732  0.00  0.00    +0.000 N 
ATOM     19  C   UNL     1       0.883   2.426  19.109  0.00  0.00    +0.000 C 
ATOM     20  C   UNL     1       0.587   3.167  20.409  0.00  0.00    +0.000 C 
ATOM     21  C   UNL     1       1.554   2.748  21.515  0.00  0.00    +0.000 C 
ATOM     22  C   UNL     1       3.005   2.887  21.058  0.00  0.00    +0.000 C 
ATOM     23  C   UNL     1       3.249   2.140  19.748  0.00  0.00    +0.000 C 
ENDBRANCH  15  16
ENDBRANCH  13  15
ENDBRANCH   2  13
TORSDOF 4
ENDMDL
MODEL 6
REMARK VINA RESULT:      -7.0      1.867      4.524
REMARK  Name = 
REMARK  6 active torsions:
REMARK  status: ('A' for Active; 'I' for Inactive)
REMARK    1  A    between atoms: C_1  and  C_2
REMARK    2  A    between atoms: C_2  and  C_3
REMARK    3  A    between atoms: C_2  and  N_4
REMARK    4  A    between atoms: C_2  and  C_14
REMARK    5  A    between atoms: N_4  and  C_5
REMARK    6  A    between atoms: C_5  and  C_6
REMARK                            x       y       z     vdW  Elec       q    Type
REMARK                         _______ _______ _______ _____ _____    ______ ____
ROOT
ATOM      1  C   UNL     1       2.083   3.729  18.096  0.00  0.00    +0.000 C 
ATOM      2  C   UNL     1       2.173   4.267  19.546  0.00  0.00    +0.000 C 
ATOM      3  C   UNL     1       0.980   3.679  20.338  0.00  0.00    +0.000 C 
ENDROOT
BRANCH   2   4
ATOM      4  C   UNL     1       2.108   5.814  19.458  0.00  0.00    +0.000 A 
ATOM      5  C   UNL     1       2.478   6.468  18.246  0.00  0.00    +0.000 A 
ATOM      6  C   UNL     1       2.308   7.848  18.069  0.00  0.00    +0.000 A 
ATOM      7  C   UNL     1       1.784   8.570  19.115  0.00  0.00    +0.000 A 
ATOM      8  C   UNL     1       1.457   7.971  20.304  0.00  0.00    +0.000 A 
ATOM      9  C   UNL     1       1.611   6.612  20.508  0.00  0.00    +0.000 A 
ATOM     10  O   UNL     1       0.952   8.852  21.209  0.00  0.00    +0.000 OA
ATOM     11  C   UNL     1       1.013  10.079  20.454  0.00  0.00    +0.000 C 
ATOM     12  O   UNL     1       1.524   9.904  19.116  0.00  0.00    +0.000 OA
ENDBRANCH   2   4
BRANCH   2  13
ATOM     13  N   UNL     1       3.464   3.864  20.163  0.00  0.00    +0.000 NA
ATOM     14  H   UNL     1       3.272   3.178  20.901  0.00  0.00    +0.000 HD
BRANCH  13  15
ATOM     15  C   UNL     1       4.430   3.256  19.228  0.00  0.00    +0.000 C 
BRANCH  15  16
ATOM     16  C   UNL     1       5.557   4.237  18.877  0.00  0.00    +0.000 C 
ATOM     17  O   UNL     1       5.997   4.993  19.748  0.00  0.00    +0.000 OA
ATOM     18  N   UNL     1       6.087   4.196  17.592  0.00  0.00    +0.000 N 
ATOM     19  C   UNL     1       7.302   4.949  17.289  0.00  0.00    +0.000 C 
ATOM     20  C   UNL     1       7.046   5.993  16.207  0.00  0.00    +0.000 C 
ATOM     21  C   UNL     1       6.402   5.363  14.973  0.00  0.00    +0.000 C 
ATOM     22  C   UNL     1       5.153   4.567  15.351  0.00  0.00    +0.000 C 
ATOM     23  C   UNL     1       5.457   3.544  16.444  0.00  0.00    +0.000 C 
ENDBRANCH  15  16
ENDBRANCH  13  15
ENDBRANCH   2  13
TORSDOF 4
ENDMDL
MODEL 7
REMARK VINA RESULT:      -6.9      3.189      5.292
REMARK  Name = 
REMARK  6 active torsions:
REMARK  status: ('A' for Active; 'I' for Inactive)
REMARK    1  A    between atoms: C_1  and  C_2
REMARK    2  A    between atoms: C_2  and  C_3
REMARK    3  A    between atoms: C_2  and  N_4
REMARK    4  A    between atoms: C_2  and  C_14
REMARK    5  A    between atoms: N_4  and  C_5
REMARK    6  A    between atoms: C_5  and  C_6
REMARK                            x       y       z     vdW  Elec       q    Type
REMARK                         _______ _______ _______ _____ _____    ______ ____
ROOT
ATOM      1  C   UNL     1       4.954   6.947  17.384  0.00  0.00    +0.000 C 
ATOM      2  C   UNL     1       6.284   6.151  17.384  0.00  0.00    +0.000 C 
ATOM      3  C   UNL     1       7.443   7.177  17.418  0.00  0.00    +0.000 C 
ENDROOT
BRANCH   2   4
ATOM      4  C   UNL     1       6.298   5.298  16.089  0.00  0.00    +0.000 A 
ATOM      5  C   UNL     1       5.335   4.262  15.916  0.00  0.00    +0.000 A 
ATOM      6  C   UNL     1       5.218   3.554  14.711  0.00  0.00    +0.000 A 
ATOM      7  C   UNL     1       6.080   3.879  13.690  0.00  0.00    +0.000 A 
ATOM      8  C   UNL     1       7.041   4.845  13.845  0.00  0.00    +0.000 A 
ATOM      9  C   UNL     1       7.178   5.560  15.021  0.00  0.00    +0.000 A 
ATOM     10  O   UNL     1       7.788   5.019  12.723  0.00  0.00    +0.000 OA
ATOM     11  C   UNL     1       7.195   4.038  11.848  0.00  0.00    +0.000 C 
ATOM     12  O   UNL     1       6.097   3.323  12.450  0.00  0.00    +0.000 OA
ENDBRANCH   2   4
BRANCH   2  13
ATOM     13  N   UNL     1       6.341   5.252  18.566  0.00  0.00    +0.000 NA
ATOM     14  H   UNL     1       7.151   5.516  19.137  0.00  0.00    +0.000 HD
BRANCH  13  15
ATOM     15  C   UNL     1       5.149   5.296  19.434  0.00  0.00    +0.000 C 
BRANCH  15  16
ATOM     16  C   UNL     1       4.542   3.899  19.617  0.00  0.00    +0.000 C 
ATOM     17  O   UNL     1       5.287   2.935  19.815  0.00  0.00    +0.000 OA
ATOM     18  N   UNL     1       3.157   3.779  19.612  0.00  0.00    +0.000 N 
ATOM     19  C   UNL     1       2.541   2.514  20.006  0.00  0.00    +0.000 C 
ATOM     20  C   UNL     1       1.722   1.921  18.864  0.00  0.00    +0.000 C 
ATOM     21  C   UNL     1       0.719   2.937  18.319  0.00  0.00    +0.000 C 
ATOM     22  C   UNL     1       1.412   4.248  17.949  0.00  0.00    +0.000 C 
ATOM     23  C   UNL     1       2.227   4.795  19.119  0.00  0.00    +0.000 C 
ENDBRANCH  15  16
ENDBRANCH  13  15
ENDBRANCH   2  13
TORSDOF 4
ENDMDL
MODEL 8
REMARK VINA RESULT:      -6.9      2.635      5.808
REMARK  Name = 
REMARK  6 active torsions:
REMARK  status: ('A' for Active; 'I' for Inactive)
REMARK    1  A    between atoms: C_1  and  C_2
REMARK    2  A    between atoms: C_2  and  C_3
REMARK    3  A    between atoms: C_2  and  N_4
REMARK    4  A    between atoms: C_2  and  C_14
REMARK    5  A    between atoms: N_4  and  C_5
REMARK    6  A    between atoms: C_5  and  C_6
REMARK                            x       y       z     vdW  Elec       q    Type
REMARK                         _______ _______ _______ _____ _____    ______ ____
ROOT
ATOM      1  C   UNL     1       4.138   3.359  19.944  0.00  0.00    +0.000 C 
ATOM      2  C   UNL     1       3.548   3.438  18.513  0.00  0.00    +0.000 C 
ATOM      3  C   UNL     1       3.082   2.015  18.119  0.00  0.00    +0.000 C 
ENDROOT
BRANCH   2   4
ATOM      4  C   UNL     1       4.679   3.959  17.587  0.00  0.00    +0.000 A 
ATOM      5  C   UNL     1       5.919   4.372  18.153  0.00  0.00    +0.000 A 
ATOM      6  C   UNL     1       7.017   4.721  17.354  0.00  0.00    +0.000 A 
ATOM      7  C   UNL     1       6.860   4.669  15.989  0.00  0.00    +0.000 A 
ATOM      8  C   UNL     1       5.664   4.312  15.420  0.00  0.00    +0.000 A 
ATOM      9  C   UNL     1       4.565   3.962  16.183  0.00  0.00    +0.000 A 
ATOM     10  O   UNL     1       5.712   4.319  14.062  0.00  0.00    +0.000 OA
ATOM     11  C   UNL     1       7.075   4.737  13.841  0.00  0.00    +0.000 C 
ATOM     12  O   UNL     1       7.815   4.943  15.062  0.00  0.00    +0.000 OA
ENDBRANCH   2   4
BRANCH   2  13
ATOM     13  N   UNL     1       2.409   4.393  18.482  0.00  0.00    +0.000 NA
ATOM     14  H   UNL     1       1.786   4.182  19.269  0.00  0.00    +0.000 HD
BRANCH  13  15
ATOM     15  C   UNL     1       2.792   5.814  18.582  0.00  0.00    +0.000 C 
BRANCH  15  16
ATOM     16  C   UNL     1       2.057   6.508  19.736  0.00  0.00    +0.000 C 
ATOM     17  O   UNL     1       1.649   5.836  20.688  0.00  0.00    +0.000 OA
ATOM     18  N   UNL     1       1.928   7.892  19.695  0.00  0.00    +0.000 N 
ATOM     19  C   UNL     1       1.440   8.607  20.872  0.00  0.00    +0.000 C 
ATOM     20  C   UNL     1       0.146   9.353  20.565  0.00  0.00    +0.000 C 
ATOM     21  C   UNL     1       0.303  10.248  19.337  0.00  0.00    +0.000 C 
ATOM     22  C   UNL     1       0.841   9.457  18.145  0.00  0.00    +0.000 C 
ATOM     23  C   UNL     1       2.129   8.719  18.505  0.00  0.00    +0.000 C 
ENDBRANCH  15  16
ENDBRANCH  13  15
ENDBRANCH   2  13
TORSDOF 4
ENDMDL
MODEL 9
REMARK VINA RESULT:      -6.9      1.674      4.409
REMARK  Name = 
REMARK  6 active torsions:
REMARK  status: ('A' for Active; 'I' for Inactive)
REMARK    1  A    between atoms: C_1  and  C_2
REMARK    2  A    between atoms: C_2  and  C_3
REMARK    3  A    between atoms: C_2  and  N_4
REMARK    4  A    between atoms: C_2  and  C_14
REMARK    5  A    between atoms: N_4  and  C_5
REMARK    6  A    between atoms: C_5  and  C_6
REMARK                            x       y       z     vdW  Elec       q    Type
REMARK                         _______ _______ _______ _____ _____    ______ ____
ROOT
ATOM      1  C   UNL     1       1.189   3.225  18.554  0.00  0.00    +0.000 C 
ATOM      2  C   UNL     1       2.586   3.896  18.516  0.00  0.00    +0.000 C 
ATOM      3  C   UNL     1       3.483   3.168  19.547  0.00  0.00    +0.000 C 
ENDROOT
BRANCH   2   4
ATOM      4  C   UNL     1       2.378   5.390  18.878  0.00  0.00    +0.000 A 
ATOM      5  C   UNL     1       2.474   6.383  17.860  0.00  0.00    +0.000 A 
ATOM      6  C   UNL     1       2.162   7.727  18.106  0.00  0.00    +0.000 A 
ATOM      7  C   UNL     1       1.770   8.073  19.378  0.00  0.00    +0.000 A 
ATOM      8  C   UNL     1       1.707   7.144  20.384  0.00  0.00    +0.000 A 
ATOM      9  C   UNL     1       2.007   5.811  20.171  0.00  0.00    +0.000 A 
ATOM     10  O   UNL     1       1.296   7.681  21.564  0.00  0.00    +0.000 OA
ATOM     11  C   UNL     1       1.123   9.062  21.185  0.00  0.00    +0.000 C 
ATOM     12  O   UNL     1       1.404   9.315  19.793  0.00  0.00    +0.000 OA
ENDBRANCH   2   4
BRANCH   2  13
ATOM     13  N   UNL     1       3.164   3.797  17.151  0.00  0.00    +0.000 NA
ATOM     14  H   UNL     1       2.911   4.642  16.628  0.00  0.00    +0.000 HD
BRANCH  13  15
ATOM     15  C   UNL     1       4.634   3.671  17.111  0.00  0.00    +0.000 C 
BRANCH  15  16
ATOM     16  C   UNL     1       5.290   4.966  16.614  0.00  0.00    +0.000 C 
ATOM     17  O   UNL     1       5.259   5.239  15.410  0.00  0.00    +0.000 OA
ATOM     18  N   UNL     1       5.849   5.822  17.556  0.00  0.00    +0.000 N 
ATOM     19  C   UNL     1       6.276   7.160  17.151  0.00  0.00    +0.000 C 
ATOM     20  C   UNL     1       7.773   7.350  17.376  0.00  0.00    +0.000 C 
ATOM     21  C   UNL     1       8.164   6.999  18.811  0.00  0.00    +0.000 C 
ATOM     22  C   UNL     1       7.669   5.604  19.190  0.00  0.00    +0.000 C 
ATOM     23  C   UNL     1       6.170   5.459  18.936  0.00  0.00    +0.000 C 
ENDBRANCH  15  16
ENDBRANCH  13  15
ENDBRANCH   2  13
TORSDOF 4
ENDMDL
