MODEL 1
REMARK VINA RESULT:      -7.8      0.000      0.000
REMARK  Name = 
REMARK  10 active torsions:
REMARK  status: ('A' for Active; 'I' for Inactive)
REMARK    1  A    between atoms: C_1  and  O_2
REMARK    2  A    between atoms: O_2  and  C_3
REMARK    3  A    between atoms: C_8  and  N_9
REMARK    4  A    between atoms: N_9  and  C_10
REMARK    5  A    between atoms: C_13  and  N_14
REMARK    6  A    between atoms: N_14  and  S_15
REMARK    7  A    between atoms: S_15  and  C_16
REMARK    8  A    between atoms: C_20  and  N_21
REMARK    9  A    between atoms: N_21  and  C_22
REMARK   10  A    between atoms: N_21  and  C_23
REMARK                            x       y       z     vdW  Elec       q    Type
REMARK                         _______ _______ _______ _____ _____    ______ ____
ROOT
ATOM      1  C   UNL     1      -3.920  11.299  17.525  0.00  0.00    +0.000 A 
ATOM      2  C   UNL     1      -3.527  10.565  16.397  0.00  0.00    +0.000 A 
ATOM      3  C   UNL     1      -2.290   9.953  16.370  0.00  0.00    +0.000 A 
ATOM      4  C   UNL     1      -1.426  10.143  17.433  0.00  0.00    +0.000 A 
ATOM      5  C   UNL     1      -1.730  11.007  18.517  0.00  0.00    +0.000 A 
ATOM      6  C   UNL     1      -0.783  11.354  19.532  0.00  0.00    +0.000 A 
ATOM      7  C   UNL     1      -1.225  12.080  20.673  0.00  0.00    +0.000 A 
ATOM      8  C   UNL     1      -0.399  12.435  21.769  0.00  0.00    +0.000 A 
ATOM      9  C   UNL     1      -0.914  13.113  22.876  0.00  0.00    +0.000 A 
ATOM     10  C   UNL     1      -2.258  13.464  22.885  0.00  0.00    +0.000 A 
ATOM     11 CL   UNL     1      -2.914  14.284  24.249  0.00  0.00    +0.000 Cl
ATOM     12  C   UNL     1      -3.071  13.158  21.799  0.00  0.00    +0.000 A 
ATOM     13  C   UNL     1      -2.578  12.475  20.695  0.00  0.00    +0.000 A 
ATOM     14  N   UNL     1      -3.427  12.236  19.687  0.00  0.00    +0.000 NA
ATOM     15  C   UNL     1      -3.035  11.531  18.604  0.00  0.00    +0.000 A 
ENDROOT
BRANCH   1  17
ATOM     16  C   UNL     1      -6.185  11.046  18.175  0.00  0.00    +0.000 C 
ATOM     17  O   UNL     1      -5.174  11.874  17.606  0.00  0.00    +0.000 OA
ENDBRANCH   1  17
BRANCH   6  18
ATOM     18  N   UNL     1       0.617  11.109  19.347  0.00  0.00    +0.000 N 
ATOM     19  H   UNL     1       1.217  11.912  19.226  0.00  0.00    +0.000 HD
BRANCH  18  20
ATOM     20  C   UNL     1       1.298   9.869  19.191  0.00  0.00    +0.000 A 
ATOM     21  C   UNL     1       1.953   9.624  17.959  0.00  0.00    +0.000 A 
ATOM     22  C   UNL     1       2.419   8.364  17.610  0.00  0.00    +0.000 A 
ATOM     23  C   UNL     1       2.258   7.321  18.500  0.00  0.00    +0.000 A 
ATOM     24  C   UNL     1       1.720   7.559  19.771  0.00  0.00    +0.000 A 
ATOM     25  C   UNL     1       1.228   8.831  20.168  0.00  0.00    +0.000 A 
BRANCH  25  26
ATOM     26  N   UNL     1       0.706   8.997  21.452  0.00  0.00    +0.000 N 
ATOM     27  C   UNL     1       1.573   9.383  22.569  0.00  0.00    +0.000 C 
ATOM     28  C   UNL     1      -0.630   8.563  21.837  0.00  0.00    +0.000 C 
ENDBRANCH  25  26
BRANCH  23  29
ATOM     29  N   UNL     1       2.631   6.009  18.088  0.00  0.00    +0.000 N 
ATOM     30  H   UNL     1       2.043   5.249  18.432  0.00  0.00    +0.000 HD
BRANCH  29  31
ATOM     31  S   UNL     1       4.256   5.568  18.158  0.00  0.00    +0.000 S 
ATOM     32  C   UNL     1       4.186   3.857  17.664  0.00  0.00    +0.000 C 
ATOM     33  O   UNL     1       5.011   6.317  17.181  0.00  0.00    +0.000 OA
ATOM     34  O   UNL     1       4.604   5.604  19.562  0.00  0.00    +0.000 OA
ENDBRANCH  29  31
ENDBRANCH  23  29
ENDBRANCH  18  20
ENDBRANCH   6  18
TORSDOF 6
ENDMDL
MODEL 2
REMARK VINA RESULT:      -6.6      2.983      4.312
REMARK  Name = 
REMARK  10 active torsions:
REMARK  status: ('A' for Active; 'I' for Inactive)
REMARK    1  A    between atoms: C_1  and  O_2
REMARK    2  A    between atoms: O_2  and  C_3
REMARK    3  A    between atoms: C_8  and  N_9
REMARK    4  A    between atoms: N_9  and  C_10
REMARK    5  A    between atoms: C_13  and  N_14
REMARK    6  A    between atoms: N_14  and  S_15
REMARK    7  A    between atoms: S_15  and  C_16
REMARK    8  A    between atoms: C_20  and  N_21
REMARK    9  A    between atoms: N_21  and  C_22
REMARK   10  A    between atoms: N_21  and  C_23
REMARK                            x       y       z     vdW  Elec       q    Type
REMARK                         _______ _______ _______ _____ _____    ______ ____
ROOT
ATOM      1  C   UNL     1       2.954  14.620  19.849  0.00  0.00    +0.000 A 
ATOM      2  C   UNL     1       3.726  14.269  18.732  0.00  0.00    +0.000 A 
ATOM      3  C   UNL     1       3.315  13.244  17.905  0.00  0.00    +0.000 A 
ATOM      4  C   UNL     1       2.181  12.526  18.241  0.00  0.00    +0.000 A 
ATOM      5  C   UNL     1       1.467  12.752  19.447  0.00  0.00    +0.000 A 
ATOM      6  C   UNL     1       0.403  11.907  19.897  0.00  0.00    +0.000 A 
ATOM      7  C   UNL     1      -0.372  12.308  21.020  0.00  0.00    +0.000 A 
ATOM      8  C   UNL     1      -1.483  11.589  21.528  0.00  0.00    +0.000 A 
ATOM      9  C   UNL     1      -2.223  12.067  22.612  0.00  0.00    +0.000 A 
ATOM     10  C   UNL     1      -1.843  13.260  23.213  0.00  0.00    +0.000 A 
ATOM     11 CL   UNL     1      -2.754  13.874  24.538  0.00  0.00    +0.000 Cl
ATOM     12  C   UNL     1      -0.730  13.956  22.751  0.00  0.00    +0.000 A 
ATOM     13  C   UNL     1       0.011  13.500  21.668  0.00  0.00    +0.000 A 
ATOM     14  N   UNL     1       1.075  14.224  21.301  0.00  0.00    +0.000 NA
ATOM     15  C   UNL     1       1.813  13.874  20.225  0.00  0.00    +0.000 A 
ENDROOT
BRANCH   1  17
ATOM     16  C   UNL     1       4.650  15.649  21.145  0.00  0.00    +0.000 C 
ATOM     17  O   UNL     1       3.309  15.679  20.662  0.00  0.00    +0.000 OA
ENDBRANCH   1  17
BRANCH   6  18
ATOM     18  N   UNL     1       0.204  10.607  19.326  0.00  0.00    +0.000 N 
ATOM     19  H   UNL     1      -0.731  10.368  19.031  0.00  0.00    +0.000 HD
BRANCH  18  20
ATOM     20  C   UNL     1       1.125   9.528  19.210  0.00  0.00    +0.000 A 
ATOM     21  C   UNL     1       1.766   9.337  17.961  0.00  0.00    +0.000 A 
ATOM     22  C   UNL     1       2.473   8.182  17.664  0.00  0.00    +0.000 A 
ATOM     23  C   UNL     1       2.575   7.195  18.624  0.00  0.00    +0.000 A 
ATOM     24  C   UNL     1       2.052   7.405  19.906  0.00  0.00    +0.000 A 
ATOM     25  C   UNL     1       1.318   8.571  20.251  0.00  0.00    +0.000 A 
BRANCH  25  26
ATOM     26  N   UNL     1       0.827   8.716  21.550  0.00  0.00    +0.000 N 
ATOM     27  C   UNL     1      -0.544   8.317  21.882  0.00  0.00    +0.000 C 
ATOM     28  C   UNL     1       1.506   9.487  22.582  0.00  0.00    +0.000 C 
ENDBRANCH  25  26
BRANCH  23  29
ATOM     29  N   UNL     1       3.200   5.963  18.274  0.00  0.00    +0.000 N 
ATOM     30  H   UNL     1       3.744   5.968  17.410  0.00  0.00    +0.000 HD
BRANCH  29  31
ATOM     31  S   UNL     1       2.309   4.538  18.395  0.00  0.00    +0.000 S 
ATOM     32  C   UNL     1       3.463   3.336  17.763  0.00  0.00    +0.000 C 
ATOM     33  O   UNL     1       2.030   4.248  19.783  0.00  0.00    +0.000 OA
ATOM     34  O   UNL     1       1.240   4.669  17.429  0.00  0.00    +0.000 OA
ENDBRANCH  29  31
ENDBRANCH  23  29
ENDBRANCH  18  20
ENDBRANCH   6  18
TORSDOF 6
ENDMDL
MODEL 3
REMARK VINA RESULT:      -6.5      4.744      7.800
REMARK  Name = 
REMARK  10 active torsions:
REMARK  status: ('A' for Active; 'I' for Inactive)
REMARK    1  A    between atoms: C_1  and  O_2
REMARK    2  A    between atoms: O_2  and  C_3
REMARK    3  A    between atoms: C_8  and  N_9
REMARK    4  A    between atoms: N_9  and  C_10
REMARK    5  A    between atoms: C_13  and  N_14
REMARK    6  A    between atoms: N_14  and  S_15
REMARK    7  A    between atoms: S_15  and  C_16
REMARK    8  A    between atoms: C_20  and  N_21
REMARK    9  A    between atoms: N_21  and  C_22
REMARK   10  A    between atoms: N_21  and  C_23
REMARK                            x       y       z     vdW  Elec       q    Type
REMARK                         _______ _______ _______ _____ _____    ______ ____
ROOT
ATOM      1  C   UNL     1       0.944   8.753  20.005  0.00  0.00    +0.000 A 
ATOM      2  C   UNL     1       0.953   9.959  19.290  0.00  0.00    +0.000 A 
ATOM      3  C   UNL     1       1.744  10.089  18.167  0.00  0.00    +0.000 A 
ATOM      4  C   UNL     1       2.577   9.043  17.811  0.00  0.00    +0.000 A 
ATOM      5  C   UNL     1       2.709   7.871  18.601  0.00  0.00    +0.000 A 
ATOM      6  C   UNL     1       3.691   6.862  18.347  0.00  0.00    +0.000 A 
ATOM      7  C   UNL     1       3.636   5.642  19.076  0.00  0.00    +0.000 A 
ATOM      8  C   UNL     1       4.514   4.547  18.879  0.00  0.00    +0.000 A 
ATOM      9  C   UNL     1       4.372   3.363  19.605  0.00  0.00    +0.000 A 
ATOM     10  C   UNL     1       3.362   3.272  20.554  0.00  0.00    +0.000 A 
ATOM     11 CL   UNL     1       3.160   1.814  21.446  0.00  0.00    +0.000 Cl
ATOM     12  C   UNL     1       2.518   4.354  20.787  0.00  0.00    +0.000 A 
ATOM     13  C   UNL     1       2.639   5.534  20.066  0.00  0.00    +0.000 A 
ATOM     14  N   UNL     1       1.795   6.530  20.367  0.00  0.00    +0.000 NA
ATOM     15  C   UNL     1       1.815   7.688  19.673  0.00  0.00    +0.000 A 
ENDROOT
BRANCH   1  17
ATOM     16  C   UNL     1      -0.251   9.768  21.781  0.00  0.00    +0.000 C 
ATOM     17  O   UNL     1       0.120   8.573  21.098  0.00  0.00    +0.000 OA
ENDBRANCH   1  17
BRANCH   6  18
ATOM     18  N   UNL     1       4.805   7.120  17.480  0.00  0.00    +0.000 N 
ATOM     19  H   UNL     1       5.209   8.044  17.507  0.00  0.00    +0.000 HD
BRANCH  18  20
ATOM     20  C   UNL     1       5.374   6.284  16.479  0.00  0.00    +0.000 A 
ATOM     21  C   UNL     1       4.580   5.969  15.349  0.00  0.00    +0.000 A 
ATOM     22  C   UNL     1       4.934   4.970  14.454  0.00  0.00    +0.000 A 
ATOM     23  C   UNL     1       6.110   4.275  14.659  0.00  0.00    +0.000 A 
ATOM     24  C   UNL     1       6.971   4.643  15.700  0.00  0.00    +0.000 A 
ATOM     25  C   UNL     1       6.646   5.656  16.640  0.00  0.00    +0.000 A 
BRANCH  25  26
ATOM     26  N   UNL     1       7.554   5.973  17.652  0.00  0.00    +0.000 N 
ATOM     27  C   UNL     1       8.002   4.953  18.604  0.00  0.00    +0.000 C 
ATOM     28  C   UNL     1       7.917   7.339  18.004  0.00  0.00    +0.000 C 
ENDBRANCH  25  26
BRANCH  23  29
ATOM     29  N   UNL     1       6.408   3.173  13.806  0.00  0.00    +0.000 N 
ATOM     30  H   UNL     1       7.232   2.625  14.056  0.00  0.00    +0.000 HD
BRANCH  29  31
ATOM     31  S   UNL     1       6.341   3.399  12.137  0.00  0.00    +0.000 S 
ATOM     32  C   UNL     1       7.145   1.924  11.542  0.00  0.00    +0.000 C 
ATOM     33  O   UNL     1       4.966   3.404  11.696  0.00  0.00    +0.000 OA
ATOM     34  O   UNL     1       7.219   4.516  11.864  0.00  0.00    +0.000 OA
ENDBRANCH  29  31
ENDBRANCH  23  29
ENDBRANCH  18  20
ENDBRANCH   6  18
TORSDOF 6
ENDMDL
MODEL 4
REMARK VINA RESULT:      -6.5      2.861      4.211
REMARK  Name = 
REMARK  10 active torsions:
REMARK  status: ('A' for Active; 'I' for Inactive)
REMARK    1  A    between atoms: C_1  and  O_2
REMARK    2  A    between atoms: O_2  and  C_3
REMARK    3  A    between atoms: C_8  and  N_9
REMARK    4  A    between atoms: N_9  and  C_10
REMARK    5  A    between atoms: C_13  and  N_14
REMARK    6  A    between atoms: N_14  and  S_15
REMARK    7  A    between atoms: S_15  and  C_16
REMARK    8  A    between atoms: C_20  and  N_21
REMARK    9  A    between atoms: N_21  and  C_22
REMARK   10  A    between atoms: N_21  and  C_23
REMARK                            x       y       z     vdW  Elec       q    Type
REMARK                         _______ _______ _______ _____ _____    ______ ____
ROOT
ATOM      1  C   UNL     1       3.040  14.644  19.828  0.00  0.00    +0.000 A 
ATOM      2  C   UNL     1       3.788  14.271  18.702  0.00  0.00    +0.000 A 
ATOM      3  C   UNL     1       3.341  13.255  17.883  0.00  0.00    +0.000 A 
ATOM      4  C   UNL     1       2.194  12.566  18.236  0.00  0.00    +0.000 A 
ATOM      5  C   UNL     1       1.501  12.812  19.451  0.00  0.00    +0.000 A 
ATOM      6  C   UNL     1       0.423  11.995  19.917  0.00  0.00    +0.000 A 
ATOM      7  C   UNL     1      -0.327  12.418  21.048  0.00  0.00    +0.000 A 
ATOM      8  C   UNL     1      -1.449  11.727  21.573  0.00  0.00    +0.000 A 
ATOM      9  C   UNL     1      -2.163  12.226  22.664  0.00  0.00    +0.000 A 
ATOM     10  C   UNL     1      -1.745  13.411  23.258  0.00  0.00    +0.000 A 
ATOM     11 CL   UNL     1      -2.623  14.050  24.592  0.00  0.00    +0.000 Cl
ATOM     12  C   UNL     1      -0.622  14.077  22.779  0.00  0.00    +0.000 A 
ATOM     13  C   UNL     1       0.093  13.601  21.689  0.00  0.00    +0.000 A 
ATOM     14  N   UNL     1       1.171  14.297  21.305  0.00  0.00    +0.000 NA
ATOM     15  C   UNL     1       1.885  13.927  20.221  0.00  0.00    +0.000 A 
ENDROOT
BRANCH   1  17
ATOM     16  C   UNL     1       4.840  15.847  20.791  0.00  0.00    +0.000 C 
ATOM     17  O   UNL     1       3.432  15.695  20.634  0.00  0.00    +0.000 OA
ENDBRANCH   1  17
BRANCH   6  18
ATOM     18  N   UNL     1       0.185  10.699  19.352  0.00  0.00    +0.000 N 
ATOM     19  H   UNL     1      -0.765  10.472  19.096  0.00  0.00    +0.000 HD
BRANCH  18  20
ATOM     20  C   UNL     1       1.087   9.609  19.194  0.00  0.00    +0.000 A 
ATOM     21  C   UNL     1       1.696   9.433  17.927  0.00  0.00    +0.000 A 
ATOM     22  C   UNL     1       2.380   8.273  17.593  0.00  0.00    +0.000 A 
ATOM     23  C   UNL     1       2.489   7.267  18.532  0.00  0.00    +0.000 A 
ATOM     24  C   UNL     1       1.998   7.461  19.829  0.00  0.00    +0.000 A 
ATOM     25  C   UNL     1       1.290   8.631  20.212  0.00  0.00    +0.000 A 
BRANCH  25  26
ATOM     26  N   UNL     1       0.831   8.759  21.525  0.00  0.00    +0.000 N 
ATOM     27  C   UNL     1      -0.539   8.379  21.880  0.00  0.00    +0.000 C 
ATOM     28  C   UNL     1       1.548   9.495  22.557  0.00  0.00    +0.000 C 
ENDBRANCH  25  26
BRANCH  23  29
ATOM     29  N   UNL     1       3.088   6.033  18.144  0.00  0.00    +0.000 N 
ATOM     30  H   UNL     1       2.698   5.193  18.573  0.00  0.00    +0.000 HD
BRANCH  29  31
ATOM     31  S   UNL     1       4.769   5.932  18.085  0.00  0.00    +0.000 S 
ATOM     32  C   UNL     1       5.007   4.499  17.053  0.00  0.00    +0.000 C 
ATOM     33  O   UNL     1       5.309   7.095  17.418  0.00  0.00    +0.000 OA
ATOM     34  O   UNL     1       5.181   5.579  19.426  0.00  0.00    +0.000 OA
ENDBRANCH  29  31
ENDBRANCH  23  29
ENDBRANCH  18  20
ENDBRANCH   6  18
TORSDOF 6
ENDMDL
MODEL 5
REMARK VINA RESULT:      -6.5      4.135      9.009
REMARK  Name = 
REMARK  10 active torsions:
REMARK  status: ('A' for Active; 'I' for Inactive)
REMARK    1  A    between atoms: C_1  and  O_2
REMARK    2  A    between atoms: O_2  and  C_3
REMARK    3  A    between atoms: C_8  and  N_9
REMARK    4  A    between atoms: N_9  and  C_10
REMARK    5  A    between atoms: C_13  and  N_14
REMARK    6  A    between atoms: N_14  and  S_15
REMARK    7  A    between atoms: S_15  and  C_16
REMARK    8  A    between atoms: C_20  and  N_21
REMARK    9  A    between atoms: N_21  and  C_22
REMARK   10  A    between atoms: N_21  and  C_23
REMARK                            x       y       z     vdW  Elec       q    Type
REMARK                         _______ _______ _______ _____ _____    ______ ____
ROOT
ATOM      1  C   UNL     1       2.900   2.487  20.043  0.00  0.00    +0.000 A 
ATOM      2  C   UNL     1       1.981   2.533  21.101  0.00  0.00    +0.000 A 
ATOM      3  C   UNL     1       1.305   3.704  21.377  0.00  0.00    +0.000 A 
ATOM      4  C   UNL     1       1.609   4.840  20.647  0.00  0.00    +0.000 A 
ATOM      5  C   UNL     1       2.646   4.868  19.678  0.00  0.00    +0.000 A 
ATOM      6  C   UNL     1       3.092   6.070  19.043  0.00  0.00    +0.000 A 
ATOM      7  C   UNL     1       4.008   5.982  17.959  0.00  0.00    +0.000 A 
ATOM      8  C   UNL     1       4.482   7.092  17.214  0.00  0.00    +0.000 A 
ATOM      9  C   UNL     1       5.350   6.923  16.133  0.00  0.00    +0.000 A 
ATOM     10  C   UNL     1       5.771   5.641  15.801  0.00  0.00    +0.000 A 
ATOM     11 CL   UNL     1       6.826   5.412  14.461  0.00  0.00    +0.000 Cl
ATOM     12  C   UNL     1       5.346   4.547  16.548  0.00  0.00    +0.000 A 
ATOM     13  C   UNL     1       4.475   4.696  17.619  0.00  0.00    +0.000 A 
ATOM     14  N   UNL     1       4.131   3.591  18.293  0.00  0.00    +0.000 NA
ATOM     15  C   UNL     1       3.247   3.648  19.312  0.00  0.00    +0.000 A 
ENDROOT
BRANCH   1  17
ATOM     16  C   UNL     1       4.837   1.146  20.292  0.00  0.00    +0.000 C 
ATOM     17  O   UNL     1       3.549   1.315  19.706  0.00  0.00    +0.000 OA
ENDBRANCH   1  17
BRANCH   6  18
ATOM     18  N   UNL     1       2.745   7.356  19.575  0.00  0.00    +0.000 N 
ATOM     19  H   UNL     1       3.284   7.695  20.357  0.00  0.00    +0.000 HD
BRANCH  18  20
ATOM     20  C   UNL     1       1.655   8.204  19.230  0.00  0.00    +0.000 A 
ATOM     21  C   UNL     1       1.428   8.465  17.857  0.00  0.00    +0.000 A 
ATOM     22  C   UNL     1       0.570   9.467  17.428  0.00  0.00    +0.000 A 
ATOM     23  C   UNL     1      -0.103  10.219  18.371  0.00  0.00    +0.000 A 
ATOM     24  C   UNL     1       0.012   9.907  19.731  0.00  0.00    +0.000 A 
ATOM     25  C   UNL     1       0.882   8.892  20.213  0.00  0.00    +0.000 A 
BRANCH  25  26
ATOM     26  N   UNL     1       0.944   8.632  21.583  0.00  0.00    +0.000 N 
ATOM     27  C   UNL     1      -0.205   8.060  22.290  0.00  0.00    +0.000 C 
ATOM     28  C   UNL     1       2.009   9.128  22.445  0.00  0.00    +0.000 C 
ENDBRANCH  25  26
BRANCH  23  29
ATOM     29  N   UNL     1      -0.891  11.322  17.929  0.00  0.00    +0.000 N 
ATOM     30  H   UNL     1      -0.840  12.165  18.502  0.00  0.00    +0.000 HD
BRANCH  29  31
ATOM     31  S   UNL     1      -2.480  11.039  17.443  0.00  0.00    +0.000 S 
ATOM     32  C   UNL     1      -3.397  11.982  18.646  0.00  0.00    +0.000 C 
ATOM     33  O   UNL     1      -2.700  11.599  16.130  0.00  0.00    +0.000 OA
ATOM     34  O   UNL     1      -2.720   9.638  17.710  0.00  0.00    +0.000 OA
ENDBRANCH  29  31
ENDBRANCH  23  29
ENDBRANCH  18  20
ENDBRANCH   6  18
TORSDOF 6
ENDMDL
MODEL 6
REMARK VINA RESULT:      -6.4      3.332      4.551
REMARK  Name = 
REMARK  10 active torsions:
REMARK  status: ('A' for Active; 'I' for Inactive)
REMARK    1  A    between atoms: C_1  and  O_2
REMARK    2  A    between atoms: O_2  and  C_3
REMARK    3  A    between atoms: C_8  and  N_9
REMARK    4  A    between atoms: N_9  and  C_10
REMARK    5  A    between atoms: C_13  and  N_14
REMARK    6  A    between atoms: N_14  and  S_15
REMARK    7  A    between atoms: S_15  and  C_16
REMARK    8  A    between atoms: C_20  and  N_21
REMARK    9  A    between atoms: N_21  and  C_22
REMARK   10  A    between atoms: N_21  and  C_23
REMARK                            x       y       z     vdW  Elec       q    Type
REMARK                         _______ _______ _______ _____ _____    ______ ____
ROOT
ATOM      1  C   UNL     1      -1.206  14.046  22.720  0.00  0.00    +0.000 A 
ATOM      2  C   UNL     1      -2.076  13.127  23.323  0.00  0.00    +0.000 A 
ATOM      3  C   UNL     1      -2.002  11.789  22.993  0.00  0.00    +0.000 A 
ATOM      4  C   UNL     1      -1.116  11.390  22.008  0.00  0.00    +0.000 A 
ATOM      5  C   UNL     1      -0.334  12.315  21.267  0.00  0.00    +0.000 A 
ATOM      6  C   UNL     1       0.451  11.943  20.130  0.00  0.00    +0.000 A 
ATOM      7  C   UNL     1       1.339  12.896  19.560  0.00  0.00    +0.000 A 
ATOM      8  C   UNL     1       2.208  12.634  18.470  0.00  0.00    +0.000 A 
ATOM      9  C   UNL     1       3.084  13.610  17.990  0.00  0.00    +0.000 A 
ATOM     10  C   UNL     1       3.082  14.867  18.581  0.00  0.00    +0.000 A 
ATOM     11 CL   UNL     1       4.167  16.076  18.015  0.00  0.00    +0.000 Cl
ATOM     12  C   UNL     1       2.206  15.150  19.624  0.00  0.00    +0.000 A 
ATOM     13  C   UNL     1       1.336  14.189  20.121  0.00  0.00    +0.000 A 
ATOM     14  N   UNL     1       0.517  14.553  21.116  0.00  0.00    +0.000 NA
ATOM     15  C   UNL     1      -0.319  13.659  21.687  0.00  0.00    +0.000 A 
ENDROOT
BRANCH   1  17
ATOM     16  C   UNL     1      -2.374  15.811  23.784  0.00  0.00    +0.000 C 
ATOM     17  O   UNL     1      -1.216  15.381  23.072  0.00  0.00    +0.000 OA
ENDBRANCH   1  17
BRANCH   6  18
ATOM     18  N   UNL     1       0.249  10.682  19.477  0.00  0.00    +0.000 N 
ATOM     19  H   UNL     1      -0.693  10.449  19.200  0.00  0.00    +0.000 HD
BRANCH  18  20
ATOM     20  C   UNL     1       1.181   9.630  19.251  0.00  0.00    +0.000 A 
ATOM     21  C   UNL     1       1.817   9.570  17.987  0.00  0.00    +0.000 A 
ATOM     22  C   UNL     1       2.535   8.457  17.575  0.00  0.00    +0.000 A 
ATOM     23  C   UNL     1       2.651   7.381  18.433  0.00  0.00    +0.000 A 
ATOM     24  C   UNL     1       2.132   7.459  19.731  0.00  0.00    +0.000 A 
ATOM     25  C   UNL     1       1.388   8.577  20.192  0.00  0.00    +0.000 A 
BRANCH  25  26
ATOM     26  N   UNL     1       0.901   8.589  21.501  0.00  0.00    +0.000 N 
ATOM     27  C   UNL     1      -0.485   8.209  21.789  0.00  0.00    +0.000 C 
ATOM     28  C   UNL     1       1.611   9.205  22.614  0.00  0.00    +0.000 C 
ENDBRANCH  25  26
BRANCH  23  29
ATOM     29  N   UNL     1       3.288   6.196  17.961  0.00  0.00    +0.000 N 
ATOM     30  H   UNL     1       3.544   6.191  16.973  0.00  0.00    +0.000 HD
BRANCH  29  31
ATOM     31  S   UNL     1       2.651   4.701  18.407  0.00  0.00    +0.000 S 
ATOM     32  C   UNL     1       3.698   3.579  17.501  0.00  0.00    +0.000 C 
ATOM     33  O   UNL     1       2.837   4.490  19.824  0.00  0.00    +0.000 OA
ATOM     34  O   UNL     1       1.334   4.650  17.810  0.00  0.00    +0.000 OA
ENDBRANCH  29  31
ENDBRANCH  23  29
ENDBRANCH  18  20
ENDBRANCH   6  18
TORSDOF 6
ENDMDL
MODEL 7
REMARK VINA RESULT:      -6.4      2.674      4.192
REMARK  Name = 
REMARK  10 active torsions:
REMARK  status: ('A' for Active; 'I' for Inactive)
REMARK    1  A    between atoms: C_1  and  O_2
REMARK    2  A    between atoms: O_2  and  C_3
REMARK    3  A    between atoms: C_8  and  N_9
REMARK    4  A    between atoms: N_9  and  C_10
REMARK    5  A    between atoms: C_13  and  N_14
REMARK    6  A    between atoms: N_14  and  S_15
REMARK    7  A    between atoms: S_15  and  C_16
REMARK    8  A    between atoms: C_20  and  N_21
REMARK    9  A    between atoms: N_21  and  C_22
REMARK   10  A    between atoms: N_21  and  C_23
REMARK                            x       y       z     vdW  Elec       q    Type
REMARK                         _______ _______ _______ _____ _____    ______ ____
ROOT
ATOM      1  C   UNL     1       0.298  14.137  20.612  0.00  0.00    +0.000 A 
ATOM      2  C   UNL     1       1.686  14.320  20.681  0.00  0.00    +0.000 A 
ATOM      3  C   UNL     1       2.519  13.593  19.856  0.00  0.00    +0.000 A 
ATOM      4  C   UNL     1       1.968  12.634  19.025  0.00  0.00    +0.000 A 
ATOM      5  C   UNL     1       0.585  12.313  19.044  0.00  0.00    +0.000 A 
ATOM      6  C   UNL     1       0.027  11.209  18.326  0.00  0.00    +0.000 A 
ATOM      7  C   UNL     1      -1.386  11.070  18.258  0.00  0.00    +0.000 A 
ATOM      8  C   UNL     1      -2.061  10.054  17.535  0.00  0.00    +0.000 A 
ATOM      9  C   UNL     1      -3.455  10.005  17.481  0.00  0.00    +0.000 A 
ATOM     10  C   UNL     1      -4.190  10.961  18.171  0.00  0.00    +0.000 A 
ATOM     11 CL   UNL     1      -5.909  10.928  18.101  0.00  0.00    +0.000 Cl
ATOM     12  C   UNL     1      -3.542  11.939  18.918  0.00  0.00    +0.000 A 
ATOM     13  C   UNL     1      -2.156  12.009  18.975  0.00  0.00    +0.000 A 
ATOM     14  N   UNL     1      -1.617  12.973  19.731  0.00  0.00    +0.000 NA
ATOM     15  C   UNL     1      -0.278  13.137  19.793  0.00  0.00    +0.000 A 
ENDROOT
BRANCH   1  17
ATOM     16  C   UNL     1      -0.632  16.273  21.041  0.00  0.00    +0.000 C 
ATOM     17  O   UNL     1      -0.565  14.891  21.383  0.00  0.00    +0.000 OA
ENDBRANCH   1  17
BRANCH   6  18
ATOM     18  N   UNL     1       0.868  10.172  17.801  0.00  0.00    +0.000 N 
ATOM     19  H   UNL     1       0.928  10.088  16.797  0.00  0.00    +0.000 HD
BRANCH  18  20
ATOM     20  C   UNL     1       1.563   9.143  18.497  0.00  0.00    +0.000 A 
ATOM     21  C   UNL     1       2.493   8.364  17.768  0.00  0.00    +0.000 A 
ATOM     22  C   UNL     1       3.027   7.187  18.274  0.00  0.00    +0.000 A 
ATOM     23  C   UNL     1       2.655   6.774  19.538  0.00  0.00    +0.000 A 
ATOM     24  C   UNL     1       1.828   7.583  20.326  0.00  0.00    +0.000 A 
ATOM     25  C   UNL     1       1.258   8.792  19.846  0.00  0.00    +0.000 A 
BRANCH  25  26
ATOM     26  N   UNL     1       0.444   9.552  20.689  0.00  0.00    +0.000 N 
ATOM     27  C   UNL     1       1.027  10.525  21.617  0.00  0.00    +0.000 C 
ATOM     28  C   UNL     1      -0.969   9.271  20.905  0.00  0.00    +0.000 C 
ENDBRANCH  25  26
BRANCH  23  29
ATOM     29  N   UNL     1       3.112   5.507  20.004  0.00  0.00    +0.000 N 
ATOM     30  H   UNL     1       4.091   5.288  19.814  0.00  0.00    +0.000 HD
BRANCH  29  31
ATOM     31  S   UNL     1       2.148   4.150  19.741  0.00  0.00    +0.000 S 
ATOM     32  C   UNL     1       3.153   2.854  20.438  0.00  0.00    +0.000 C 
ATOM     33  O   UNL     1       0.923   4.263  20.497  0.00  0.00    +0.000 OA
ATOM     34  O   UNL     1       2.128   3.965  18.306  0.00  0.00    +0.000 OA
ENDBRANCH  29  31
ENDBRANCH  23  29
ENDBRANCH  18  20
ENDBRANCH   6  18
TORSDOF 6
ENDMDL
MODEL 8
REMARK VINA RESULT:      -6.4      2.896      4.172
REMARK  Name = 
REMARK  10 active torsions:
REMARK  status: ('A' for Active; 'I' for Inactive)
REMARK    1  A    between atoms: C_1  and  O_2
REMARK    2  A    between atoms: O_2  and  C_3
REMARK    3  A    between atoms: C_8  and  N_9
REMARK    4  A    between atoms: N_9  and  C_10
REMARK    5  A    between atoms: C_13  and  N_14
REMARK    6  A    between atoms: N_14  and  S_15
REMARK    7  A    between atoms: S_15  and  C_16
REMARK    8  A    between atoms: C_20  and  N_21
REMARK    9  A    between atoms: N_21  and  C_22
REMARK   10  A    between atoms: N_21  and  C_23
REMARK                            x       y       z     vdW  Elec       q    Type
REMARK                         _______ _______ _______ _____ _____    ______ ____
ROOT
ATOM      1  C   UNL     1       2.254  14.914  19.669  0.00  0.00    +0.000 A 
ATOM      2  C   UNL     1       3.450  14.535  19.044  0.00  0.00    +0.000 A 
ATOM      3  C   UNL     1       3.473  13.438  18.207  0.00  0.00    +0.000 A 
ATOM      4  C   UNL     1       2.323  12.683  18.062  0.00  0.00    +0.000 A 
ATOM      5  C   UNL     1       1.140  12.946  18.802  0.00  0.00    +0.000 A 
ATOM      6  C   UNL     1       0.005  12.076  18.800  0.00  0.00    +0.000 A 
ATOM      7  C   UNL     1      -1.198  12.505  19.425  0.00  0.00    +0.000 A 
ATOM      8  C   UNL     1      -2.405  11.760  19.443  0.00  0.00    +0.000 A 
ATOM      9  C   UNL     1      -3.560  12.266  20.042  0.00  0.00    +0.000 A 
ATOM     10  C   UNL     1      -3.513  13.513  20.651  0.00  0.00    +0.000 A 
ATOM     11 CL   UNL     1      -4.932  14.160  21.378  0.00  0.00    +0.000 Cl
ATOM     12  C   UNL     1      -2.325  14.237  20.676  0.00  0.00    +0.000 A 
ATOM     13  C   UNL     1      -1.170  13.755  20.076  0.00  0.00    +0.000 A 
ATOM     14  N   UNL     1      -0.068  14.510  20.162  0.00  0.00    +0.000 NA
ATOM     15  C   UNL     1       1.080  14.133  19.558  0.00  0.00    +0.000 A 
ENDROOT
BRANCH   1  17
ATOM     16  C   UNL     1       2.854  15.936  21.721  0.00  0.00    +0.000 C 
ATOM     17  O   UNL     1       2.186  16.040  20.466  0.00  0.00    +0.000 OA
ENDBRANCH   1  17
BRANCH   6  18
ATOM     18  N   UNL     1       0.108  10.732  18.308  0.00  0.00    +0.000 N 
ATOM     19  H   UNL     1      -0.614  10.412  17.680  0.00  0.00    +0.000 HD
BRANCH  18  20
ATOM     20  C   UNL     1       1.038   9.716  18.666  0.00  0.00    +0.000 A 
ATOM     21  C   UNL     1       1.884   9.207  17.650  0.00  0.00    +0.000 A 
ATOM     22  C   UNL     1       2.635   8.053  17.825  0.00  0.00    +0.000 A 
ATOM     23  C   UNL     1       2.571   7.392  19.036  0.00  0.00    +0.000 A 
ATOM     24  C   UNL     1       1.835   7.935  20.095  0.00  0.00    +0.000 A 
ATOM     25  C   UNL     1       1.050   9.111  19.958  0.00  0.00    +0.000 A 
BRANCH  25  26
ATOM     26  N   UNL     1       0.342   9.599  21.058  0.00  0.00    +0.000 N 
ATOM     27  C   UNL     1       0.823  10.767  21.801  0.00  0.00    +0.000 C 
ATOM     28  C   UNL     1      -0.741   8.868  21.702  0.00  0.00    +0.000 C 
ENDBRANCH  25  26
BRANCH  23  29
ATOM     29  N   UNL     1       3.250   6.145  19.169  0.00  0.00    +0.000 N 
ATOM     30  H   UNL     1       4.095   6.034  18.607  0.00  0.00    +0.000 HD
BRANCH  29  31
ATOM     31  S   UNL     1       2.345   4.724  19.152  0.00  0.00    +0.000 S 
ATOM     32  C   UNL     1       3.618   3.485  19.298  0.00  0.00    +0.000 C 
ATOM     33  O   UNL     1       1.491   4.669  20.315  0.00  0.00    +0.000 OA
ATOM     34  O   UNL     1       1.797   4.633  17.816  0.00  0.00    +0.000 OA
ENDBRANCH  29  31
ENDBRANCH  23  29
ENDBRANCH  18  20
ENDBRANCH   6  18
TORSDOF 6
ENDMDL
MODEL 9
REMARK VINA RESULT:      -6.3      3.192      4.474
REMARK  Name = 
REMARK  10 active torsions:
REMARK  status: ('A' for Active; 'I' for Inactive)
REMARK    1  A    between atoms: C_1  and  O_2
REMARK    2  A    between atoms: O_2  and  C_3
REMARK    3  A    between atoms: C_8  and  N_9
REMARK    4  A    between atoms: N_9  and  C_10
REMARK    5  A    between atoms: C_13  and  N_14
REMARK    6  A    between atoms: N_14  and  S_15
REMARK    7  A    between atoms: S_15  and  C_16
REMARK    8  A    between atoms: C_20  and  N_21
REMARK    9  A    between atoms: N_21  and  C_22
REMARK   10  A    between atoms: N_21  and  C_23
REMARK                            x       y       z     vdW  Elec       q    Type
REMARK                         _______ _______ _______ _____ _____    ______ ____
ROOT
ATOM      1  C   UNL     1      -1.213  14.161  22.517  0.00  0.00    +0.000 A 
ATOM      2  C   UNL     1      -2.169  13.280  23.042  0.00  0.00    +0.000 A 
ATOM      3  C   UNL     1      -2.145  11.946  22.688  0.00  0.00    +0.000 A 
ATOM      4  C   UNL     1      -1.218  11.518  21.755  0.00  0.00    +0.000 A 
ATOM      5  C   UNL     1      -0.341  12.412  21.087  0.00  0.00    +0.000 A 
ATOM      6  C   UNL     1       0.498  12.018  19.996  0.00  0.00    +0.000 A 
ATOM      7  C   UNL     1       1.472  12.931  19.507  0.00  0.00    +0.000 A 
ATOM      8  C   UNL     1       2.396  12.642  18.471  0.00  0.00    +0.000 A 
ATOM      9  C   UNL     1       3.353  13.577  18.071  0.00  0.00    +0.000 A 
ATOM     10  C   UNL     1       3.379  14.821  18.688  0.00  0.00    +0.000 A 
ATOM     11 CL   UNL     1       4.563  15.979  18.220  0.00  0.00    +0.000 Cl
ATOM     12  C   UNL     1       2.452  15.133  19.677  0.00  0.00    +0.000 A 
ATOM     13  C   UNL     1       1.501  14.212  20.095  0.00  0.00    +0.000 A 
ATOM     14  N   UNL     1       0.637  14.602  21.041  0.00  0.00    +0.000 NA
ATOM     15  C   UNL     1      -0.281  13.745  21.536  0.00  0.00    +0.000 A 
ENDROOT
BRANCH   1  17
ATOM     16  C   UNL     1      -0.625  15.734  24.189  0.00  0.00    +0.000 C 
ATOM     17  O   UNL     1      -1.175  15.488  22.897  0.00  0.00    +0.000 OA
ENDBRANCH   1  17
BRANCH   6  18
ATOM     18  N   UNL     1       0.273  10.783  19.304  0.00  0.00    +0.000 N 
ATOM     19  H   UNL     1      -0.649  10.626  18.923  0.00  0.00    +0.000 HD
BRANCH  18  20
ATOM     20  C   UNL     1       1.140   9.663  19.162  0.00  0.00    +0.000 A 
ATOM     21  C   UNL     1       1.762   9.463  17.905  0.00  0.00    +0.000 A 
ATOM     22  C   UNL     1       2.411   8.280  17.584  0.00  0.00    +0.000 A 
ATOM     23  C   UNL     1       2.472   7.273  18.527  0.00  0.00    +0.000 A 
ATOM     24  C   UNL     1       1.968   7.487  19.816  0.00  0.00    +0.000 A 
ATOM     25  C   UNL     1       1.294   8.681  20.186  0.00  0.00    +0.000 A 
BRANCH  25  26
ATOM     26  N   UNL     1       0.819   8.827  21.490  0.00  0.00    +0.000 N 
ATOM     27  C   UNL     1       1.699   9.307  22.559  0.00  0.00    +0.000 C 
ATOM     28  C   UNL     1      -0.457   8.290  21.944  0.00  0.00    +0.000 C 
ENDBRANCH  25  26
BRANCH  23  29
ATOM     29  N   UNL     1       3.035   6.019  18.151  0.00  0.00    +0.000 N 
ATOM     30  H   UNL     1       2.629   5.195  18.598  0.00  0.00    +0.000 HD
BRANCH  29  31
ATOM     31  S   UNL     1       4.712   5.874  18.072  0.00  0.00    +0.000 S 
ATOM     32  C   UNL     1       4.901   4.422  17.057  0.00  0.00    +0.000 C 
ATOM     33  O   UNL     1       5.272   7.014  17.383  0.00  0.00    +0.000 OA
ATOM     34  O   UNL     1       5.132   5.529  19.412  0.00  0.00    +0.000 OA
ENDBRANCH  29  31
ENDBRANCH  23  29
ENDBRANCH  18  20
ENDBRANCH   6  18
TORSDOF 6
ENDMDL
