MODEL 1
REMARK VINA RESULT:      -7.9      0.000      0.000
REMARK  Name = 
REMARK  4 active torsions:
REMARK  status: ('A' for Active; 'I' for Inactive)
REMARK    1  A    between atoms: C_1  and  C_2
REMARK    2  A    between atoms: C_2  and  C_3
REMARK    3  A    between atoms: C_3  and  N_4
REMARK    4  A    between atoms: N_4  and  C_5
REMARK                            x       y       z     vdW  Elec       q    Type
REMARK                         _______ _______ _______ _____ _____    ______ ____
ROOT
ATOM      1  C   UNL     1       2.941   5.292  20.128  0.00  0.00    +0.000 A 
ATOM      2  N   UNL     1       3.755   4.540  19.369  0.00  0.00    +0.000 NA
ATOM      3  C   UNL     1       4.222   5.023  18.214  0.00  0.00    +0.000 A 
ATOM      4  C   UNL     1       5.122   4.212  17.534  0.00  0.00    +0.000 A 
ATOM      5  C   UNL     1       5.697   4.595  16.327  0.00  0.00    +0.000 A 
ATOM      6  C   UNL     1       5.339   5.806  15.766  0.00  0.00    +0.000 A 
ATOM      7  C   UNL     1       4.427   6.630  16.431  0.00  0.00    +0.000 A 
ATOM      8  C   UNL     1       3.858   6.283  17.692  0.00  0.00    +0.000 A 
ATOM      9  C   UNL     1       2.974   7.078  18.498  0.00  0.00    +0.000 A 
ATOM     10  C   UNL     1       2.514   8.436  18.047  0.00  0.00    +0.000 A 
ATOM     11  O   UNL     1       2.994   8.972  17.051  0.00  0.00    +0.000 OA
ATOM     12  C   UNL     1       1.454   9.206  18.745  0.00  0.00    +0.000 A 
ATOM     13  C   UNL     1       0.909  10.340  18.109  0.00  0.00    +0.000 A 
ATOM     14  C   UNL     1      -0.081  11.101  18.736  0.00  0.00    +0.000 A 
ATOM     15  C   UNL     1      -0.546  10.730  19.991  0.00  0.00    +0.000 A 
ATOM     16 CL   UNL     1      -1.774  11.653  20.764  0.00  0.00    +0.000 Cl
ATOM     17  C   UNL     1      -0.007   9.623  20.632  0.00  0.00    +0.000 A 
ATOM     18  C   UNL     1       0.997   8.864  20.017  0.00  0.00    +0.000 A 
ATOM     19  S   UNL     1       1.657   7.539  20.954  0.00  0.00    +0.000 S 
ATOM     20  C   UNL     1       2.544   6.585  19.739  0.00  0.00    +0.000 A 
ENDROOT
BRANCH   1  21
ATOM     21  N   UNL     1       2.395   4.721  21.300  0.00  0.00    +0.000 N 
ATOM     22  H   UNL     1       3.085   4.784  22.047  0.00  0.00    +0.000 HD
BRANCH  21  23
ATOM     23  C   UNL     1       1.882   3.367  21.142  0.00  0.00    +0.000 C 
BRANCH  23  25
ATOM     24  C   UNL     1       0.865   2.477  18.988  0.00  0.00    +0.000 C 
ATOM     25  C   UNL     1       0.671   3.369  20.206  0.00  0.00    +0.000 C 
ENDBRANCH  23  25
ENDBRANCH  21  23
ENDBRANCH   1  21
TORSDOF 3
ENDMDL
MODEL 2
REMARK VINA RESULT:      -7.8      4.910      6.227
REMARK  Name = 
REMARK  4 active torsions:
REMARK  status: ('A' for Active; 'I' for Inactive)
REMARK    1  A    between atoms: C_1  and  C_2
REMARK    2  A    between atoms: C_2  and  C_3
REMARK    3  A    between atoms: C_3  and  N_4
REMARK    4  A    between atoms: N_4  and  C_5
REMARK                            x       y       z     vdW  Elec       q    Type
REMARK                         _______ _______ _______ _____ _____    ______ ____
ROOT
ATOM      1  C   UNL     1       7.072   4.826  17.443  0.00  0.00    +0.000 A 
ATOM      2  N   UNL     1       7.613   4.847  16.213  0.00  0.00    +0.000 NA
ATOM      3  C   UNL     1       6.871   4.512  15.155  0.00  0.00    +0.000 A 
ATOM      4  C   UNL     1       7.486   4.640  13.915  0.00  0.00    +0.000 A 
ATOM      5  C   UNL     1       6.827   4.340  12.727  0.00  0.00    +0.000 A 
ATOM      6  C   UNL     1       5.530   3.866  12.779  0.00  0.00    +0.000 A 
ATOM      7  C   UNL     1       4.899   3.721  14.019  0.00  0.00    +0.000 A 
ATOM      8  C   UNL     1       5.536   4.066  15.248  0.00  0.00    +0.000 A 
ATOM      9  C   UNL     1       4.964   4.029  16.565  0.00  0.00    +0.000 A 
ATOM     10  C   UNL     1       3.551   3.570  16.792  0.00  0.00    +0.000 A 
ATOM     11  O   UNL     1       2.793   3.354  15.849  0.00  0.00    +0.000 OA
ATOM     12  C   UNL     1       2.985   3.327  18.143  0.00  0.00    +0.000 A 
ATOM     13  C   UNL     1       1.750   2.655  18.250  0.00  0.00    +0.000 A 
ATOM     14  C   UNL     1       1.174   2.418  19.500  0.00  0.00    +0.000 A 
ATOM     15  C   UNL     1       1.829   2.834  20.652  0.00  0.00    +0.000 A 
ATOM     16 CL   UNL     1       1.135   2.534  22.196  0.00  0.00    +0.000 Cl
ATOM     17  C   UNL     1       3.039   3.509  20.558  0.00  0.00    +0.000 A 
ATOM     18  C   UNL     1       3.615   3.764  19.306  0.00  0.00    +0.000 A 
ATOM     19  S   UNL     1       5.101   4.693  19.307  0.00  0.00    +0.000 S 
ATOM     20  C   UNL     1       5.735   4.446  17.660  0.00  0.00    +0.000 A 
ENDROOT
BRANCH   1  21
ATOM     21  N   UNL     1       7.905   5.103  18.550  0.00  0.00    +0.000 N 
ATOM     22  H   UNL     1       7.613   4.522  19.334  0.00  0.00    +0.000 HD
BRANCH  21  23
ATOM     23  C   UNL     1       7.994   6.510  18.915  0.00  0.00    +0.000 C 
BRANCH  23  25
ATOM     24  C   UNL     1       8.108   8.832  17.884  0.00  0.00    +0.000 C 
ATOM     25  C   UNL     1       7.654   7.389  17.709  0.00  0.00    +0.000 C 
ENDBRANCH  23  25
ENDBRANCH  21  23
ENDBRANCH   1  21
TORSDOF 3
ENDMDL
MODEL 3
REMARK VINA RESULT:      -7.7      4.675      6.539
REMARK  Name = 
REMARK  4 active torsions:
REMARK  status: ('A' for Active; 'I' for Inactive)
REMARK    1  A    between atoms: C_1  and  C_2
REMARK    2  A    between atoms: C_2  and  C_3
REMARK    3  A    between atoms: C_3  and  N_4
REMARK    4  A    between atoms: N_4  and  C_5
REMARK                            x       y       z     vdW  Elec       q    Type
REMARK                         _______ _______ _______ _____ _____    ______ ____
ROOT
ATOM      1  C   UNL     1       6.961   5.956  16.863  0.00  0.00    +0.000 A 
ATOM      2  N   UNL     1       7.553   5.871  15.661  0.00  0.00    +0.000 NA
ATOM      3  C   UNL     1       7.012   5.109  14.706  0.00  0.00    +0.000 A 
ATOM      4  C   UNL     1       7.644   5.144  13.469  0.00  0.00    +0.000 A 
ATOM      5  C   UNL     1       7.181   4.411  12.380  0.00  0.00    +0.000 A 
ATOM      6  C   UNL     1       6.078   3.595  12.540  0.00  0.00    +0.000 A 
ATOM      7  C   UNL     1       5.435   3.540  13.780  0.00  0.00    +0.000 A 
ATOM      8  C   UNL     1       5.862   4.316  14.899  0.00  0.00    +0.000 A 
ATOM      9  C   UNL     1       5.239   4.396  16.191  0.00  0.00    +0.000 A 
ATOM     10  C   UNL     1       4.009   3.597  16.518  0.00  0.00    +0.000 A 
ATOM     11  O   UNL     1       3.410   2.966  15.649  0.00  0.00    +0.000 OA
ATOM     12  C   UNL     1       3.449   3.494  17.889  0.00  0.00    +0.000 A 
ATOM     13  C   UNL     1       2.459   2.524  18.147  0.00  0.00    +0.000 A 
ATOM     14  C   UNL     1       1.895   2.402  19.419  0.00  0.00    +0.000 A 
ATOM     15  C   UNL     1       2.323   3.233  20.446  0.00  0.00    +0.000 A 
ATOM     16 CL   UNL     1       1.645   3.081  22.019  0.00  0.00    +0.000 Cl
ATOM     17  C   UNL     1       3.288   4.201  20.201  0.00  0.00    +0.000 A 
ATOM     18  C   UNL     1       3.847   4.340  18.922  0.00  0.00    +0.000 A 
ATOM     19  S   UNL     1       4.995   5.647  18.712  0.00  0.00    +0.000 S 
ATOM     20  C   UNL     1       5.781   5.250  17.163  0.00  0.00    +0.000 A 
ENDROOT
BRANCH   1  21
ATOM     21  N   UNL     1       7.602   6.700  17.879  0.00  0.00    +0.000 N 
ATOM     22  H   UNL     1       7.130   6.525  18.763  0.00  0.00    +0.000 HD
BRANCH  21  23
ATOM     23  C   UNL     1       7.736   8.125  17.603  0.00  0.00    +0.000 C 
BRANCH  23  25
ATOM     24  C   UNL     1       8.938  10.241  18.340  0.00  0.00    +0.000 C 
ATOM     25  C   UNL     1       8.636   8.782  18.652  0.00  0.00    +0.000 C 
ENDBRANCH  23  25
ENDBRANCH  21  23
ENDBRANCH   1  21
TORSDOF 3
ENDMDL
MODEL 4
REMARK VINA RESULT:      -7.6      1.336      1.933
REMARK  Name = 
REMARK  4 active torsions:
REMARK  status: ('A' for Active; 'I' for Inactive)
REMARK    1  A    between atoms: C_1  and  C_2
REMARK    2  A    between atoms: C_2  and  C_3
REMARK    3  A    between atoms: C_3  and  N_4
REMARK    4  A    between atoms: N_4  and  C_5
REMARK                            x       y       z     vdW  Elec       q    Type
REMARK                         _______ _______ _______ _____ _____    ______ ____
ROOT
ATOM      1  C   UNL     1       3.933   3.819  18.751  0.00  0.00    +0.000 A 
ATOM      2  N   UNL     1       4.647   3.254  17.764  0.00  0.00    +0.000 NA
ATOM      3  C   UNL     1       5.039   3.990  16.721  0.00  0.00    +0.000 A 
ATOM      4  C   UNL     1       5.842   3.347  15.787  0.00  0.00    +0.000 A 
ATOM      5  C   UNL     1       6.334   3.996  14.660  0.00  0.00    +0.000 A 
ATOM      6  C   UNL     1       5.987   5.316  14.440  0.00  0.00    +0.000 A 
ATOM      7  C   UNL     1       5.172   5.977  15.364  0.00  0.00    +0.000 A 
ATOM      8  C   UNL     1       4.693   5.348  16.551  0.00  0.00    +0.000 A 
ATOM      9  C   UNL     1       3.916   5.946  17.601  0.00  0.00    +0.000 A 
ATOM     10  C   UNL     1       3.485   7.384  17.533  0.00  0.00    +0.000 A 
ATOM     11  O   UNL     1       3.905   8.134  16.654  0.00  0.00    +0.000 OA
ATOM     12  C   UNL     1       2.522   7.988  18.488  0.00  0.00    +0.000 A 
ATOM     13  C   UNL     1       1.980   9.256  18.195  0.00  0.00    +0.000 A 
ATOM     14  C   UNL     1       1.081   9.867  19.073  0.00  0.00    +0.000 A 
ATOM     15  C   UNL     1       0.705   9.214  20.239  0.00  0.00    +0.000 A 
ATOM     16 CL   UNL     1      -0.412   9.952  21.319  0.00  0.00    +0.000 Cl
ATOM     17  C   UNL     1       1.242   7.971  20.545  0.00  0.00    +0.000 A 
ATOM     18  C   UNL     1       2.156   7.359  19.676  0.00  0.00    +0.000 A 
ATOM     19  S   UNL     1       2.828   5.830  20.205  0.00  0.00    +0.000 S 
ATOM     20  C   UNL     1       3.567   5.177  18.721  0.00  0.00    +0.000 A 
ENDROOT
BRANCH   1  21
ATOM     21  N   UNL     1       3.460   2.994  19.797  0.00  0.00    +0.000 N 
ATOM     22  H   UNL     1       4.239   2.452  20.166  0.00  0.00    +0.000 HD
BRANCH  21  23
ATOM     23  C   UNL     1       2.324   2.152  19.449  0.00  0.00    +0.000 C 
BRANCH  23  25
ATOM     24  C   UNL     1       1.350   2.738  21.723  0.00  0.00    +0.000 C 
ATOM     25  C   UNL     1       1.084   2.589  20.231  0.00  0.00    +0.000 C 
ENDBRANCH  23  25
ENDBRANCH  21  23
ENDBRANCH   1  21
TORSDOF 3
ENDMDL
MODEL 5
REMARK VINA RESULT:      -7.5      2.117      4.235
REMARK  Name = 
REMARK  4 active torsions:
REMARK  status: ('A' for Active; 'I' for Inactive)
REMARK    1  A    between atoms: C_1  and  C_2
REMARK    2  A    between atoms: C_2  and  C_3
REMARK    3  A    between atoms: C_3  and  N_4
REMARK    4  A    between atoms: N_4  and  C_5
REMARK                            x       y       z     vdW  Elec       q    Type
REMARK                         _______ _______ _______ _____ _____    ______ ____
ROOT
ATOM      1  C   UNL     1       4.057   5.881  17.761  0.00  0.00    +0.000 A 
ATOM      2  N   UNL     1       4.319   4.655  18.244  0.00  0.00    +0.000 NA
ATOM      3  C   UNL     1       3.691   4.224  19.341  0.00  0.00    +0.000 A 
ATOM      4  C   UNL     1       3.959   2.916  19.723  0.00  0.00    +0.000 A 
ATOM      5  C   UNL     1       3.365   2.332  20.837  0.00  0.00    +0.000 A 
ATOM      6  C   UNL     1       2.505   3.087  21.612  0.00  0.00    +0.000 A 
ATOM      7  C   UNL     1       2.231   4.409  21.249  0.00  0.00    +0.000 A 
ATOM      8  C   UNL     1       2.791   5.016  20.086  0.00  0.00    +0.000 A 
ATOM      9  C   UNL     1       2.525   6.332  19.577  0.00  0.00    +0.000 A 
ATOM     10  C   UNL     1       1.586   7.269  20.284  0.00  0.00    +0.000 A 
ATOM     11  O   UNL     1       0.902   6.890  21.232  0.00  0.00    +0.000 OA
ATOM     12  C   UNL     1       1.432   8.698  19.910  0.00  0.00    +0.000 A 
ATOM     13  C   UNL     1       0.734   9.556  20.783  0.00  0.00    +0.000 A 
ATOM     14  C   UNL     1       0.554  10.905  20.464  0.00  0.00    +0.000 A 
ATOM     15  C   UNL     1       1.081  11.410  19.284  0.00  0.00    +0.000 A 
ATOM     16 CL   UNL     1       0.878  13.072  18.889  0.00  0.00    +0.000 Cl
ATOM     17  C   UNL     1       1.760  10.572  18.410  0.00  0.00    +0.000 A 
ATOM     18  C   UNL     1       1.931   9.214  18.715  0.00  0.00    +0.000 A 
ATOM     19  S   UNL     1       2.732   8.238  17.501  0.00  0.00    +0.000 S 
ATOM     20  C   UNL     1       3.142   6.747  18.387  0.00  0.00    +0.000 A 
ENDROOT
BRANCH   1  21
ATOM     21  N   UNL     1       4.800   6.339  16.650  0.00  0.00    +0.000 N 
ATOM     22  H   UNL     1       4.312   6.074  15.797  0.00  0.00    +0.000 HD
BRANCH  21  23
ATOM     23  C   UNL     1       6.197   5.926  16.632  0.00  0.00    +0.000 C 
BRANCH  23  25
ATOM     24  C   UNL     1       7.706   6.283  18.647  0.00  0.00    +0.000 C 
ATOM     25  C   UNL     1       7.049   6.917  17.429  0.00  0.00    +0.000 C 
ENDBRANCH  23  25
ENDBRANCH  21  23
ENDBRANCH   1  21
TORSDOF 3
ENDMDL
MODEL 6
REMARK VINA RESULT:      -7.3      2.040      4.189
REMARK  Name = 
REMARK  4 active torsions:
REMARK  status: ('A' for Active; 'I' for Inactive)
REMARK    1  A    between atoms: C_1  and  C_2
REMARK    2  A    between atoms: C_2  and  C_3
REMARK    3  A    between atoms: C_3  and  N_4
REMARK    4  A    between atoms: N_4  and  C_5
REMARK                            x       y       z     vdW  Elec       q    Type
REMARK                         _______ _______ _______ _____ _____    ______ ____
ROOT
ATOM      1  C   UNL     1       3.991   5.782  17.803  0.00  0.00    +0.000 A 
ATOM      2  N   UNL     1       4.226   4.565  18.319  0.00  0.00    +0.000 NA
ATOM      3  C   UNL     1       3.587   4.176  19.426  0.00  0.00    +0.000 A 
ATOM      4  C   UNL     1       3.828   2.873  19.843  0.00  0.00    +0.000 A 
ATOM      5  C   UNL     1       3.219   2.332  20.971  0.00  0.00    +0.000 A 
ATOM      6  C   UNL     1       2.372   3.124  21.722  0.00  0.00    +0.000 A 
ATOM      7  C   UNL     1       2.125   4.440  21.323  0.00  0.00    +0.000 A 
ATOM      8  C   UNL     1       2.700   5.005  20.146  0.00  0.00    +0.000 A 
ATOM      9  C   UNL     1       2.462   6.312  19.601  0.00  0.00    +0.000 A 
ATOM     10  C   UNL     1       1.539   7.286  20.279  0.00  0.00    +0.000 A 
ATOM     11  O   UNL     1       0.846   6.946  21.235  0.00  0.00    +0.000 OA
ATOM     12  C   UNL     1       1.416   8.707  19.867  0.00  0.00    +0.000 A 
ATOM     13  C   UNL     1       0.731   9.602  20.714  0.00  0.00    +0.000 A 
ATOM     14  C   UNL     1       0.580  10.945  20.359  0.00  0.00    +0.000 A 
ATOM     15  C   UNL     1       1.120  11.408  19.167  0.00  0.00    +0.000 A 
ATOM     16 CL   UNL     1       0.951  13.063  18.728  0.00  0.00    +0.000 Cl
ATOM     17  C   UNL     1       1.785  10.534  18.318  0.00  0.00    +0.000 A 
ATOM     18  C   UNL     1       1.927   9.182  18.661  0.00  0.00    +0.000 A 
ATOM     19  S   UNL     1       2.713   8.157  17.476  0.00  0.00    +0.000 S 
ATOM     20  C   UNL     1       3.091   6.683  18.403  0.00  0.00    +0.000 A 
ENDROOT
BRANCH   1  21
ATOM     21  N   UNL     1       4.745   6.196  16.682  0.00  0.00    +0.000 N 
ATOM     22  H   UNL     1       4.430   5.679  15.865  0.00  0.00    +0.000 HD
BRANCH  21  23
ATOM     23  C   UNL     1       6.190   6.121  16.854  0.00  0.00    +0.000 C 
BRANCH  23  25
ATOM     24  C   UNL     1       5.784   4.755  14.749  0.00  0.00    +0.000 C 
ATOM     25  C   UNL     1       6.801   5.214  15.783  0.00  0.00    +0.000 C 
ENDBRANCH  23  25
ENDBRANCH  21  23
ENDBRANCH   1  21
TORSDOF 3
ENDMDL
MODEL 7
REMARK VINA RESULT:      -6.9      4.240      8.171
REMARK  Name = 
REMARK  4 active torsions:
REMARK  status: ('A' for Active; 'I' for Inactive)
REMARK    1  A    between atoms: C_1  and  C_2
REMARK    2  A    between atoms: C_2  and  C_3
REMARK    3  A    between atoms: C_3  and  N_4
REMARK    4  A    between atoms: N_4  and  C_5
REMARK                            x       y       z     vdW  Elec       q    Type
REMARK                         _______ _______ _______ _____ _____    ______ ____
ROOT
ATOM      1  C   UNL     1      -1.522  11.907  18.702  0.00  0.00    +0.000 A 
ATOM      2  N   UNL     1      -2.331  12.594  19.526  0.00  0.00    +0.000 NA
ATOM      3  C   UNL     1      -2.252  12.405  20.845  0.00  0.00    +0.000 A 
ATOM      4  C   UNL     1      -3.067  13.216  21.626  0.00  0.00    +0.000 A 
ATOM      5  C   UNL     1      -3.077  13.137  23.015  0.00  0.00    +0.000 A 
ATOM      6  C   UNL     1      -2.277  12.199  23.641  0.00  0.00    +0.000 A 
ATOM      7  C   UNL     1      -1.459  11.368  22.870  0.00  0.00    +0.000 A 
ATOM      8  C   UNL     1      -1.395  11.460  21.448  0.00  0.00    +0.000 A 
ATOM      9  C   UNL     1      -0.543  10.715  20.564  0.00  0.00    +0.000 A 
ATOM     10  C   UNL     1       0.412   9.679  21.088  0.00  0.00    +0.000 A 
ATOM     11  O   UNL     1       0.603   9.540  22.294  0.00  0.00    +0.000 OA
ATOM     12  C   UNL     1       1.164   8.751  20.206  0.00  0.00    +0.000 A 
ATOM     13  C   UNL     1       1.828   7.651  20.788  0.00  0.00    +0.000 A 
ATOM     14  C   UNL     1       2.559   6.761  19.997  0.00  0.00    +0.000 A 
ATOM     15  C   UNL     1       2.621   6.949  18.623  0.00  0.00    +0.000 A 
ATOM     16 CL   UNL     1       3.506   5.850  17.640  0.00  0.00    +0.000 Cl
ATOM     17  C   UNL     1       1.982   8.035  18.040  0.00  0.00    +0.000 A 
ATOM     18  C   UNL     1       1.260   8.942  18.829  0.00  0.00    +0.000 A 
ATOM     19  S   UNL     1       0.564  10.317  17.995  0.00  0.00    +0.000 S 
ATOM     20  C   UNL     1      -0.590  10.971  19.186  0.00  0.00    +0.000 A 
ENDROOT
BRANCH   1  21
ATOM     21  N   UNL     1      -1.689  12.066  17.307  0.00  0.00    +0.000 N 
ATOM     22  H   UNL     1      -1.622  13.055  17.079  0.00  0.00    +0.000 HD
BRANCH  21  23
ATOM     23  C   UNL     1      -2.894  11.458  16.760  0.00  0.00    +0.000 C 
BRANCH  23  25
ATOM     24  C   UNL     1      -3.033  10.141  14.590  0.00  0.00    +0.000 C 
ATOM     25  C   UNL     1      -2.545  10.158  16.032  0.00  0.00    +0.000 C 
ENDBRANCH  23  25
ENDBRANCH  21  23
ENDBRANCH   1  21
TORSDOF 3
ENDMDL
MODEL 8
REMARK VINA RESULT:      -6.9      3.732      7.010
REMARK  Name = 
REMARK  4 active torsions:
REMARK  status: ('A' for Active; 'I' for Inactive)
REMARK    1  A    between atoms: C_1  and  C_2
REMARK    2  A    between atoms: C_2  and  C_3
REMARK    3  A    between atoms: C_3  and  N_4
REMARK    4  A    between atoms: N_4  and  C_5
REMARK                            x       y       z     vdW  Elec       q    Type
REMARK                         _______ _______ _______ _____ _____    ______ ____
ROOT
ATOM      1  C   UNL     1       2.950   6.874  18.480  0.00  0.00    +0.000 A 
ATOM      2  N   UNL     1       2.081   6.398  19.386  0.00  0.00    +0.000 NA
ATOM      3  C   UNL     1       1.992   5.083  19.597  0.00  0.00    +0.000 A 
ATOM      4  C   UNL     1       1.128   4.684  20.608  0.00  0.00    +0.000 A 
ATOM      5  C   UNL     1       0.948   3.346  20.945  0.00  0.00    +0.000 A 
ATOM      6  C   UNL     1       1.624   2.377  20.229  0.00  0.00    +0.000 A 
ATOM      7  C   UNL     1       2.491   2.759  19.201  0.00  0.00    +0.000 A 
ATOM      8  C   UNL     1       2.728   4.126  18.866  0.00  0.00    +0.000 A 
ATOM      9  C   UNL     1       3.646   4.636  17.886  0.00  0.00    +0.000 A 
ATOM     10  C   UNL     1       4.484   3.714  17.045  0.00  0.00    +0.000 A 
ATOM     11  O   UNL     1       4.522   2.506  17.269  0.00  0.00    +0.000 OA
ATOM     12  C   UNL     1       5.294   4.181  15.892  0.00  0.00    +0.000 A 
ATOM     13  C   UNL     1       5.834   3.223  15.009  0.00  0.00    +0.000 A 
ATOM     14  C   UNL     1       6.613   3.618  13.919  0.00  0.00    +0.000 A 
ATOM     15  C   UNL     1       6.847   4.968  13.691  0.00  0.00    +0.000 A 
ATOM     16 CL   UNL     1       7.793   5.464  12.344  0.00  0.00    +0.000 Cl
ATOM     17  C   UNL     1       6.331   5.920  14.561  0.00  0.00    +0.000 A 
ATOM     18  C   UNL     1       5.562   5.530  15.666  0.00  0.00    +0.000 A 
ATOM     19  S   UNL     1       5.033   6.812  16.737  0.00  0.00    +0.000 S 
ATOM     20  C   UNL     1       3.775   6.023  17.722  0.00  0.00    +0.000 A 
ENDROOT
BRANCH   1  21
ATOM     21  N   UNL     1       2.959   8.263  18.219  0.00  0.00    +0.000 N 
ATOM     22  H   UNL     1       3.305   8.750  19.044  0.00  0.00    +0.000 HD
BRANCH  21  23
ATOM     23  C   UNL     1       1.691   8.808  17.754  0.00  0.00    +0.000 C 
BRANCH  23  25
ATOM     24  C   UNL     1       0.086  10.044  19.291  0.00  0.00    +0.000 C 
ATOM     25  C   UNL     1       1.377  10.114  18.488  0.00  0.00    +0.000 C 
ENDBRANCH  23  25
ENDBRANCH  21  23
ENDBRANCH   1  21
TORSDOF 3
ENDMDL
MODEL 9
REMARK VINA RESULT:      -6.6      5.315      7.670
REMARK  Name = 
REMARK  4 active torsions:
REMARK  status: ('A' for Active; 'I' for Inactive)
REMARK    1  A    between atoms: C_1  and  C_2
REMARK    2  A    between atoms: C_2  and  C_3
REMARK    3  A    between atoms: C_3  and  N_4
REMARK    4  A    between atoms: N_4  and  C_5
REMARK                            x       y       z     vdW  Elec       q    Type
REMARK                         _______ _______ _______ _____ _____    ______ ____
ROOT
ATOM      1  C   UNL     1      -0.279  10.899  19.634  0.00  0.00    +0.000 A 
ATOM      2  N   UNL     1      -0.705  10.285  18.518  0.00  0.00    +0.000 NA
ATOM      3  C   UNL     1      -1.897  10.595  18.002  0.00  0.00    +0.000 A 
ATOM      4  C   UNL     1      -2.224   9.973  16.804  0.00  0.00    +0.000 A 
ATOM      5  C   UNL     1      -3.427  10.213  16.148  0.00  0.00    +0.000 A 
ATOM      6  C   UNL     1      -4.345  11.072  16.721  0.00  0.00    +0.000 A 
ATOM      7  C   UNL     1      -4.037  11.700  17.932  0.00  0.00    +0.000 A 
ATOM      8  C   UNL     1      -2.792  11.506  18.602  0.00  0.00    +0.000 A 
ATOM      9  C   UNL     1      -2.341  12.150  19.803  0.00  0.00    +0.000 A 
ATOM     10  C   UNL     1      -3.206  13.139  20.534  0.00  0.00    +0.000 A 
ATOM     11  O   UNL     1      -4.262  13.541  20.049  0.00  0.00    +0.000 OA
ATOM     12  C   UNL     1      -2.867  13.677  21.875  0.00  0.00    +0.000 A 
ATOM     13  C   UNL     1      -3.852  14.389  22.589  0.00  0.00    +0.000 A 
ATOM     14  C   UNL     1      -3.572  14.924  23.849  0.00  0.00    +0.000 A 
ATOM     15  C   UNL     1      -2.316  14.741  24.412  0.00  0.00    +0.000 A 
ATOM     16 CL   UNL     1      -1.966  15.384  25.969  0.00  0.00    +0.000 Cl
ATOM     17  C   UNL     1      -1.333  14.053  23.713  0.00  0.00    +0.000 A 
ATOM     18  C   UNL     1      -1.603  13.528  22.441  0.00  0.00    +0.000 A 
ATOM     19  S   UNL     1      -0.263  12.751  21.621  0.00  0.00    +0.000 S 
ATOM     20  C   UNL     1      -1.060  11.863  20.297  0.00  0.00    +0.000 A 
ENDROOT
BRANCH   1  21
ATOM     21  N   UNL     1       0.948  10.487  20.202  0.00  0.00    +0.000 N 
ATOM     22  H   UNL     1       1.693  10.646  19.526  0.00  0.00    +0.000 HD
BRANCH  21  23
ATOM     23  C   UNL     1       0.959   9.125  20.718  0.00  0.00    +0.000 C 
BRANCH  23  25
ATOM     24  C   UNL     1      -0.031   9.390  23.045  0.00  0.00    +0.000 C 
ATOM     25  C   UNL     1       1.226   9.135  22.225  0.00  0.00    +0.000 C 
ENDBRANCH  23  25
ENDBRANCH  21  23
ENDBRANCH   1  21
TORSDOF 3
ENDMDL
