MODEL 1
REMARK VINA RESULT:      -8.3      0.000      0.000
REMARK  Name = 
REMARK  4 active torsions:
REMARK  status: ('A' for Active; 'I' for Inactive)
REMARK    1  A    between atoms: C_1  and  N_2
REMARK    2  A    between atoms: N_2  and  C_20
REMARK    3  A    between atoms: C_3  and  C_5
REMARK    4  A    between atoms: C_8  and  C_9
REMARK                            x       y       z     vdW  Elec       q    Type
REMARK                         _______ _______ _______ _____ _____    ______ ____
ROOT
ATOM      1  C   UNL     1       2.171   6.885  20.096  0.00  0.00    +0.000 A 
ATOM      2  C   UNL     1       3.186   6.412  19.275  0.00  0.00    +0.000 A 
ATOM      3  C   UNL     1       3.412   5.031  19.533  0.00  0.00    +0.000 A 
ATOM      4  C   UNL     1       4.311   4.048  19.031  0.00  0.00    +0.000 A 
ATOM      5  C   UNL     1       4.300   2.792  19.677  0.00  0.00    +0.000 A 
ATOM      6  C   UNL     1       3.438   2.507  20.739  0.00  0.00    +0.000 A 
ATOM      7  C   UNL     1       2.511   3.448  21.179  0.00  0.00    +0.000 A 
ATOM      8  C   UNL     1       2.513   4.694  20.547  0.00  0.00    +0.000 A 
ATOM      9  N   UNL     1       1.682   5.777  20.737  0.00  0.00    +0.000 N 
ATOM     10  H   UNL     1       0.857   5.753  21.320  0.00  0.00    +0.000 HD
ENDROOT
BRANCH   4  11
ATOM     11  C   UNL     1       5.210   4.340  17.899  0.00  0.00    +0.000 A 
ATOM     12  C   UNL     1       6.562   4.611  18.052  0.00  0.00    +0.000 A 
ATOM     13  N   UNL     1       7.426   4.873  17.043  0.00  0.00    +0.000 NA
ATOM     14  C   UNL     1       6.898   4.868  15.813  0.00  0.00    +0.000 A 
ATOM     15  N   UNL     1       5.620   4.612  15.514  0.00  0.00    +0.000 NA
ATOM     16  C   UNL     1       4.815   4.344  16.569  0.00  0.00    +0.000 A 
ENDBRANCH   4  11
BRANCH   1  19
ATOM     17  C   UNL     1       1.906   8.437  17.575  0.00  0.00    +0.000 C 
ATOM     18  N   UNL     1       1.561   8.993  18.888  0.00  0.00    +0.000 N 
ATOM     19  C   UNL     1       1.692   8.263  20.103  0.00  0.00    +0.000 C 
ATOM     20  O   UNL     1       1.328   8.707  21.192  0.00  0.00    +0.000 OA
BRANCH  18  21
ATOM     21  C   UNL     1       0.884  10.292  18.856  0.00  0.00    +0.000 A 
ATOM     22  C   UNL     1      -0.511  10.426  18.786  0.00  0.00    +0.000 A 
ATOM     23  C   UNL     1      -1.133  11.678  18.651  0.00  0.00    +0.000 A 
ATOM     24  C   UNL     1      -0.370  12.835  18.596  0.00  0.00    +0.000 A 
ATOM     25  C   UNL     1       1.008  12.744  18.709  0.00  0.00    +0.000 A 
ATOM     26  C   UNL     1       1.623  11.493  18.851  0.00  0.00    +0.000 A 
ENDBRANCH  18  21
ENDBRANCH   1  19
TORSDOF 3
ENDMDL
MODEL 2
REMARK VINA RESULT:      -8.2      1.327      1.839
REMARK  Name = 
REMARK  4 active torsions:
REMARK  status: ('A' for Active; 'I' for Inactive)
REMARK    1  A    between atoms: C_1  and  N_2
REMARK    2  A    between atoms: N_2  and  C_20
REMARK    3  A    between atoms: C_3  and  C_5
REMARK    4  A    between atoms: C_8  and  C_9
REMARK                            x       y       z     vdW  Elec       q    Type
REMARK                         _______ _______ _______ _____ _____    ______ ____
ROOT
ATOM      1  C   UNL     1       2.371   7.564  18.576  0.00  0.00    +0.000 A 
ATOM      2  C   UNL     1       3.391   6.982  17.836  0.00  0.00    +0.000 A 
ATOM      3  C   UNL     1       3.696   5.695  18.362  0.00  0.00    +0.000 A 
ATOM      4  C   UNL     1       4.635   4.675  18.041  0.00  0.00    +0.000 A 
ATOM      5  C   UNL     1       4.705   3.578  18.929  0.00  0.00    +0.000 A 
ATOM      6  C   UNL     1       3.884   3.476  20.054  0.00  0.00    +0.000 A 
ATOM      7  C   UNL     1       2.917   4.442  20.323  0.00  0.00    +0.000 A 
ATOM      8  C   UNL     1       2.839   5.531  19.452  0.00  0.00    +0.000 A 
ATOM      9  N   UNL     1       1.956   6.589  19.445  0.00  0.00    +0.000 N 
ATOM     10  H   UNL     1       1.147   6.645  20.047  0.00  0.00    +0.000 HD
ENDROOT
BRANCH   4  11
ATOM     11  C   UNL     1       5.491   4.771  16.844  0.00  0.00    +0.000 A 
ATOM     12  C   UNL     1       5.201   4.129  15.648  0.00  0.00    +0.000 A 
ATOM     13  N   UNL     1       5.950   4.197  14.523  0.00  0.00    +0.000 NA
ATOM     14  C   UNL     1       7.055   4.948  14.608  0.00  0.00    +0.000 A 
ATOM     15  N   UNL     1       7.452   5.632  15.686  0.00  0.00    +0.000 NA
ATOM     16  C   UNL     1       6.650   5.531  16.772  0.00  0.00    +0.000 A 
ENDBRANCH   4  11
BRANCH   1  19
ATOM     17  C   UNL     1       0.896   9.053  20.683  0.00  0.00    +0.000 C 
ATOM     18  N   UNL     1       1.121   9.596  19.339  0.00  0.00    +0.000 N 
ATOM     19  C   UNL     1       1.819   8.890  18.319  0.00  0.00    +0.000 C 
ATOM     20  O   UNL     1       2.072   9.381  17.220  0.00  0.00    +0.000 OA
BRANCH  18  21
ATOM     21  C   UNL     1       0.751  11.004  19.166  0.00  0.00    +0.000 A 
ATOM     22  C   UNL     1      -0.489  11.411  18.650  0.00  0.00    +0.000 A 
ATOM     23  C   UNL     1      -0.783  12.760  18.397  0.00  0.00    +0.000 A 
ATOM     24  C   UNL     1       0.157  13.743  18.668  0.00  0.00    +0.000 A 
ATOM     25  C   UNL     1       1.375  13.382  19.221  0.00  0.00    +0.000 A 
ATOM     26  C   UNL     1       1.660  12.034  19.479  0.00  0.00    +0.000 A 
ENDBRANCH  18  21
ENDBRANCH   1  19
TORSDOF 3
ENDMDL
MODEL 3
REMARK VINA RESULT:      -8.2      0.164      1.346
REMARK  Name = 
REMARK  4 active torsions:
REMARK  status: ('A' for Active; 'I' for Inactive)
REMARK    1  A    between atoms: C_1  and  N_2
REMARK    2  A    between atoms: N_2  and  C_20
REMARK    3  A    between atoms: C_3  and  C_5
REMARK    4  A    between atoms: C_8  and  C_9
REMARK                            x       y       z     vdW  Elec       q    Type
REMARK                         _______ _______ _______ _____ _____    ______ ____
ROOT
ATOM      1  C   UNL     1       2.208   6.785  20.104  0.00  0.00    +0.000 A 
ATOM      2  C   UNL     1       3.233   6.312  19.296  0.00  0.00    +0.000 A 
ATOM      3  C   UNL     1       3.455   4.931  19.555  0.00  0.00    +0.000 A 
ATOM      4  C   UNL     1       4.360   3.948  19.063  0.00  0.00    +0.000 A 
ATOM      5  C   UNL     1       4.339   2.691  19.708  0.00  0.00    +0.000 A 
ATOM      6  C   UNL     1       3.464   2.406  20.759  0.00  0.00    +0.000 A 
ATOM      7  C   UNL     1       2.532   3.347  21.188  0.00  0.00    +0.000 A 
ATOM      8  C   UNL     1       2.543   4.593  20.557  0.00  0.00    +0.000 A 
ATOM      9  N   UNL     1       1.710   5.677  20.738  0.00  0.00    +0.000 N 
ATOM     10  H   UNL     1       0.879   5.653  21.311  0.00  0.00    +0.000 HD
ENDROOT
BRANCH   4  11
ATOM     11  C   UNL     1       5.272   4.241  17.943  0.00  0.00    +0.000 A 
ATOM     12  C   UNL     1       4.888   4.168  16.611  0.00  0.00    +0.000 A 
ATOM     13  N   UNL     1       5.687   4.438  15.551  0.00  0.00    +0.000 NA
ATOM     14  C   UNL     1       6.943   4.794  15.849  0.00  0.00    +0.000 A 
ATOM     15  N   UNL     1       7.447   4.918  17.082  0.00  0.00    +0.000 NA
ATOM     16  C   UNL     1       6.590   4.647  18.094  0.00  0.00    +0.000 A 
ENDBRANCH   4  11
BRANCH   1  19
ATOM     17  C   UNL     1       2.009   8.352  17.586  0.00  0.00    +0.000 C 
ATOM     18  N   UNL     1       1.631   8.901  18.894  0.00  0.00    +0.000 N 
ATOM     19  C   UNL     1       1.730   8.163  20.107  0.00  0.00    +0.000 C 
ATOM     20  O   UNL     1       1.339   8.601  21.189  0.00  0.00    +0.000 OA
BRANCH  18  21
ATOM     21  C   UNL     1       0.956  10.201  18.851  0.00  0.00    +0.000 A 
ATOM     22  C   UNL     1       1.647  11.419  18.773  0.00  0.00    +0.000 A 
ATOM     23  C   UNL     1       0.986  12.656  18.837  0.00  0.00    +0.000 A 
ATOM     24  C   UNL     1      -0.394  12.705  18.970  0.00  0.00    +0.000 A 
ATOM     25  C   UNL     1      -1.113  11.520  19.004  0.00  0.00    +0.000 A 
ATOM     26  C   UNL     1      -0.448  10.289  18.932  0.00  0.00    +0.000 A 
ENDBRANCH  18  21
ENDBRANCH   1  19
TORSDOF 3
ENDMDL
MODEL 4
REMARK VINA RESULT:      -8.2      1.338      1.870
REMARK  Name = 
REMARK  4 active torsions:
REMARK  status: ('A' for Active; 'I' for Inactive)
REMARK    1  A    between atoms: C_1  and  N_2
REMARK    2  A    between atoms: N_2  and  C_20
REMARK    3  A    between atoms: C_3  and  C_5
REMARK    4  A    between atoms: C_8  and  C_9
REMARK                            x       y       z     vdW  Elec       q    Type
REMARK                         _______ _______ _______ _____ _____    ______ ____
ROOT
ATOM      1  C   UNL     1       2.378   7.589  18.572  0.00  0.00    +0.000 A 
ATOM      2  C   UNL     1       3.388   6.997  17.826  0.00  0.00    +0.000 A 
ATOM      3  C   UNL     1       3.685   5.708  18.350  0.00  0.00    +0.000 A 
ATOM      4  C   UNL     1       4.612   4.679  18.023  0.00  0.00    +0.000 A 
ATOM      5  C   UNL     1       4.677   3.581  18.910  0.00  0.00    +0.000 A 
ATOM      6  C   UNL     1       3.861   3.486  20.040  0.00  0.00    +0.000 A 
ATOM      7  C   UNL     1       2.905   4.460  20.315  0.00  0.00    +0.000 A 
ATOM      8  C   UNL     1       2.832   5.550  19.444  0.00  0.00    +0.000 A 
ATOM      9  N   UNL     1       1.958   6.617  19.443  0.00  0.00    +0.000 N 
ATOM     10  H   UNL     1       1.153   6.680  20.050  0.00  0.00    +0.000 HD
ENDROOT
BRANCH   4  11
ATOM     11  C   UNL     1       5.462   4.768  16.822  0.00  0.00    +0.000 A 
ATOM     12  C   UNL     1       6.631   5.515  16.772  0.00  0.00    +0.000 A 
ATOM     13  N   UNL     1       7.447   5.617  15.696  0.00  0.00    +0.000 NA
ATOM     14  C   UNL     1       7.063   4.935  14.611  0.00  0.00    +0.000 A 
ATOM     15  N   UNL     1       5.973   4.165  14.519  0.00  0.00    +0.000 NA
ATOM     16  C   UNL     1       5.209   4.096  15.634  0.00  0.00    +0.000 A 
ENDBRANCH   4  11
BRANCH   1  19
ATOM     17  C   UNL     1       0.873   9.064  20.669  0.00  0.00    +0.000 C 
ATOM     18  N   UNL     1       1.125   9.619  19.334  0.00  0.00    +0.000 N 
ATOM     19  C   UNL     1       1.837   8.920  18.319  0.00  0.00    +0.000 C 
ATOM     20  O   UNL     1       2.112   9.421  17.230  0.00  0.00    +0.000 OA
BRANCH  18  21
ATOM     21  C   UNL     1       0.764  11.030  19.169  0.00  0.00    +0.000 A 
ATOM     22  C   UNL     1       1.594  12.085  19.579  0.00  0.00    +0.000 A 
ATOM     23  C   UNL     1       1.185  13.426  19.506  0.00  0.00    +0.000 A 
ATOM     24  C   UNL     1      -0.068  13.748  19.006  0.00  0.00    +0.000 A 
ATOM     25  C   UNL     1      -0.896  12.735  18.549  0.00  0.00    +0.000 A 
ATOM     26  C   UNL     1      -0.479  11.399  18.618  0.00  0.00    +0.000 A 
ENDBRANCH  18  21
ENDBRANCH   1  19
TORSDOF 3
ENDMDL
MODEL 5
REMARK VINA RESULT:      -8.2      0.370      1.023
REMARK  Name = 
REMARK  4 active torsions:
REMARK  status: ('A' for Active; 'I' for Inactive)
REMARK    1  A    between atoms: C_1  and  N_2
REMARK    2  A    between atoms: N_2  and  C_20
REMARK    3  A    between atoms: C_3  and  C_5
REMARK    4  A    between atoms: C_8  and  C_9
REMARK                            x       y       z     vdW  Elec       q    Type
REMARK                         _______ _______ _______ _____ _____    ______ ____
ROOT
ATOM      1  C   UNL     1       1.998   6.957  20.163  0.00  0.00    +0.000 A 
ATOM      2  C   UNL     1       3.019   6.394  19.411  0.00  0.00    +0.000 A 
ATOM      3  C   UNL     1       3.166   5.018  19.748  0.00  0.00    +0.000 A 
ATOM      4  C   UNL     1       4.033   3.969  19.334  0.00  0.00    +0.000 A 
ATOM      5  C   UNL     1       3.933   2.750  20.041  0.00  0.00    +0.000 A 
ATOM      6  C   UNL     1       3.016   2.563  21.079  0.00  0.00    +0.000 A 
ATOM      7  C   UNL     1       2.120   3.569  21.430  0.00  0.00    +0.000 A 
ATOM      8  C   UNL     1       2.210   4.779  20.737  0.00  0.00    +0.000 A 
ATOM      9  N   UNL     1       1.428   5.909  20.837  0.00  0.00    +0.000 N 
ATOM     10  H   UNL     1       0.580   5.955  21.385  0.00  0.00    +0.000 HD
ENDROOT
BRANCH   4  11
ATOM     11  C   UNL     1       4.990   4.157  18.228  0.00  0.00    +0.000 A 
ATOM     12  C   UNL     1       6.280   4.635  18.412  0.00  0.00    +0.000 A 
ATOM     13  N   UNL     1       7.195   4.814  17.430  0.00  0.00    +0.000 NA
ATOM     14  C   UNL     1       6.786   4.500  16.195  0.00  0.00    +0.000 A 
ATOM     15  N   UNL     1       5.582   4.018  15.871  0.00  0.00    +0.000 NA
ATOM     16  C   UNL     1       4.721   3.851  16.902  0.00  0.00    +0.000 A 
ENDBRANCH   4  11
BRANCH   1  19
ATOM     17  C   UNL     1       1.968   8.404  17.566  0.00  0.00    +0.000 C 
ATOM     18  N   UNL     1       1.571   9.034  18.830  0.00  0.00    +0.000 N 
ATOM     19  C   UNL     1       1.589   8.355  20.081  0.00  0.00    +0.000 C 
ATOM     20  O   UNL     1       1.181   8.865  21.124  0.00  0.00    +0.000 OA
BRANCH  18  21
ATOM     21  C   UNL     1       0.963  10.361  18.699  0.00  0.00    +0.000 A 
ATOM     22  C   UNL     1       1.700  11.552  18.789  0.00  0.00    +0.000 A 
ATOM     23  C   UNL     1       1.083  12.814  18.764  0.00  0.00    +0.000 A 
ATOM     24  C   UNL     1      -0.294  12.915  18.633  0.00  0.00    +0.000 A 
ATOM     25  C   UNL     1      -1.049  11.761  18.494  0.00  0.00    +0.000 A 
ATOM     26  C   UNL     1      -0.426  10.505  18.513  0.00  0.00    +0.000 A 
ENDBRANCH  18  21
ENDBRANCH   1  19
TORSDOF 3
ENDMDL
MODEL 6
REMARK VINA RESULT:      -7.7      2.002      3.982
REMARK  Name = 
REMARK  4 active torsions:
REMARK  status: ('A' for Active; 'I' for Inactive)
REMARK    1  A    between atoms: C_1  and  N_2
REMARK    2  A    between atoms: N_2  and  C_20
REMARK    3  A    between atoms: C_3  and  C_5
REMARK    4  A    between atoms: C_8  and  C_9
REMARK                            x       y       z     vdW  Elec       q    Type
REMARK                         _______ _______ _______ _____ _____    ______ ____
ROOT
ATOM      1  C   UNL     1       2.588   7.975  18.091  0.00  0.00    +0.000 A 
ATOM      2  C   UNL     1       2.374   6.772  18.749  0.00  0.00    +0.000 A 
ATOM      3  C   UNL     1       3.297   5.795  18.283  0.00  0.00    +0.000 A 
ATOM      4  C   UNL     1       3.535   4.420  18.565  0.00  0.00    +0.000 A 
ATOM      5  C   UNL     1       4.487   3.764  17.754  0.00  0.00    +0.000 A 
ATOM      6  C   UNL     1       5.185   4.424  16.740  0.00  0.00    +0.000 A 
ATOM      7  C   UNL     1       5.002   5.786  16.516  0.00  0.00    +0.000 A 
ATOM      8  C   UNL     1       4.062   6.445  17.312  0.00  0.00    +0.000 A 
ATOM      9  N   UNL     1       3.722   7.781  17.346  0.00  0.00    +0.000 N 
ATOM     10  H   UNL     1       4.220   8.497  16.838  0.00  0.00    +0.000 HD
ENDROOT
BRANCH   4  11
ATOM     11  C   UNL     1       2.813   3.725  19.646  0.00  0.00    +0.000 A 
ATOM     12  C   UNL     1       3.448   3.160  20.743  0.00  0.00    +0.000 A 
ATOM     13  N   UNL     1       2.826   2.522  21.763  0.00  0.00    +0.000 NA
ATOM     14  C   UNL     1       1.493   2.445  21.670  0.00  0.00    +0.000 A 
ATOM     15  N   UNL     1       0.749   2.952  20.682  0.00  0.00    +0.000 NA
ATOM     16  C   UNL     1       1.433   3.589  19.702  0.00  0.00    +0.000 A 
ENDBRANCH   4  11
BRANCH   1  19
ATOM     17  C   UNL     1       1.239   8.480  20.691  0.00  0.00    +0.000 C 
ATOM     18  N   UNL     1       1.174   9.422  19.568  0.00  0.00    +0.000 N 
ATOM     19  C   UNL     1       1.809   9.188  18.316  0.00  0.00    +0.000 C 
ATOM     20  O   UNL     1       1.816  10.016  17.406  0.00  0.00    +0.000 OA
BRANCH  18  21
ATOM     21  C   UNL     1       0.573  10.721  19.881  0.00  0.00    +0.000 A 
ATOM     22  C   UNL     1       1.248  11.725  20.592  0.00  0.00    +0.000 A 
ATOM     23  C   UNL     1       0.617  12.922  20.970  0.00  0.00    +0.000 A 
ATOM     24  C   UNL     1      -0.708  13.150  20.632  0.00  0.00    +0.000 A 
ATOM     25  C   UNL     1      -1.392  12.200  19.890  0.00  0.00    +0.000 A 
ATOM     26  C   UNL     1      -0.755  11.011  19.510  0.00  0.00    +0.000 A 
ENDBRANCH  18  21
ENDBRANCH   1  19
TORSDOF 3
ENDMDL
MODEL 7
REMARK VINA RESULT:      -7.6      2.787      8.653
REMARK  Name = 
REMARK  4 active torsions:
REMARK  status: ('A' for Active; 'I' for Inactive)
REMARK    1  A    between atoms: C_1  and  N_2
REMARK    2  A    between atoms: N_2  and  C_20
REMARK    3  A    between atoms: C_3  and  C_5
REMARK    4  A    between atoms: C_8  and  C_9
REMARK                            x       y       z     vdW  Elec       q    Type
REMARK                         _______ _______ _______ _____ _____    ______ ____
ROOT
ATOM      1  C   UNL     1       1.160   9.486  19.041  0.00  0.00    +0.000 A 
ATOM      2  C   UNL     1      -0.080   9.878  18.553  0.00  0.00    +0.000 A 
ATOM      3  C   UNL     1      -0.631  10.888  19.390  0.00  0.00    +0.000 A 
ATOM      4  C   UNL     1      -1.845  11.631  19.403  0.00  0.00    +0.000 A 
ATOM      5  C   UNL     1      -2.066  12.462  20.524  0.00  0.00    +0.000 A 
ATOM      6  C   UNL     1      -1.139  12.576  21.562  0.00  0.00    +0.000 A 
ATOM      7  C   UNL     1       0.079  11.902  21.510  0.00  0.00    +0.000 A 
ATOM      8  C   UNL     1       0.309  11.079  20.405  0.00  0.00    +0.000 A 
ATOM      9  N   UNL     1       1.429  10.349  20.071  0.00  0.00    +0.000 N 
ATOM     10  H   UNL     1       2.307  10.414  20.567  0.00  0.00    +0.000 HD
ENDROOT
BRANCH   4  11
ATOM     11  C   UNL     1      -2.818  11.527  18.300  0.00  0.00    +0.000 A 
ATOM     12  C   UNL     1      -4.188  11.652  18.481  0.00  0.00    +0.000 A 
ATOM     13  N   UNL     1      -5.117  11.573  17.499  0.00  0.00    +0.000 NA
ATOM     14  C   UNL     1      -4.641  11.351  16.269  0.00  0.00    +0.000 A 
ATOM     15  N   UNL     1      -3.350  11.224  15.943  0.00  0.00    +0.000 NA
ATOM     16  C   UNL     1      -2.474  11.326  16.971  0.00  0.00    +0.000 A 
ENDBRANCH   4  11
BRANCH   1  19
ATOM     17  C   UNL     1       1.807   6.972  20.488  0.00  0.00    +0.000 C 
ATOM     18  N   UNL     1       2.294   7.255  19.133  0.00  0.00    +0.000 N 
ATOM     19  C   UNL     1       1.998   8.458  18.433  0.00  0.00    +0.000 C 
ATOM     20  O   UNL     1       2.343   8.657  17.269  0.00  0.00    +0.000 OA
BRANCH  18  21
ATOM     21  C   UNL     1       2.950   6.131  18.460  0.00  0.00    +0.000 A 
ATOM     22  C   UNL     1       4.295   6.157  18.061  0.00  0.00    +0.000 A 
ATOM     23  C   UNL     1       4.874   5.110  17.327  0.00  0.00    +0.000 A 
ATOM     24  C   UNL     1       4.121   3.997  16.982  0.00  0.00    +0.000 A 
ATOM     25  C   UNL     1       2.802   3.917  17.400  0.00  0.00    +0.000 A 
ATOM     26  C   UNL     1       2.231   4.962  18.139  0.00  0.00    +0.000 A 
ENDBRANCH  18  21
ENDBRANCH   1  19
TORSDOF 3
ENDMDL
MODEL 8
REMARK VINA RESULT:      -7.6      1.055      1.060
REMARK  Name = 
REMARK  4 active torsions:
REMARK  status: ('A' for Active; 'I' for Inactive)
REMARK    1  A    between atoms: C_1  and  N_2
REMARK    2  A    between atoms: N_2  and  C_20
REMARK    3  A    between atoms: C_3  and  C_5
REMARK    4  A    between atoms: C_8  and  C_9
REMARK                            x       y       z     vdW  Elec       q    Type
REMARK                         _______ _______ _______ _____ _____    ______ ____
ROOT
ATOM      1  C   UNL     1       2.148   6.523  19.634  0.00  0.00    +0.000 A 
ATOM      2  C   UNL     1       3.214   6.130  18.836  0.00  0.00    +0.000 A 
ATOM      3  C   UNL     1       3.198   4.717  18.670  0.00  0.00    +0.000 A 
ATOM      4  C   UNL     1       4.026   3.775  17.997  0.00  0.00    +0.000 A 
ATOM      5  C   UNL     1       3.728   2.409  18.206  0.00  0.00    +0.000 A 
ATOM      6  C   UNL     1       2.664   1.993  19.010  0.00  0.00    +0.000 A 
ATOM      7  C   UNL     1       1.814   2.919  19.607  0.00  0.00    +0.000 A 
ATOM      8  C   UNL     1       2.099   4.272  19.407  0.00  0.00    +0.000 A 
ATOM      9  N   UNL     1       1.405   5.387  19.826  0.00  0.00    +0.000 N 
ATOM     10  H   UNL     1       0.497   5.348  20.266  0.00  0.00    +0.000 HD
ENDROOT
BRANCH   4  11
ATOM     11  C   UNL     1       5.139   4.212  17.135  0.00  0.00    +0.000 A 
ATOM     12  C   UNL     1       6.375   4.604  17.630  0.00  0.00    +0.000 A 
ATOM     13  N   UNL     1       7.428   5.002  16.877  0.00  0.00    +0.000 NA
ATOM     14  C   UNL     1       7.223   5.011  15.554  0.00  0.00    +0.000 A 
ATOM     15  N   UNL     1       6.093   4.648  14.938  0.00  0.00    +0.000 NA
ATOM     16  C   UNL     1       5.086   4.248  15.749  0.00  0.00    +0.000 A 
ENDBRANCH   4  11
BRANCH   1  19
ATOM     17  C   UNL     1       1.495   8.587  17.597  0.00  0.00    +0.000 C 
ATOM     18  N   UNL     1       1.551   8.880  19.034  0.00  0.00    +0.000 N 
ATOM     19  C   UNL     1       1.870   7.903  20.018  0.00  0.00    +0.000 C 
ATOM     20  O   UNL     1       1.838   8.136  21.226  0.00  0.00    +0.000 OA
BRANCH  18  21
ATOM     21  C   UNL     1       1.063  10.208  19.417  0.00  0.00    +0.000 A 
ATOM     22  C   UNL     1       0.028  10.405  20.343  0.00  0.00    +0.000 A 
ATOM     23  C   UNL     1      -0.494  11.679  20.618  0.00  0.00    +0.000 A 
ATOM     24  C   UNL     1       0.020  12.798  19.978  0.00  0.00    +0.000 A 
ATOM     25  C   UNL     1       1.074  12.646  19.091  0.00  0.00    +0.000 A 
ATOM     26  C   UNL     1       1.595  11.372  18.826  0.00  0.00    +0.000 A 
ENDBRANCH  18  21
ENDBRANCH   1  19
TORSDOF 3
ENDMDL
MODEL 9
REMARK VINA RESULT:      -7.5      1.003      1.142
REMARK  Name = 
REMARK  4 active torsions:
REMARK  status: ('A' for Active; 'I' for Inactive)
REMARK    1  A    between atoms: C_1  and  N_2
REMARK    2  A    between atoms: N_2  and  C_20
REMARK    3  A    between atoms: C_3  and  C_5
REMARK    4  A    between atoms: C_8  and  C_9
REMARK                            x       y       z     vdW  Elec       q    Type
REMARK                         _______ _______ _______ _____ _____    ______ ____
ROOT
ATOM      1  C   UNL     1       1.890   7.320  20.201  0.00  0.00    +0.000 A 
ATOM      2  C   UNL     1       2.742   6.873  19.201  0.00  0.00    +0.000 A 
ATOM      3  C   UNL     1       2.991   5.482  19.364  0.00  0.00    +0.000 A 
ATOM      4  C   UNL     1       3.777   4.514  18.678  0.00  0.00    +0.000 A 
ATOM      5  C   UNL     1       3.860   3.233  19.268  0.00  0.00    +0.000 A 
ATOM      6  C   UNL     1       3.188   2.912  20.450  0.00  0.00    +0.000 A 
ATOM      7  C   UNL     1       2.363   3.841  21.078  0.00  0.00    +0.000 A 
ATOM      8  C   UNL     1       2.274   5.110  20.503  0.00  0.00    +0.000 A 
ATOM      9  N   UNL     1       1.502   6.191  20.874  0.00  0.00    +0.000 N 
ATOM     10  H   UNL     1       0.789   6.149  21.588  0.00  0.00    +0.000 HD
ENDROOT
BRANCH   4  11
ATOM     11  C   UNL     1       4.473   4.844  17.421  0.00  0.00    +0.000 A 
ATOM     12  C   UNL     1       4.876   3.887  16.500  0.00  0.00    +0.000 A 
ATOM     13  N   UNL     1       5.507   4.144  15.330  0.00  0.00    +0.000 NA
ATOM     14  C   UNL     1       5.750   5.435  15.075  0.00  0.00    +0.000 A 
ATOM     15  N   UNL     1       5.409   6.463  15.861  0.00  0.00    +0.000 NA
ATOM     16  C   UNL     1       4.769   6.136  17.008  0.00  0.00    +0.000 A 
ENDBRANCH   4  11
BRANCH   1  19
ATOM     17  C   UNL     1       1.423   9.041  17.823  0.00  0.00    +0.000 C 
ATOM     18  N   UNL     1       1.210   9.511  19.196  0.00  0.00    +0.000 N 
ATOM     19  C   UNL     1       1.437   8.700  20.343  0.00  0.00    +0.000 C 
ATOM     20  O   UNL     1       1.182   9.074  21.487  0.00  0.00    +0.000 OA
BRANCH  18  21
ATOM     21  C   UNL     1       0.556  10.818  19.311  0.00  0.00    +0.000 A 
ATOM     22  C   UNL     1      -0.838  10.975  19.340  0.00  0.00    +0.000 A 
ATOM     23  C   UNL     1      -1.445  12.242  19.347  0.00  0.00    +0.000 A 
ATOM     24  C   UNL     1      -0.666  13.390  19.338  0.00  0.00    +0.000 A 
ATOM     25  C   UNL     1       0.715  13.271  19.356  0.00  0.00    +0.000 A 
ATOM     26  C   UNL     1       1.314  12.005  19.357  0.00  0.00    +0.000 A 
ENDBRANCH  18  21
ENDBRANCH   1  19
TORSDOF 3
ENDMDL
