MODEL 1
REMARK VINA RESULT:      -8.6      0.000      0.000
REMARK  Name = 
REMARK  7 active torsions:
REMARK  status: ('A' for Active; 'I' for Inactive)
REMARK    1  A    between atoms: C_1  and  C_2
REMARK    2  A    between atoms: N_4  and  C_5
REMARK    3  A    between atoms: C_9  and  C_10
REMARK    4  A    between atoms: C_10  and  N_11
REMARK    5  A    between atoms: N_14  and  C_15
REMARK    6  A    between atoms: C_15  and  C_17
REMARK    7  A    between atoms: N_21  and  C_22
REMARK                            x       y       z     vdW  Elec       q    Type
REMARK                         _______ _______ _______ _____ _____    ______ ____
ROOT
ATOM      1  N   UNL     1       0.758   9.228  20.331  0.00  0.00    +0.000 N 
ATOM      2  C   UNL     1       1.332   8.030  20.652  0.00  0.00    +0.000 C 
ATOM      3  N   UNL     1       1.900   8.133  21.882  0.00  0.00    +0.000 N 
ATOM      4  N   UNL     1       1.338   7.008  19.867  0.00  0.00    +0.000 NA
ATOM      5  H   UNL     1       1.017   9.956  20.984  0.00  0.00    +0.000 HD
ATOM      6  H   UNL     1       1.298   8.531  22.590  0.00  0.00    +0.000 HD
ATOM      7  H   UNL     1       2.263   7.231  22.207  0.00  0.00    +0.000 HD
ENDROOT
BRANCH   4   8
ATOM      8  C   UNL     1       1.893   5.805  20.271  0.00  0.00    +0.000 C 
ATOM      9  O   UNL     1       2.387   5.595  21.382  0.00  0.00    +0.000 OA
BRANCH   8  10
ATOM     10  C   UNL     1       1.754   4.717  19.189  0.00  0.00    +0.000 C 
ATOM     11  C   UNL     1       1.277   3.401  19.815  0.00  0.00    +0.000 C 
ATOM     12  C   UNL     1       1.506   2.407  18.688  0.00  0.00    +0.000 C 
ATOM     13  C   UNL     1       2.808   2.882  18.033  0.00  0.00    +0.000 C 
ATOM     14  N   UNL     1       2.980   4.264  18.493  0.00  0.00    +0.000 N 
BRANCH  14  15
ATOM     15  C   UNL     1       4.111   4.995  18.230  0.00  0.00    +0.000 A 
ATOM     16  C   UNL     1       4.161   5.979  17.233  0.00  0.00    +0.000 A 
ATOM     17  C   UNL     1       5.315   6.739  16.997  0.00  0.00    +0.000 A 
ATOM     18  C   UNL     1       6.456   6.524  17.760  0.00  0.00    +0.000 A 
ATOM     19 CL   UNL     1       7.876   7.448  17.472  0.00  0.00    +0.000 Cl
ATOM     20  C   UNL     1       6.448   5.557  18.754  0.00  0.00    +0.000 A 
ATOM     21  C   UNL     1       5.289   4.804  18.976  0.00  0.00    +0.000 A 
ENDBRANCH  14  15
ENDBRANCH   8  10
ENDBRANCH   4   8
BRANCH   1  22
ATOM     22  C   UNL     1       0.739   9.734  18.968  0.00  0.00    +0.000 C 
BRANCH  22  27
ATOM     23  C   UNL     1      -3.058  11.505  17.824  0.00  0.00    +0.000 A 
ATOM     24  C   UNL     1      -2.442  11.862  19.037  0.00  0.00    +0.000 A 
ATOM     25 CL   UNL     1      -3.199  12.898  20.201  0.00  0.00    +0.000 Cl
ATOM     26  C   UNL     1      -1.222  11.279  19.414  0.00  0.00    +0.000 A 
ATOM     27  C   UNL     1      -0.596  10.328  18.595  0.00  0.00    +0.000 A 
ATOM     28  C   UNL     1      -1.236   9.936  17.415  0.00  0.00    +0.000 A 
ATOM     29  C   UNL     1      -2.459  10.501  17.046  0.00  0.00    +0.000 A 
ATOM     30 CL   UNL     1      -3.185   9.964  15.567  0.00  0.00    +0.000 Cl
BRANCH  23  34
ATOM     31  C   UNL     1      -6.644  12.408  17.178  0.00  0.00    +0.000 C 
ATOM     32  C   UNL     1      -5.508  11.611  17.764  0.00  0.00    +0.000 C 
ATOM     33  O   UNL     1      -5.700  10.700  18.562  0.00  0.00    +0.000 OA
ATOM     34  N   UNL     1      -4.270  12.084  17.359  0.00  0.00    +0.000 N 
ATOM     35  H   UNL     1      -4.237  13.088  17.211  0.00  0.00    +0.000 HD
ENDBRANCH  23  34
ENDBRANCH  22  27
ENDBRANCH   1  22
TORSDOF 6
ENDMDL
MODEL 2
REMARK VINA RESULT:      -8.5      0.177      1.858
REMARK  Name = 
REMARK  7 active torsions:
REMARK  status: ('A' for Active; 'I' for Inactive)
REMARK    1  A    between atoms: C_1  and  C_2
REMARK    2  A    between atoms: N_4  and  C_5
REMARK    3  A    between atoms: C_9  and  C_10
REMARK    4  A    between atoms: C_10  and  N_11
REMARK    5  A    between atoms: N_14  and  C_15
REMARK    6  A    between atoms: C_15  and  C_17
REMARK    7  A    between atoms: N_21  and  C_22
REMARK                            x       y       z     vdW  Elec       q    Type
REMARK                         _______ _______ _______ _____ _____    ______ ____
ROOT
ATOM      1  N   UNL     1       0.722   9.210  20.295  0.00  0.00    +0.000 N 
ATOM      2  C   UNL     1       1.288   8.013  20.636  0.00  0.00    +0.000 C 
ATOM      3  N   UNL     1       1.836   8.126  21.874  0.00  0.00    +0.000 N 
ATOM      4  N   UNL     1       1.303   6.984  19.861  0.00  0.00    +0.000 NA
ATOM      5  H   UNL     1       0.973   9.943  20.945  0.00  0.00    +0.000 HD
ATOM      6  H   UNL     1       1.224   8.532  22.569  0.00  0.00    +0.000 HD
ATOM      7  H   UNL     1       2.191   7.226  22.213  0.00  0.00    +0.000 HD
ENDROOT
BRANCH   4   8
ATOM      8  C   UNL     1       1.848   5.783  20.284  0.00  0.00    +0.000 C 
ATOM      9  O   UNL     1       2.301   5.575  21.413  0.00  0.00    +0.000 OA
BRANCH   8  10
ATOM     10  C   UNL     1       1.756   4.696  19.197  0.00  0.00    +0.000 C 
ATOM     11  C   UNL     1       1.282   3.372  19.807  0.00  0.00    +0.000 C 
ATOM     12  C   UNL     1       1.556   2.384  18.685  0.00  0.00    +0.000 C 
ATOM     13  C   UNL     1       2.868   2.879  18.068  0.00  0.00    +0.000 C 
ATOM     14  N   UNL     1       3.007   4.263  18.534  0.00  0.00    +0.000 N 
BRANCH  14  15
ATOM     15  C   UNL     1       4.134   5.011  18.304  0.00  0.00    +0.000 A 
ATOM     16  C   UNL     1       5.322   4.831  19.025  0.00  0.00    +0.000 A 
ATOM     17  C   UNL     1       6.475   5.583  18.755  0.00  0.00    +0.000 A 
ATOM     18  C   UNL     1       6.458   6.543  17.751  0.00  0.00    +0.000 A 
ATOM     19 CL   UNL     1       7.866   7.472  17.420  0.00  0.00    +0.000 Cl
ATOM     20  C   UNL     1       5.301   6.753  17.018  0.00  0.00    +0.000 A 
ATOM     21  C   UNL     1       4.158   5.997  17.300  0.00  0.00    +0.000 A 
ENDBRANCH  14  15
ENDBRANCH   8  10
ENDBRANCH   4   8
BRANCH   1  22
ATOM     22  C   UNL     1       0.726   9.703  18.928  0.00  0.00    +0.000 C 
BRANCH  22  27
ATOM     23  C   UNL     1      -3.099  11.475  17.886  0.00  0.00    +0.000 A 
ATOM     24  C   UNL     1      -2.439  10.624  16.981  0.00  0.00    +0.000 A 
ATOM     25 CL   UNL     1      -3.016  10.340  15.373  0.00  0.00    +0.000 Cl
ATOM     26  C   UNL     1      -1.195  10.063  17.312  0.00  0.00    +0.000 A 
ATOM     27  C   UNL     1      -0.585  10.341  18.544  0.00  0.00    +0.000 A 
ATOM     28  C   UNL     1      -1.219  11.229  19.419  0.00  0.00    +0.000 A 
ATOM     29  C   UNL     1      -2.448  11.804  19.086  0.00  0.00    +0.000 A 
ATOM     30 CL   UNL     1      -3.170  12.890  20.226  0.00  0.00    +0.000 Cl
BRANCH  23  34
ATOM     31  C   UNL     1      -6.774  12.205  17.654  0.00  0.00    +0.000 C 
ATOM     32  C   UNL     1      -5.550  11.388  17.971  0.00  0.00    +0.000 C 
ATOM     33  O   UNL     1      -5.624  10.299  18.529  0.00  0.00    +0.000 OA
ATOM     34  N   UNL     1      -4.378  12.046  17.635  0.00  0.00    +0.000 N 
ATOM     35  H   UNL     1      -4.424  13.056  17.737  0.00  0.00    +0.000 HD
ENDBRANCH  23  34
ENDBRANCH  22  27
ENDBRANCH   1  22
TORSDOF 6
ENDMDL
MODEL 3
REMARK VINA RESULT:      -8.2      6.619      9.617
REMARK  Name = 
REMARK  7 active torsions:
REMARK  status: ('A' for Active; 'I' for Inactive)
REMARK    1  A    between atoms: C_1  and  C_2
REMARK    2  A    between atoms: N_4  and  C_5
REMARK    3  A    between atoms: C_9  and  C_10
REMARK    4  A    between atoms: C_10  and  N_11
REMARK    5  A    between atoms: N_14  and  C_15
REMARK    6  A    between atoms: C_15  and  C_17
REMARK    7  A    between atoms: N_21  and  C_22
REMARK                            x       y       z     vdW  Elec       q    Type
REMARK                         _______ _______ _______ _____ _____    ______ ____
ROOT
ATOM      1  N   UNL     1       7.871   8.126  18.549  0.00  0.00    +0.000 N 
ATOM      2  C   UNL     1       7.891   6.764  18.425  0.00  0.00    +0.000 C 
ATOM      3  N   UNL     1       8.258   6.223  19.616  0.00  0.00    +0.000 N 
ATOM      4  N   UNL     1       7.629   6.142  17.328  0.00  0.00    +0.000 NA
ATOM      5  H   UNL     1       8.283   8.430  19.421  0.00  0.00    +0.000 HD
ATOM      6  H   UNL     1       7.750   6.581  20.415  0.00  0.00    +0.000 HD
ATOM      7  H   UNL     1       8.197   5.200  19.601  0.00  0.00    +0.000 HD
ENDROOT
BRANCH   4   8
ATOM      8  C   UNL     1       7.618   4.759  17.280  0.00  0.00    +0.000 C 
ATOM      9  O   UNL     1       8.149   4.021  18.115  0.00  0.00    +0.000 OA
BRANCH   8  10
ATOM     10  C   UNL     1       6.789   4.233  16.093  0.00  0.00    +0.000 C 
ATOM     11  C   UNL     1       7.284   4.853  14.781  0.00  0.00    +0.000 C 
ATOM     12  C   UNL     1       6.177   4.477  13.809  0.00  0.00    +0.000 C 
ATOM     13  C   UNL     1       4.896   4.593  14.643  0.00  0.00    +0.000 C 
ATOM     14  N   UNL     1       5.350   4.580  16.038  0.00  0.00    +0.000 N 
BRANCH  14  15
ATOM     15  C   UNL     1       4.502   4.802  17.093  0.00  0.00    +0.000 A 
ATOM     16  C   UNL     1       4.053   3.773  17.932  0.00  0.00    +0.000 A 
ATOM     17  C   UNL     1       3.212   4.022  19.026  0.00  0.00    +0.000 A 
ATOM     18  C   UNL     1       2.795   5.318  19.301  0.00  0.00    +0.000 A 
ATOM     19 CL   UNL     1       1.759   5.629  20.637  0.00  0.00    +0.000 Cl
ATOM     20  C   UNL     1       3.215   6.363  18.492  0.00  0.00    +0.000 A 
ATOM     21  C   UNL     1       4.053   6.099  17.402  0.00  0.00    +0.000 A 
ENDBRANCH  14  15
ENDBRANCH   8  10
ENDBRANCH   4   8
BRANCH   1  22
ATOM     22  C   UNL     1       8.255   9.005  17.457  0.00  0.00    +0.000 C 
BRANCH  22  27
ATOM     23  C   UNL     1       9.572  12.933  18.758  0.00  0.00    +0.000 A 
ATOM     24  C   UNL     1      10.266  11.778  19.164  0.00  0.00    +0.000 A 
ATOM     25 CL   UNL     1      11.574  11.824  20.298  0.00  0.00    +0.000 Cl
ATOM     26  C   UNL     1       9.831  10.508  18.756  0.00  0.00    +0.000 A 
ATOM     27  C   UNL     1       8.699  10.362  17.941  0.00  0.00    +0.000 A 
ATOM     28  C   UNL     1       7.981  11.507  17.581  0.00  0.00    +0.000 A 
ATOM     29  C   UNL     1       8.400  12.772  18.002  0.00  0.00    +0.000 A 
ATOM     30 CL   UNL     1       7.458  14.141  17.511  0.00  0.00    +0.000 Cl
BRANCH  23  34
ATOM     31  C   UNL     1      11.113  16.354  18.850  0.00  0.00    +0.000 C 
ATOM     32  C   UNL     1      10.870  14.967  18.317  0.00  0.00    +0.000 C 
ATOM     33  O   UNL     1      11.370  14.580  17.266  0.00  0.00    +0.000 OA
ATOM     34  N   UNL     1       9.978  14.252  19.098  0.00  0.00    +0.000 N 
ATOM     35  H   UNL     1       9.260  14.823  19.537  0.00  0.00    +0.000 HD
ENDBRANCH  23  34
ENDBRANCH  22  27
ENDBRANCH   1  22
TORSDOF 6
ENDMDL
MODEL 4
REMARK VINA RESULT:      -8.2      6.775      9.485
REMARK  Name = 
REMARK  7 active torsions:
REMARK  status: ('A' for Active; 'I' for Inactive)
REMARK    1  A    between atoms: C_1  and  C_2
REMARK    2  A    between atoms: N_4  and  C_5
REMARK    3  A    between atoms: C_9  and  C_10
REMARK    4  A    between atoms: C_10  and  N_11
REMARK    5  A    between atoms: N_14  and  C_15
REMARK    6  A    between atoms: C_15  and  C_17
REMARK    7  A    between atoms: N_21  and  C_22
REMARK                            x       y       z     vdW  Elec       q    Type
REMARK                         _______ _______ _______ _____ _____    ______ ____
ROOT
ATOM      1  N   UNL     1       8.419   7.912  18.952  0.00  0.00    +0.000 N 
ATOM      2  C   UNL     1       7.988   6.616  18.890  0.00  0.00    +0.000 C 
ATOM      3  N   UNL     1       8.781   5.854  19.688  0.00  0.00    +0.000 N 
ATOM      4  N   UNL     1       7.006   6.224  18.155  0.00  0.00    +0.000 NA
ATOM      5  H   UNL     1       9.308   7.990  19.429  0.00  0.00    +0.000 HD
ATOM      6  H   UNL     1       8.919   6.223  20.619  0.00  0.00    +0.000 HD
ATOM      7  H   UNL     1       8.440   4.889  19.749  0.00  0.00    +0.000 HD
ENDROOT
BRANCH   4   8
ATOM      8  C   UNL     1       6.585   4.905  18.175  0.00  0.00    +0.000 C 
ATOM      9  O   UNL     1       6.295   4.273  19.195  0.00  0.00    +0.000 OA
BRANCH   8  10
ATOM     10  C   UNL     1       6.441   4.327  16.754  0.00  0.00    +0.000 C 
ATOM     11  C   UNL     1       6.965   5.327  15.716  0.00  0.00    +0.000 C 
ATOM     12  C   UNL     1       6.458   4.733  14.412  0.00  0.00    +0.000 C 
ATOM     13  C   UNL     1       5.077   4.174  14.771  0.00  0.00    +0.000 C 
ATOM     14  N   UNL     1       5.077   4.079  16.236  0.00  0.00    +0.000 N 
BRANCH  14  15
ATOM     15  C   UNL     1       3.957   3.745  16.954  0.00  0.00    +0.000 A 
ATOM     16  C   UNL     1       2.980   4.683  17.313  0.00  0.00    +0.000 A 
ATOM     17  C   UNL     1       1.825   4.319  18.020  0.00  0.00    +0.000 A 
ATOM     18  C   UNL     1       1.627   2.996  18.391  0.00  0.00    +0.000 A 
ATOM     19 CL   UNL     1       0.217   2.544  19.264  0.00  0.00    +0.000 Cl
ATOM     20  C   UNL     1       2.572   2.038  18.058  0.00  0.00    +0.000 A 
ATOM     21  C   UNL     1       3.721   2.416  17.354  0.00  0.00    +0.000 A 
ENDBRANCH  14  15
ENDBRANCH   8  10
ENDBRANCH   4   8
BRANCH   1  22
ATOM     22  C   UNL     1       8.367   8.797  17.800  0.00  0.00    +0.000 C 
BRANCH  22  27
ATOM     23  C   UNL     1       9.689  12.843  18.661  0.00  0.00    +0.000 A 
ATOM     24  C   UNL     1      10.409  11.739  19.151  0.00  0.00    +0.000 A 
ATOM     25 CL   UNL     1      11.758  11.905  20.226  0.00  0.00    +0.000 Cl
ATOM     26  C   UNL     1       9.973  10.431  18.886  0.00  0.00    +0.000 A 
ATOM     27  C   UNL     1       8.814  10.198  18.133  0.00  0.00    +0.000 A 
ATOM     28  C   UNL     1       8.071  11.298  17.690  0.00  0.00    +0.000 A 
ATOM     29  C   UNL     1       8.491  12.601  17.968  0.00  0.00    +0.000 A 
ATOM     30 CL   UNL     1       7.518  13.909  17.382  0.00  0.00    +0.000 Cl
BRANCH  23  34
ATOM     31  C   UNL     1      10.351  16.283  20.010  0.00  0.00    +0.000 C 
ATOM     32  C   UNL     1       9.780  14.890  20.010  0.00  0.00    +0.000 C 
ATOM     33  O   UNL     1       9.173  14.439  20.976  0.00  0.00    +0.000 OA
ATOM     34  N   UNL     1      10.093  14.193  18.855  0.00  0.00    +0.000 N 
ATOM     35  H   UNL     1      10.997  14.432  18.457  0.00  0.00    +0.000 HD
ENDBRANCH  23  34
ENDBRANCH  22  27
ENDBRANCH   1  22
TORSDOF 6
ENDMDL
MODEL 5
REMARK VINA RESULT:      -8.1      6.753      9.667
REMARK  Name = 
REMARK  7 active torsions:
REMARK  status: ('A' for Active; 'I' for Inactive)
REMARK    1  A    between atoms: C_1  and  C_2
REMARK    2  A    between atoms: N_4  and  C_5
REMARK    3  A    between atoms: C_9  and  C_10
REMARK    4  A    between atoms: C_10  and  N_11
REMARK    5  A    between atoms: N_14  and  C_15
REMARK    6  A    between atoms: C_15  and  C_17
REMARK    7  A    between atoms: N_21  and  C_22
REMARK                            x       y       z     vdW  Elec       q    Type
REMARK                         _______ _______ _______ _____ _____    ______ ____
ROOT
ATOM      1  N   UNL     1       7.873   8.138  18.541  0.00  0.00    +0.000 N 
ATOM      2  C   UNL     1       7.884   6.776  18.421  0.00  0.00    +0.000 C 
ATOM      3  N   UNL     1       8.247   6.235  19.613  0.00  0.00    +0.000 N 
ATOM      4  N   UNL     1       7.620   6.154  17.324  0.00  0.00    +0.000 NA
ATOM      5  H   UNL     1       8.286   8.442  19.413  0.00  0.00    +0.000 HD
ATOM      6  H   UNL     1       7.740   6.598  20.410  0.00  0.00    +0.000 HD
ATOM      7  H   UNL     1       8.179   5.213  19.600  0.00  0.00    +0.000 HD
ENDROOT
BRANCH   4   8
ATOM      8  C   UNL     1       7.599   4.770  17.279  0.00  0.00    +0.000 C 
ATOM      9  O   UNL     1       8.037   4.030  18.165  0.00  0.00    +0.000 OA
BRANCH   8  10
ATOM     10  C   UNL     1       6.888   4.248  16.016  0.00  0.00    +0.000 C 
ATOM     11  C   UNL     1       7.368   5.015  14.779  0.00  0.00    +0.000 C 
ATOM     12  C   UNL     1       6.355   4.595  13.726  0.00  0.00    +0.000 C 
ATOM     13  C   UNL     1       5.034   4.508  14.498  0.00  0.00    +0.000 C 
ATOM     14  N   UNL     1       5.424   4.439  15.910  0.00  0.00    +0.000 N 
BRANCH  14  15
ATOM     15  C   UNL     1       4.510   4.488  16.933  0.00  0.00    +0.000 A 
ATOM     16  C   UNL     1       3.974   5.692  17.410  0.00  0.00    +0.000 A 
ATOM     17  C   UNL     1       3.016   5.722  18.435  0.00  0.00    +0.000 A 
ATOM     18  C   UNL     1       2.578   4.537  19.011  0.00  0.00    +0.000 A 
ATOM     19 CL   UNL     1       1.410   4.568  20.271  0.00  0.00    +0.000 Cl
ATOM     20  C   UNL     1       3.088   3.326  18.569  0.00  0.00    +0.000 A 
ATOM     21  C   UNL     1       4.044   3.311  17.547  0.00  0.00    +0.000 A 
ENDBRANCH  14  15
ENDBRANCH   8  10
ENDBRANCH   4   8
BRANCH   1  22
ATOM     22  C   UNL     1       8.264   9.012  17.448  0.00  0.00    +0.000 C 
BRANCH  22  27
ATOM     23  C   UNL     1       9.529  12.893  18.930  0.00  0.00    +0.000 A 
ATOM     24  C   UNL     1       8.408  12.783  18.087  0.00  0.00    +0.000 A 
ATOM     25 CL   UNL     1       7.558  14.164  17.477  0.00  0.00    +0.000 Cl
ATOM     26  C   UNL     1       8.008  11.531  17.596  0.00  0.00    +0.000 A 
ATOM     27  C   UNL     1       8.716  10.367  17.930  0.00  0.00    +0.000 A 
ATOM     28  C   UNL     1       9.861  10.486  18.726  0.00  0.00    +0.000 A 
ATOM     29  C   UNL     1      10.272  11.733  19.201  0.00  0.00    +0.000 A 
ATOM     30 CL   UNL     1      11.698  11.795  20.184  0.00  0.00    +0.000 Cl
BRANCH  23  34
ATOM     31  C   UNL     1      11.101  16.236  19.595  0.00  0.00    +0.000 C 
ATOM     32  C   UNL     1      10.812  14.981  18.815  0.00  0.00    +0.000 C 
ATOM     33  O   UNL     1      11.239  14.812  17.678  0.00  0.00    +0.000 OA
ATOM     34  N   UNL     1       9.967  14.121  19.497  0.00  0.00    +0.000 N 
ATOM     35  H   UNL     1       9.284  14.590  20.086  0.00  0.00    +0.000 HD
ENDBRANCH  23  34
ENDBRANCH  22  27
ENDBRANCH   1  22
TORSDOF 6
ENDMDL
MODEL 6
REMARK VINA RESULT:      -8.1      5.231      9.244
REMARK  Name = 
REMARK  7 active torsions:
REMARK  status: ('A' for Active; 'I' for Inactive)
REMARK    1  A    between atoms: C_1  and  C_2
REMARK    2  A    between atoms: N_4  and  C_5
REMARK    3  A    between atoms: C_9  and  C_10
REMARK    4  A    between atoms: C_10  and  N_11
REMARK    5  A    between atoms: N_14  and  C_15
REMARK    6  A    between atoms: C_15  and  C_17
REMARK    7  A    between atoms: N_21  and  C_22
REMARK                            x       y       z     vdW  Elec       q    Type
REMARK                         _______ _______ _______ _____ _____    ______ ____
ROOT
ATOM      1  N   UNL     1       7.619   7.712  17.224  0.00  0.00    +0.000 N 
ATOM      2  C   UNL     1       6.515   6.906  17.156  0.00  0.00    +0.000 C 
ATOM      3  N   UNL     1       5.744   7.310  16.112  0.00  0.00    +0.000 N 
ATOM      4  N   UNL     1       6.273   5.955  17.989  0.00  0.00    +0.000 NA
ATOM      5  H   UNL     1       7.540   8.510  16.609  0.00  0.00    +0.000 HD
ATOM      6  H   UNL     1       6.247   7.436  15.243  0.00  0.00    +0.000 HD
ATOM      7  H   UNL     1       4.952   6.678  15.962  0.00  0.00    +0.000 HD
ENDROOT
BRANCH   4   8
ATOM      8  C   UNL     1       5.163   5.141  17.836  0.00  0.00    +0.000 C 
ATOM      9  O   UNL     1       4.695   4.785  16.751  0.00  0.00    +0.000 OA
BRANCH   8  10
ATOM     10  C   UNL     1       4.613   4.660  19.193  0.00  0.00    +0.000 C 
ATOM     11  C   UNL     1       4.306   3.159  19.140  0.00  0.00    +0.000 C 
ATOM     12  C   UNL     1       3.502   2.950  20.413  0.00  0.00    +0.000 C 
ATOM     13  C   UNL     1       2.655   4.221  20.530  0.00  0.00    +0.000 C 
ATOM     14  N   UNL     1       3.309   5.194  19.646  0.00  0.00    +0.000 N 
BRANCH  14  15
ATOM     15  C   UNL     1       2.767   6.424  19.372  0.00  0.00    +0.000 A 
ATOM     16  C   UNL     1       2.814   7.003  18.096  0.00  0.00    +0.000 A 
ATOM     17  C   UNL     1       2.227   8.247  17.825  0.00  0.00    +0.000 A 
ATOM     18  C   UNL     1       1.581   8.946  18.836  0.00  0.00    +0.000 A 
ATOM     19 CL   UNL     1       0.866  10.475  18.511  0.00  0.00    +0.000 Cl
ATOM     20  C   UNL     1       1.517   8.408  20.113  0.00  0.00    +0.000 A 
ATOM     21  C   UNL     1       2.109   7.166  20.369  0.00  0.00    +0.000 A 
ENDBRANCH  14  15
ENDBRANCH   8  10
ENDBRANCH   4   8
BRANCH   1  22
ATOM     22  C   UNL     1       8.220   8.089  18.492  0.00  0.00    +0.000 C 
BRANCH  22  27
ATOM     23  C   UNL     1       9.506  12.237  18.462  0.00  0.00    +0.000 A 
ATOM     24  C   UNL     1      10.205  11.280  19.220  0.00  0.00    +0.000 A 
ATOM     25 CL   UNL     1      11.508  11.698  20.282  0.00  0.00    +0.000 Cl
ATOM     26  C   UNL     1       9.780   9.942  19.242  0.00  0.00    +0.000 A 
ATOM     27  C   UNL     1       8.653   9.533  18.515  0.00  0.00    +0.000 A 
ATOM     28  C   UNL     1       7.929  10.496  17.804  0.00  0.00    +0.000 A 
ATOM     29  C   UNL     1       8.338  11.832  17.796  0.00  0.00    +0.000 A 
ATOM     30 CL   UNL     1       7.390  12.963  16.888  0.00  0.00    +0.000 Cl
BRANCH  23  34
ATOM     31  C   UNL     1      11.024  15.518  17.451  0.00  0.00    +0.000 C 
ATOM     32  C   UNL     1      10.792  14.031  17.392  0.00  0.00    +0.000 C 
ATOM     33  O   UNL     1      11.299  13.330  16.523  0.00  0.00    +0.000 OA
ATOM     34  N   UNL     1       9.901  13.599  18.361  0.00  0.00    +0.000 N 
ATOM     35  H   UNL     1       9.178  14.274  18.591  0.00  0.00    +0.000 HD
ENDBRANCH  23  34
ENDBRANCH  22  27
ENDBRANCH   1  22
TORSDOF 6
ENDMDL
MODEL 7
REMARK VINA RESULT:      -8.1      2.800      9.518
REMARK  Name = 
REMARK  7 active torsions:
REMARK  status: ('A' for Active; 'I' for Inactive)
REMARK    1  A    between atoms: C_1  and  C_2
REMARK    2  A    between atoms: N_4  and  C_5
REMARK    3  A    between atoms: C_9  and  C_10
REMARK    4  A    between atoms: C_10  and  N_11
REMARK    5  A    between atoms: N_14  and  C_15
REMARK    6  A    between atoms: C_15  and  C_17
REMARK    7  A    between atoms: N_21  and  C_22
REMARK                            x       y       z     vdW  Elec       q    Type
REMARK                         _______ _______ _______ _____ _____    ______ ____
ROOT
ATOM      1  N   UNL     1       1.969   7.296  21.227  0.00  0.00    +0.000 N 
ATOM      2  C   UNL     1       1.307   8.487  21.339  0.00  0.00    +0.000 C 
ATOM      3  N   UNL     1       1.619   9.048  22.537  0.00  0.00    +0.000 N 
ATOM      4  N   UNL     1       0.503   8.944  20.444  0.00  0.00    +0.000 NA
ATOM      5  H   UNL     1       2.399   7.021  22.100  0.00  0.00    +0.000 HD
ATOM      6  H   UNL     1       2.609   9.079  22.741  0.00  0.00    +0.000 HD
ATOM      7  H   UNL     1       1.220   9.988  22.629  0.00  0.00    +0.000 HD
ENDROOT
BRANCH   4   8
ATOM      8  C   UNL     1      -0.099  10.182  20.594  0.00  0.00    +0.000 C 
ATOM      9  O   UNL     1      -0.828  10.501  21.538  0.00  0.00    +0.000 OA
BRANCH   8  10
ATOM     10  C   UNL     1       0.309  11.159  19.475  0.00  0.00    +0.000 C 
ATOM     11  C   UNL     1       1.288  12.209  20.014  0.00  0.00    +0.000 C 
ATOM     12  C   UNL     1       1.317  13.230  18.889  0.00  0.00    +0.000 C 
ATOM     13  C   UNL     1      -0.128  13.262  18.380  0.00  0.00    +0.000 C 
ATOM     14  N   UNL     1      -0.737  12.029  18.892  0.00  0.00    +0.000 N 
BRANCH  14  15
ATOM     15  C   UNL     1      -2.075  11.757  18.762  0.00  0.00    +0.000 A 
ATOM     16  C   UNL     1      -3.057  12.406  19.523  0.00  0.00    +0.000 A 
ATOM     17  C   UNL     1      -4.423  12.139  19.355  0.00  0.00    +0.000 A 
ATOM     18  C   UNL     1      -4.837  11.203  18.416  0.00  0.00    +0.000 A 
ATOM     19 CL   UNL     1      -6.510  10.866  18.210  0.00  0.00    +0.000 Cl
ATOM     20  C   UNL     1      -3.896  10.537  17.646  0.00  0.00    +0.000 A 
ATOM     21  C   UNL     1      -2.536  10.812  17.826  0.00  0.00    +0.000 A 
ENDBRANCH  14  15
ENDBRANCH   8  10
ENDBRANCH   4   8
BRANCH   1  22
ATOM     22  C   UNL     1       1.384   6.150  20.551  0.00  0.00    +0.000 C 
BRANCH  22  27
ATOM     23  C   UNL     1       3.794   4.738  17.227  0.00  0.00    +0.000 A 
ATOM     24  C   UNL     1       3.110   3.824  18.049  0.00  0.00    +0.000 A 
ATOM     25 CL   UNL     1       3.287   2.108  17.889  0.00  0.00    +0.000 Cl
ATOM     26  C   UNL     1       2.343   4.280  19.132  0.00  0.00    +0.000 A 
ATOM     27  C   UNL     1       2.246   5.649  19.420  0.00  0.00    +0.000 A 
ATOM     28  C   UNL     1       2.969   6.551  18.633  0.00  0.00    +0.000 A 
ATOM     29  C   UNL     1       3.748   6.100  17.565  0.00  0.00    +0.000 A 
ATOM     30 CL   UNL     1       4.611   7.281  16.636  0.00  0.00    +0.000 Cl
BRANCH  23  34
ATOM     31  C   UNL     1       6.510   3.737  14.836  0.00  0.00    +0.000 C 
ATOM     32  C   UNL     1       5.930   4.193  16.149  0.00  0.00    +0.000 C 
ATOM     33  O   UNL     1       6.622   4.326  17.152  0.00  0.00    +0.000 OA
ATOM     34  N   UNL     1       4.555   4.352  16.089  0.00  0.00    +0.000 N 
ATOM     35  H   UNL     1       4.089   3.704  15.460  0.00  0.00    +0.000 HD
ENDBRANCH  23  34
ENDBRANCH  22  27
ENDBRANCH   1  22
TORSDOF 6
ENDMDL
MODEL 8
REMARK VINA RESULT:      -8.1      6.736      9.843
REMARK  Name = 
REMARK  7 active torsions:
REMARK  status: ('A' for Active; 'I' for Inactive)
REMARK    1  A    between atoms: C_1  and  C_2
REMARK    2  A    between atoms: N_4  and  C_5
REMARK    3  A    between atoms: C_9  and  C_10
REMARK    4  A    between atoms: C_10  and  N_11
REMARK    5  A    between atoms: N_14  and  C_15
REMARK    6  A    between atoms: C_15  and  C_17
REMARK    7  A    between atoms: N_21  and  C_22
REMARK                            x       y       z     vdW  Elec       q    Type
REMARK                         _______ _______ _______ _____ _____    ______ ____
ROOT
ATOM      1  N   UNL     1       7.852   7.990  18.732  0.00  0.00    +0.000 N 
ATOM      2  C   UNL     1       7.893   6.639  18.527  0.00  0.00    +0.000 C 
ATOM      3  N   UNL     1       8.163   6.027  19.710  0.00  0.00    +0.000 N 
ATOM      4  N   UNL     1       7.730   6.085  17.376  0.00  0.00    +0.000 NA
ATOM      5  H   UNL     1       8.187   8.241  19.653  0.00  0.00    +0.000 HD
ATOM      6  H   UNL     1       7.587   6.333  20.483  0.00  0.00    +0.000 HD
ATOM      7  H   UNL     1       8.111   5.006  19.627  0.00  0.00    +0.000 HD
ENDROOT
BRANCH   4   8
ATOM      8  C   UNL     1       7.733   4.707  17.242  0.00  0.00    +0.000 C 
ATOM      9  O   UNL     1       8.295   3.926  18.015  0.00  0.00    +0.000 OA
BRANCH   8  10
ATOM     10  C   UNL     1       6.878   4.244  16.047  0.00  0.00    +0.000 C 
ATOM     11  C   UNL     1       7.332   4.949  14.763  0.00  0.00    +0.000 C 
ATOM     12  C   UNL     1       6.204   4.620  13.799  0.00  0.00    +0.000 C 
ATOM     13  C   UNL     1       4.945   4.670  14.671  0.00  0.00    +0.000 C 
ATOM     14  N   UNL     1       5.436   4.577  16.050  0.00  0.00    +0.000 N 
BRANCH  14  15
ATOM     15  C   UNL     1       4.614   4.725  17.139  0.00  0.00    +0.000 A 
ATOM     16  C   UNL     1       4.257   3.653  17.968  0.00  0.00    +0.000 A 
ATOM     17  C   UNL     1       3.441   3.827  19.096  0.00  0.00    +0.000 A 
ATOM     18  C   UNL     1       2.958   5.089  19.415  0.00  0.00    +0.000 A 
ATOM     19 CL   UNL     1       1.953   5.308  20.792  0.00  0.00    +0.000 Cl
ATOM     20  C   UNL     1       3.286   6.175  18.617  0.00  0.00    +0.000 A 
ATOM     21  C   UNL     1       4.099   5.986  17.494  0.00  0.00    +0.000 A 
ENDBRANCH  14  15
ENDBRANCH   8  10
ENDBRANCH   4   8
BRANCH   1  22
ATOM     22  C   UNL     1       8.320   8.936  17.732  0.00  0.00    +0.000 C 
BRANCH  22  27
ATOM     23  C   UNL     1      10.344  12.349  19.495  0.00  0.00    +0.000 A 
ATOM     24  C   UNL     1      10.542  12.026  18.140  0.00  0.00    +0.000 A 
ATOM     25 CL   UNL     1      11.686  12.855  17.138  0.00  0.00    +0.000 Cl
ATOM     26  C   UNL     1       9.899  10.914  17.574  0.00  0.00    +0.000 A 
ATOM     27  C   UNL     1       9.054  10.102  18.344  0.00  0.00    +0.000 A 
ATOM     28  C   UNL     1       8.900  10.396  19.704  0.00  0.00    +0.000 A 
ATOM     29  C   UNL     1       9.552  11.491  20.274  0.00  0.00    +0.000 A 
ATOM     30 CL   UNL     1       9.307  11.789  21.964  0.00  0.00    +0.000 Cl
BRANCH  23  34
ATOM     31  C   UNL     1      11.127  15.773  20.822  0.00  0.00    +0.000 C 
ATOM     32  C   UNL     1      10.357  14.742  20.040  0.00  0.00    +0.000 C 
ATOM     33  O   UNL     1       9.307  15.014  19.467  0.00  0.00    +0.000 OA
ATOM     34  N   UNL     1      10.929  13.483  20.124  0.00  0.00    +0.000 N 
ATOM     35  H   UNL     1      11.386  13.293  21.011  0.00  0.00    +0.000 HD
ENDBRANCH  23  34
ENDBRANCH  22  27
ENDBRANCH   1  22
TORSDOF 6
ENDMDL
MODEL 9
REMARK VINA RESULT:      -8.0      3.101      9.360
REMARK  Name = 
REMARK  7 active torsions:
REMARK  status: ('A' for Active; 'I' for Inactive)
REMARK    1  A    between atoms: C_1  and  C_2
REMARK    2  A    between atoms: N_4  and  C_5
REMARK    3  A    between atoms: C_9  and  C_10
REMARK    4  A    between atoms: C_10  and  N_11
REMARK    5  A    between atoms: N_14  and  C_15
REMARK    6  A    between atoms: C_15  and  C_17
REMARK    7  A    between atoms: N_21  and  C_22
REMARK                            x       y       z     vdW  Elec       q    Type
REMARK                         _______ _______ _______ _____ _____    ______ ____
ROOT
ATOM      1  N   UNL     1       1.126   8.640  21.837  0.00  0.00    +0.000 N 
ATOM      2  C   UNL     1       0.322   9.625  22.341  0.00  0.00    +0.000 C 
ATOM      3  N   UNL     1      -0.421   9.107  23.354  0.00  0.00    +0.000 N 
ATOM      4  N   UNL     1       0.286  10.826  21.876  0.00  0.00    +0.000 NA
ATOM      5  H   UNL     1       0.879   7.730  22.203  0.00  0.00    +0.000 HD
ATOM      6  H   UNL     1       0.109   8.583  24.038  0.00  0.00    +0.000 HD
ATOM      7  H   UNL     1      -0.971   9.830  23.827  0.00  0.00    +0.000 HD
ENDROOT
BRANCH   4   8
ATOM      8  C   UNL     1      -0.512  11.792  22.463  0.00  0.00    +0.000 C 
ATOM      9  O   UNL     1      -1.259  11.598  23.427  0.00  0.00    +0.000 OA
BRANCH   8  10
ATOM     10  C   UNL     1      -0.305  13.177  21.821  0.00  0.00    +0.000 C 
ATOM     11  C   UNL     1      -0.735  14.284  22.790  0.00  0.00    +0.000 C 
ATOM     12  C   UNL     1      -0.760  15.508  21.890  0.00  0.00    +0.000 C 
ATOM     13  C   UNL     1      -1.291  14.976  20.554  0.00  0.00    +0.000 C 
ATOM     14  N   UNL     1      -1.114  13.522  20.630  0.00  0.00    +0.000 N 
BRANCH  14  15
ATOM     15  C   UNL     1      -1.598  12.668  19.671  0.00  0.00    +0.000 A 
ATOM     16  C   UNL     1      -0.762  11.963  18.794  0.00  0.00    +0.000 A 
ATOM     17  C   UNL     1      -1.271  11.069  17.841  0.00  0.00    +0.000 A 
ATOM     18  C   UNL     1      -2.641  10.866  17.743  0.00  0.00    +0.000 A 
ATOM     19 CL   UNL     1      -3.273   9.777  16.572  0.00  0.00    +0.000 Cl
ATOM     20  C   UNL     1      -3.502  11.547  18.590  0.00  0.00    +0.000 A 
ATOM     21  C   UNL     1      -2.979  12.437  19.535  0.00  0.00    +0.000 A 
ENDBRANCH  14  15
ENDBRANCH   8  10
ENDBRANCH   4   8
BRANCH   1  22
ATOM     22  C   UNL     1       1.454   8.562  20.423  0.00  0.00    +0.000 C 
BRANCH  22  27
ATOM     23  C   UNL     1       3.071   4.670  19.376  0.00  0.00    +0.000 A 
ATOM     24  C   UNL     1       3.343   5.794  18.574  0.00  0.00    +0.000 A 
ATOM     25 CL   UNL     1       4.200   5.686  17.072  0.00  0.00    +0.000 Cl
ATOM     26  C   UNL     1       2.808   7.049  18.904  0.00  0.00    +0.000 A 
ATOM     27  C   UNL     1       1.991   7.208  20.033  0.00  0.00    +0.000 A 
ATOM     28  C   UNL     1       1.680   6.079  20.799  0.00  0.00    +0.000 A 
ATOM     29  C   UNL     1       2.196   4.826  20.462  0.00  0.00    +0.000 A 
ATOM     30 CL   UNL     1       1.766   3.478  21.463  0.00  0.00    +0.000 Cl
BRANCH  23  34
ATOM     31  C   UNL     1       3.770   1.199  18.129  0.00  0.00    +0.000 C 
ATOM     32  C   UNL     1       2.992   2.480  18.272  0.00  0.00    +0.000 C 
ATOM     33  O   UNL     1       1.968   2.691  17.632  0.00  0.00    +0.000 OA
ATOM     34  N   UNL     1       3.611   3.379  19.125  0.00  0.00    +0.000 N 
ATOM     35  H   UNL     1       4.626   3.333  19.111  0.00  0.00    +0.000 HD
ENDBRANCH  23  34
ENDBRANCH  22  27
ENDBRANCH   1  22
TORSDOF 6
ENDMDL
