MODEL 1
REMARK VINA RESULT:      -8.6      0.000      0.000
REMARK  Name = 
REMARK  4 active torsions:
REMARK  status: ('A' for Active; 'I' for Inactive)
REMARK    1  A    between atoms: O_1  and  N_2
REMARK    2  A    between atoms: C_3  and  C_4
REMARK    3  A    between atoms: C_7  and  O_8
REMARK    4  A    between atoms: O_8  and  C_9
REMARK                            x       y       z     vdW  Elec       q    Type
REMARK                         _______ _______ _______ _____ _____    ______ ____
ROOT
ATOM      1  C   UNL     1       1.209   9.141  20.148  0.00  0.00    +0.000 A 
ATOM      2  C   UNL     1       1.400   9.280  18.771  0.00  0.00    +0.000 A 
ATOM      3  C   UNL     1       2.007   8.252  18.053  0.00  0.00    +0.000 A 
ATOM      4  C   UNL     1       2.409   7.124  18.752  0.00  0.00    +0.000 A 
ATOM      5  N   UNL     1       2.168   6.919  20.069  0.00  0.00    +0.000 NA
ATOM      6  C   UNL     1       1.584   7.943  20.739  0.00  0.00    +0.000 A 
ENDROOT
BRANCH   1   8
ATOM      7  N   UNL     1       0.407   9.984  22.224  0.00  0.00    +0.000 NA
ATOM      8  C   UNL     1       0.618  10.248  20.966  0.00  0.00    +0.000 C 
ATOM      9  N   UNL     1       0.336  11.429  20.295  0.00  0.00    +0.000 N 
ATOM     10  C   UNL     1      -0.996  12.018  20.312  0.00  0.00    +0.000 C 
ATOM     11  C   UNL     1      -1.313  12.471  18.884  0.00  0.00    +0.000 C 
ATOM     12  C   UNL     1      -0.238  13.417  18.339  0.00  0.00    +0.000 C 
ATOM     13  C   UNL     1       1.176  12.858  18.528  0.00  0.00    +0.000 C 
ATOM     14  C   UNL     1       1.402  12.369  19.958  0.00  0.00    +0.000 C 
BRANCH   7  15
ATOM     15  O   UNL     1      -0.119  11.081  22.916  0.00  0.00    +0.000 OA
ATOM     16  H   UNL     1       0.289  11.830  22.445  0.00  0.00    +0.000 HD
ENDBRANCH   7  15
ENDBRANCH   1   8
BRANCH   4  17
ATOM     17  O   UNL     1       3.146   6.180  18.047  0.00  0.00    +0.000 OA
BRANCH  17  18
ATOM     18  C   UNL     1       3.040   4.882  18.492  0.00  0.00    +0.000 A 
ATOM     19  C   UNL     1       1.900   4.166  18.134  0.00  0.00    +0.000 A 
ATOM     20  F   UNL     1       0.964   4.731  17.356  0.00  0.00    +0.000 F 
ATOM     21  C   UNL     1       1.727   2.855  18.574  0.00  0.00    +0.000 A 
ATOM     22  F   UNL     1       0.630   2.169  18.226  0.00  0.00    +0.000 F 
ATOM     23  C   UNL     1       2.680   2.241  19.378  0.00  0.00    +0.000 A 
ATOM     24  C   UNL     1       3.835   2.941  19.700  0.00  0.00    +0.000 A 
ATOM     25  F   UNL     1       4.771   2.350  20.457  0.00  0.00    +0.000 F 
ATOM     26  C   UNL     1       4.033   4.238  19.239  0.00  0.00    +0.000 A 
ATOM     27  F   UNL     1       5.200   4.848  19.503  0.00  0.00    +0.000 F 
ENDBRANCH  17  18
ENDBRANCH   4  17
TORSDOF 4
ENDMDL
MODEL 2
REMARK VINA RESULT:      -8.5      0.172      2.083
REMARK  Name = 
REMARK  4 active torsions:
REMARK  status: ('A' for Active; 'I' for Inactive)
REMARK    1  A    between atoms: O_1  and  N_2
REMARK    2  A    between atoms: C_3  and  C_4
REMARK    3  A    between atoms: C_7  and  O_8
REMARK    4  A    between atoms: O_8  and  C_9
REMARK                            x       y       z     vdW  Elec       q    Type
REMARK                         _______ _______ _______ _____ _____    ______ ____
ROOT
ATOM      1  C   UNL     1       1.209   9.162  20.127  0.00  0.00    +0.000 A 
ATOM      2  C   UNL     1       1.398   9.328  18.753  0.00  0.00    +0.000 A 
ATOM      3  C   UNL     1       2.022   8.322  18.017  0.00  0.00    +0.000 A 
ATOM      4  C   UNL     1       2.441   7.189  18.696  0.00  0.00    +0.000 A 
ATOM      5  N   UNL     1       2.202   6.957  20.010  0.00  0.00    +0.000 NA
ATOM      6  C   UNL     1       1.602   7.960  20.697  0.00  0.00    +0.000 A 
ENDROOT
BRANCH   1   8
ATOM      7  N   UNL     1       0.396   9.958  22.217  0.00  0.00    +0.000 NA
ATOM      8  C   UNL     1       0.600  10.245  20.964  0.00  0.00    +0.000 C 
ATOM      9  N   UNL     1       0.297  11.432  20.312  0.00  0.00    +0.000 N 
ATOM     10  C   UNL     1      -1.045  11.997  20.340  0.00  0.00    +0.000 C 
ATOM     11  C   UNL     1      -1.373  12.468  18.920  0.00  0.00    +0.000 C 
ATOM     12  C   UNL     1      -0.315  13.441  18.389  0.00  0.00    +0.000 C 
ATOM     13  C   UNL     1       1.109  12.904  18.567  0.00  0.00    +0.000 C 
ATOM     14  C   UNL     1       1.346  12.396  19.989  0.00  0.00    +0.000 C 
BRANCH   7  15
ATOM     15  O   UNL     1      -0.148  11.034  22.927  0.00  0.00    +0.000 OA
ATOM     16  H   UNL     1      -1.054  10.722  23.103  0.00  0.00    +0.000 HD
ENDBRANCH   7  15
ENDBRANCH   1   8
BRANCH   4  17
ATOM     17  O   UNL     1       3.193   6.269  17.977  0.00  0.00    +0.000 OA
BRANCH  17  18
ATOM     18  C   UNL     1       3.069   4.954  18.368  0.00  0.00    +0.000 A 
ATOM     19  C   UNL     1       4.075   4.421  19.170  0.00  0.00    +0.000 A 
ATOM     20  F   UNL     1       5.104   5.187  19.563  0.00  0.00    +0.000 F 
ATOM     21  C   UNL     1       4.016   3.090  19.578  0.00  0.00    +0.000 A 
ATOM     22  F   UNL     1       4.984   2.581  20.352  0.00  0.00    +0.000 F 
ATOM     23  C   UNL     1       2.961   2.271  19.192  0.00  0.00    +0.000 A 
ATOM     24  C   UNL     1       1.938   2.816  18.427  0.00  0.00    +0.000 A 
ATOM     25  F   UNL     1       0.904   2.042  18.066  0.00  0.00    +0.000 F 
ATOM     26  C   UNL     1       1.971   4.152  18.041  0.00  0.00    +0.000 A 
ATOM     27  F   UNL     1       0.922   4.659  17.374  0.00  0.00    +0.000 F 
ENDBRANCH  17  18
ENDBRANCH   4  17
TORSDOF 4
ENDMDL
MODEL 3
REMARK VINA RESULT:      -8.3      2.008      2.532
REMARK  Name = 
REMARK  4 active torsions:
REMARK  status: ('A' for Active; 'I' for Inactive)
REMARK    1  A    between atoms: O_1  and  N_2
REMARK    2  A    between atoms: C_3  and  C_4
REMARK    3  A    between atoms: C_7  and  O_8
REMARK    4  A    between atoms: O_8  and  C_9
REMARK                            x       y       z     vdW  Elec       q    Type
REMARK                         _______ _______ _______ _____ _____    ______ ____
ROOT
ATOM      1  C   UNL     1       0.749   9.982  19.067  0.00  0.00    +0.000 A 
ATOM      2  C   UNL     1       1.402   9.460  17.948  0.00  0.00    +0.000 A 
ATOM      3  C   UNL     1       2.164   8.300  18.074  0.00  0.00    +0.000 A 
ATOM      4  C   UNL     1       2.247   7.713  19.327  0.00  0.00    +0.000 A 
ATOM      5  N   UNL     1       1.563   8.142  20.415  0.00  0.00    +0.000 NA
ATOM      6  C   UNL     1       0.839   9.279  20.260  0.00  0.00    +0.000 A 
ENDROOT
BRANCH   1   8
ATOM      7  N   UNL     1      -1.275  11.155  18.627  0.00  0.00    +0.000 NA
ATOM      8  C   UNL     1      -0.028  11.260  18.989  0.00  0.00    +0.000 C 
ATOM      9  N   UNL     1       0.667  12.424  19.286  0.00  0.00    +0.000 N 
ATOM     10  C   UNL     1       0.726  13.539  18.351  0.00  0.00    +0.000 C 
ATOM     11  C   UNL     1       2.172  14.041  18.330  0.00  0.00    +0.000 C 
ATOM     12  C   UNL     1       2.666  14.400  19.735  0.00  0.00    +0.000 C 
ATOM     13  C   UNL     1       2.398  13.283  20.748  0.00  0.00    +0.000 C 
ATOM     14  C   UNL     1       0.954  12.789  20.671  0.00  0.00    +0.000 C 
BRANCH   7  15
ATOM     15  O   UNL     1      -1.928  12.392  18.608  0.00  0.00    +0.000 OA
ATOM     16  H   UNL     1      -2.832  12.138  18.347  0.00  0.00    +0.000 HD
ENDBRANCH   7  15
ENDBRANCH   1   8
BRANCH   4  17
ATOM     17  O   UNL     1       3.130   6.650  19.464  0.00  0.00    +0.000 OA
BRANCH  17  18
ATOM     18  C   UNL     1       2.601   5.398  19.248  0.00  0.00    +0.000 A 
ATOM     19  C   UNL     1       2.810   4.813  18.001  0.00  0.00    +0.000 A 
ATOM     20  F   UNL     1       3.533   5.451  17.068  0.00  0.00    +0.000 F 
ATOM     21  C   UNL     1       2.278   3.556  17.717  0.00  0.00    +0.000 A 
ATOM     22  F   UNL     1       2.484   2.996  16.517  0.00  0.00    +0.000 F 
ATOM     23  C   UNL     1       1.529   2.868  18.664  0.00  0.00    +0.000 A 
ATOM     24  C   UNL     1       1.356   3.433  19.920  0.00  0.00    +0.000 A 
ATOM     25  F   UNL     1       0.654   2.769  20.848  0.00  0.00    +0.000 F 
ATOM     26  C   UNL     1       1.911   4.673  20.226  0.00  0.00    +0.000 A 
ATOM     27  F   UNL     1       1.790   5.144  21.477  0.00  0.00    +0.000 F 
ENDBRANCH  17  18
ENDBRANCH   4  17
TORSDOF 4
ENDMDL
MODEL 4
REMARK VINA RESULT:      -8.3      3.789      8.109
REMARK  Name = 
REMARK  4 active torsions:
REMARK  status: ('A' for Active; 'I' for Inactive)
REMARK    1  A    between atoms: O_1  and  N_2
REMARK    2  A    between atoms: C_3  and  C_4
REMARK    3  A    between atoms: C_7  and  O_8
REMARK    4  A    between atoms: O_8  and  C_9
REMARK                            x       y       z     vdW  Elec       q    Type
REMARK                         _______ _______ _______ _____ _____    ______ ____
ROOT
ATOM      1  C   UNL     1       3.194   6.562  18.964  0.00  0.00    +0.000 A 
ATOM      2  C   UNL     1       3.346   7.289  17.781  0.00  0.00    +0.000 A 
ATOM      3  C   UNL     1       2.600   8.450  17.586  0.00  0.00    +0.000 A 
ATOM      4  C   UNL     1       1.723   8.832  18.589  0.00  0.00    +0.000 A 
ATOM      5  N   UNL     1       1.609   8.199  19.782  0.00  0.00    +0.000 NA
ATOM      6  C   UNL     1       2.341   7.068  19.934  0.00  0.00    +0.000 A 
ENDROOT
BRANCH   1   8
ATOM      7  N   UNL     1       5.226   5.359  19.264  0.00  0.00    +0.000 NA
ATOM      8  C   UNL     1       3.929   5.276  19.186  0.00  0.00    +0.000 C 
ATOM      9  N   UNL     1       3.154   4.128  19.263  0.00  0.00    +0.000 N 
ATOM     10  C   UNL     1       3.393   2.985  18.392  0.00  0.00    +0.000 C 
ATOM     11  C   UNL     1       2.030   2.493  17.898  0.00  0.00    +0.000 C 
ATOM     12  C   UNL     1       1.085   2.182  19.063  0.00  0.00    +0.000 C 
ATOM     13  C   UNL     1       1.016   3.328  20.077  0.00  0.00    +0.000 C 
ATOM     14  C   UNL     1       2.411   3.808  20.479  0.00  0.00    +0.000 C 
BRANCH   7  15
ATOM     15  O   UNL     1       5.826   4.117  19.499  0.00  0.00    +0.000 OA
ATOM     16  H   UNL     1       5.287   3.770  20.233  0.00  0.00    +0.000 HD
ENDBRANCH   7  15
ENDBRANCH   1   8
BRANCH   4  17
ATOM     17  O   UNL     1       0.882   9.902  18.312  0.00  0.00    +0.000 OA
BRANCH  17  18
ATOM     18  C   UNL     1       1.034  11.009  19.116  0.00  0.00    +0.000 A 
ATOM     19  C   UNL     1       1.971  11.965  18.730  0.00  0.00    +0.000 A 
ATOM     20  F   UNL     1       2.667  11.809  17.594  0.00  0.00    +0.000 F 
ATOM     21  C   UNL     1       2.185  13.096  19.517  0.00  0.00    +0.000 A 
ATOM     22  F   UNL     1       3.085  14.014  19.141  0.00  0.00    +0.000 F 
ATOM     23  C   UNL     1       1.476  13.288  20.697  0.00  0.00    +0.000 A 
ATOM     24  C   UNL     1       0.513  12.356  21.059  0.00  0.00    +0.000 A 
ATOM     25  F   UNL     1      -0.192  12.542  22.184  0.00  0.00    +0.000 F 
ATOM     26  C   UNL     1       0.268  11.240  20.264  0.00  0.00    +0.000 A 
ATOM     27  F   UNL     1      -0.729  10.408  20.607  0.00  0.00    +0.000 F 
ENDBRANCH  17  18
ENDBRANCH   4  17
TORSDOF 4
ENDMDL
MODEL 5
REMARK VINA RESULT:      -8.3      3.770      8.046
REMARK  Name = 
REMARK  4 active torsions:
REMARK  status: ('A' for Active; 'I' for Inactive)
REMARK    1  A    between atoms: O_1  and  N_2
REMARK    2  A    between atoms: C_3  and  C_4
REMARK    3  A    between atoms: C_7  and  O_8
REMARK    4  A    between atoms: O_8  and  C_9
REMARK                            x       y       z     vdW  Elec       q    Type
REMARK                         _______ _______ _______ _____ _____    ______ ____
ROOT
ATOM      1  C   UNL     1       3.070   6.673  19.020  0.00  0.00    +0.000 A 
ATOM      2  C   UNL     1       3.128   7.396  17.826  0.00  0.00    +0.000 A 
ATOM      3  C   UNL     1       2.356   8.546  17.680  0.00  0.00    +0.000 A 
ATOM      4  C   UNL     1       1.546   8.921  18.741  0.00  0.00    +0.000 A 
ATOM      5  N   UNL     1       1.525   8.294  19.942  0.00  0.00    +0.000 NA
ATOM      6  C   UNL     1       2.281   7.172  20.046  0.00  0.00    +0.000 A 
ENDROOT
BRANCH   1   8
ATOM      7  N   UNL     1       5.132   5.506  19.252  0.00  0.00    +0.000 NA
ATOM      8  C   UNL     1       3.835   5.397  19.194  0.00  0.00    +0.000 C 
ATOM      9  N   UNL     1       3.086   4.231  19.252  0.00  0.00    +0.000 N 
ATOM     10  C   UNL     1       3.334   3.117  18.346  0.00  0.00    +0.000 C 
ATOM     11  C   UNL     1       1.973   2.611  17.860  0.00  0.00    +0.000 C 
ATOM     12  C   UNL     1       1.055   2.247  19.032  0.00  0.00    +0.000 C 
ATOM     13  C   UNL     1       0.980   3.364  20.079  0.00  0.00    +0.000 C 
ATOM     14  C   UNL     1       2.370   3.862  20.470  0.00  0.00    +0.000 C 
BRANCH   7  15
ATOM     15  O   UNL     1       5.761   4.271  19.443  0.00  0.00    +0.000 OA
ATOM     16  H   UNL     1       5.190   3.856  20.114  0.00  0.00    +0.000 HD
ENDBRANCH   7  15
ENDBRANCH   1   8
BRANCH   4  17
ATOM     17  O   UNL     1       0.674   9.980  18.520  0.00  0.00    +0.000 OA
BRANCH  17  18
ATOM     18  C   UNL     1       0.956  11.143  19.200  0.00  0.00    +0.000 A 
ATOM     19  C   UNL     1       0.265  11.383  20.386  0.00  0.00    +0.000 A 
ATOM     20  F   UNL     1      -0.617  10.484  20.848  0.00  0.00    +0.000 F 
ATOM     21  C   UNL     1       0.493  12.554  21.106  0.00  0.00    +0.000 A 
ATOM     22  F   UNL     1      -0.172  12.780  22.247  0.00  0.00    +0.000 F 
ATOM     23  C   UNL     1       1.404  13.503  20.656  0.00  0.00    +0.000 A 
ATOM     24  C   UNL     1       2.122  13.243  19.496  0.00  0.00    +0.000 A 
ATOM     25  F   UNL     1       3.019  14.141  19.065  0.00  0.00    +0.000 F 
ATOM     26  C   UNL     1       1.927  12.062  18.787  0.00  0.00    +0.000 A 
ATOM     27  F   UNL     1       2.701  11.814  17.719  0.00  0.00    +0.000 F 
ENDBRANCH  17  18
ENDBRANCH   4  17
TORSDOF 4
ENDMDL
MODEL 6
REMARK VINA RESULT:      -8.3      1.985      3.045
REMARK  Name = 
REMARK  4 active torsions:
REMARK  status: ('A' for Active; 'I' for Inactive)
REMARK    1  A    between atoms: O_1  and  N_2
REMARK    2  A    between atoms: C_3  and  C_4
REMARK    3  A    between atoms: C_7  and  O_8
REMARK    4  A    between atoms: O_8  and  C_9
REMARK                            x       y       z     vdW  Elec       q    Type
REMARK                         _______ _______ _______ _____ _____    ______ ____
ROOT
ATOM      1  C   UNL     1       1.508   9.472  18.914  0.00  0.00    +0.000 A 
ATOM      2  C   UNL     1       2.166   8.588  18.056  0.00  0.00    +0.000 A 
ATOM      3  C   UNL     1       2.531   7.324  18.515  0.00  0.00    +0.000 A 
ATOM      4  C   UNL     1       2.227   7.000  19.827  0.00  0.00    +0.000 A 
ATOM      5  N   UNL     1       1.518   7.797  20.664  0.00  0.00    +0.000 NA
ATOM      6  C   UNL     1       1.188   9.023  20.188  0.00  0.00    +0.000 A 
ENDROOT
BRANCH   1   8
ATOM      7  N   UNL     1       2.151  11.631  18.148  0.00  0.00    +0.000 NA
ATOM      8  C   UNL     1       1.155  10.861  18.480  0.00  0.00    +0.000 C 
ATOM      9  N   UNL     1      -0.193  11.189  18.498  0.00  0.00    +0.000 N 
ATOM     10  C   UNL     1      -0.689  12.341  19.240  0.00  0.00    +0.000 C 
ATOM     11  C   UNL     1      -1.961  11.901  19.971  0.00  0.00    +0.000 C 
ATOM     12  C   UNL     1      -2.993  11.310  19.004  0.00  0.00    +0.000 C 
ATOM     13  C   UNL     1      -2.386  10.243  18.088  0.00  0.00    +0.000 C 
ATOM     14  C   UNL     1      -1.089  10.727  17.441  0.00  0.00    +0.000 C 
BRANCH   7  15
ATOM     15  O   UNL     1       1.727  12.897  17.730  0.00  0.00    +0.000 OA
ATOM     16  H   UNL     1       1.989  12.898  16.791  0.00  0.00    +0.000 HD
ENDBRANCH   7  15
ENDBRANCH   1   8
BRANCH   4  17
ATOM     17  O   UNL     1       2.732   5.799  20.310  0.00  0.00    +0.000 OA
BRANCH  17  18
ATOM     18  C   UNL     1       2.563   4.705  19.491  0.00  0.00    +0.000 A 
ATOM     19  C   UNL     1       3.631   4.335  18.677  0.00  0.00    +0.000 A 
ATOM     20  F   UNL     1       4.787   5.015  18.727  0.00  0.00    +0.000 F 
ATOM     21  C   UNL     1       3.511   3.250  17.811  0.00  0.00    +0.000 A 
ATOM     22  F   UNL     1       4.541   2.895  17.032  0.00  0.00    +0.000 F 
ATOM     23  C   UNL     1       2.328   2.522  17.739  0.00  0.00    +0.000 A 
ATOM     24  C   UNL     1       1.279   2.866  18.581  0.00  0.00    +0.000 A 
ATOM     25  F   UNL     1       0.141   2.158  18.536  0.00  0.00    +0.000 F 
ATOM     26  C   UNL     1       1.400   3.928  19.473  0.00  0.00    +0.000 A 
ATOM     27  F   UNL     1       0.393   4.173  20.326  0.00  0.00    +0.000 F 
ENDBRANCH  17  18
ENDBRANCH   4  17
TORSDOF 4
ENDMDL
MODEL 7
REMARK VINA RESULT:      -8.2      2.019      2.511
REMARK  Name = 
REMARK  4 active torsions:
REMARK  status: ('A' for Active; 'I' for Inactive)
REMARK    1  A    between atoms: O_1  and  N_2
REMARK    2  A    between atoms: C_3  and  C_4
REMARK    3  A    between atoms: C_7  and  O_8
REMARK    4  A    between atoms: O_8  and  C_9
REMARK                            x       y       z     vdW  Elec       q    Type
REMARK                         _______ _______ _______ _____ _____    ______ ____
ROOT
ATOM      1  C   UNL     1       0.771   9.886  19.037  0.00  0.00    +0.000 A 
ATOM      2  C   UNL     1       1.475   9.263  18.004  0.00  0.00    +0.000 A 
ATOM      3  C   UNL     1       2.181   8.090  18.262  0.00  0.00    +0.000 A 
ATOM      4  C   UNL     1       2.159   7.592  19.555  0.00  0.00    +0.000 A 
ATOM      5  N   UNL     1       1.423   8.122  20.562  0.00  0.00    +0.000 NA
ATOM      6  C   UNL     1       0.756   9.268  20.279  0.00  0.00    +0.000 A 
ENDROOT
BRANCH   1   8
ATOM      7  N   UNL     1      -1.149  11.096  18.321  0.00  0.00    +0.000 NA
ATOM      8  C   UNL     1       0.052  11.182  18.817  0.00  0.00    +0.000 C 
ATOM      9  N   UNL     1       0.748  12.337  19.143  0.00  0.00    +0.000 N 
ATOM     10  C   UNL     1       0.950  13.406  18.175  0.00  0.00    +0.000 C 
ATOM     11  C   UNL     1       2.405  13.865  18.297  0.00  0.00    +0.000 C 
ATOM     12  C   UNL     1       2.750  14.273  19.733  0.00  0.00    +0.000 C 
ATOM     13  C   UNL     1       2.332  13.211  20.755  0.00  0.00    +0.000 C 
ATOM     14  C   UNL     1       0.890  12.756  20.535  0.00  0.00    +0.000 C 
BRANCH   7  15
ATOM     15  O   UNL     1      -1.754  12.350  18.176  0.00  0.00    +0.000 OA
ATOM     16  H   UNL     1      -2.487  12.149  17.566  0.00  0.00    +0.000 HD
ENDBRANCH   7  15
ENDBRANCH   1   8
BRANCH   4  17
ATOM     17  O   UNL     1       2.989   6.511  19.825  0.00  0.00    +0.000 OA
BRANCH  17  18
ATOM     18  C   UNL     1       2.812   5.403  19.027  0.00  0.00    +0.000 A 
ATOM     19  C   UNL     1       1.754   4.550  19.333  0.00  0.00    +0.000 A 
ATOM     20  F   UNL     1       0.930   4.832  20.353  0.00  0.00    +0.000 F 
ATOM     21  C   UNL     1       1.539   3.400  18.574  0.00  0.00    +0.000 A 
ATOM     22  F   UNL     1       0.519   2.583  18.869  0.00  0.00    +0.000 F 
ATOM     23  C   UNL     1       2.372   3.082  17.508  0.00  0.00    +0.000 A 
ATOM     24  C   UNL     1       3.400   3.956  17.179  0.00  0.00    +0.000 A 
ATOM     25  F   UNL     1       4.196   3.671  16.139  0.00  0.00    +0.000 F 
ATOM     26  C   UNL     1       3.604   5.123  17.909  0.00  0.00    +0.000 A 
ATOM     27  F   UNL     1       4.556   5.980  17.506  0.00  0.00    +0.000 F 
ENDBRANCH  17  18
ENDBRANCH   4  17
TORSDOF 4
ENDMDL
MODEL 8
REMARK VINA RESULT:      -8.1      1.994      2.521
REMARK  Name = 
REMARK  4 active torsions:
REMARK  status: ('A' for Active; 'I' for Inactive)
REMARK    1  A    between atoms: O_1  and  N_2
REMARK    2  A    between atoms: C_3  and  C_4
REMARK    3  A    between atoms: C_7  and  O_8
REMARK    4  A    between atoms: O_8  and  C_9
REMARK                            x       y       z     vdW  Elec       q    Type
REMARK                         _______ _______ _______ _____ _____    ______ ____
ROOT
ATOM      1  C   UNL     1       1.478   9.486  18.936  0.00  0.00    +0.000 A 
ATOM      2  C   UNL     1       2.117   8.595  18.071  0.00  0.00    +0.000 A 
ATOM      3  C   UNL     1       2.476   7.329  18.527  0.00  0.00    +0.000 A 
ATOM      4  C   UNL     1       2.184   7.010  19.844  0.00  0.00    +0.000 A 
ATOM      5  N   UNL     1       1.494   7.814  20.688  0.00  0.00    +0.000 NA
ATOM      6  C   UNL     1       1.170   9.043  20.214  0.00  0.00    +0.000 A 
ENDROOT
BRANCH   1   8
ATOM      7  N   UNL     1       2.134  11.646  18.182  0.00  0.00    +0.000 NA
ATOM      8  C   UNL     1       1.133  10.878  18.504  0.00  0.00    +0.000 C 
ATOM      9  N   UNL     1      -0.214  11.211  18.514  0.00  0.00    +0.000 N 
ATOM     10  C   UNL     1      -0.712  12.362  19.255  0.00  0.00    +0.000 C 
ATOM     11  C   UNL     1      -1.990  11.924  19.975  0.00  0.00    +0.000 C 
ATOM     12  C   UNL     1      -3.017  11.340  18.999  0.00  0.00    +0.000 C 
ATOM     13  C   UNL     1      -2.407  10.274  18.084  0.00  0.00    +0.000 C 
ATOM     14  C   UNL     1      -1.103  10.756  17.448  0.00  0.00    +0.000 C 
BRANCH   7  15
ATOM     15  O   UNL     1       1.717  12.915  17.765  0.00  0.00    +0.000 OA
ATOM     16  H   UNL     1       0.753  12.798  17.697  0.00  0.00    +0.000 HD
ENDBRANCH   7  15
ENDBRANCH   1   8
BRANCH   4  17
ATOM     17  O   UNL     1       2.684   5.804  20.322  0.00  0.00    +0.000 OA
BRANCH  17  18
ATOM     18  C   UNL     1       2.609   4.737  19.455  0.00  0.00    +0.000 A 
ATOM     19  C   UNL     1       1.436   3.987  19.454  0.00  0.00    +0.000 A 
ATOM     20  F   UNL     1       0.414   4.327  20.255  0.00  0.00    +0.000 F 
ATOM     21  C   UNL     1       1.311   2.881  18.614  0.00  0.00    +0.000 A 
ATOM     22  F   UNL     1       0.180   2.163  18.615  0.00  0.00    +0.000 F 
ATOM     23  C   UNL     1       2.349   2.505  17.770  0.00  0.00    +0.000 A 
ATOM     24  C   UNL     1       3.501   3.279  17.742  0.00  0.00    +0.000 A 
ATOM     25  F   UNL     1       4.501   2.939  16.915  0.00  0.00    +0.000 F 
ATOM     26  C   UNL     1       3.624   4.404  18.552  0.00  0.00    +0.000 A 
ATOM     27  F   UNL     1       4.720   5.170  18.432  0.00  0.00    +0.000 F 
ENDBRANCH  17  18
ENDBRANCH   4  17
TORSDOF 4
ENDMDL
MODEL 9
REMARK VINA RESULT:      -8.1      1.990      2.652
REMARK  Name = 
REMARK  4 active torsions:
REMARK  status: ('A' for Active; 'I' for Inactive)
REMARK    1  A    between atoms: O_1  and  N_2
REMARK    2  A    between atoms: C_3  and  C_4
REMARK    3  A    between atoms: C_7  and  O_8
REMARK    4  A    between atoms: O_8  and  C_9
REMARK                            x       y       z     vdW  Elec       q    Type
REMARK                         _______ _______ _______ _____ _____    ______ ____
ROOT
ATOM      1  C   UNL     1       0.966   9.611  18.922  0.00  0.00    +0.000 A 
ATOM      2  C   UNL     1       1.641   9.016  17.853  0.00  0.00    +0.000 A 
ATOM      3  C   UNL     1       2.384   7.857  18.067  0.00  0.00    +0.000 A 
ATOM      4  C   UNL     1       2.425   7.344  19.354  0.00  0.00    +0.000 A 
ATOM      5  N   UNL     1       1.719   7.845  20.397  0.00  0.00    +0.000 NA
ATOM      6  C   UNL     1       1.015   8.979  20.155  0.00  0.00    +0.000 A 
ENDROOT
BRANCH   1   8
ATOM      7  N   UNL     1      -0.993  10.788  18.256  0.00  0.00    +0.000 NA
ATOM      8  C   UNL     1       0.209  10.892  18.747  0.00  0.00    +0.000 C 
ATOM      9  N   UNL     1       0.874  12.056  19.104  0.00  0.00    +0.000 N 
ATOM     10  C   UNL     1       1.039  13.160  18.169  0.00  0.00    +0.000 C 
ATOM     11  C   UNL     1       2.482  13.656  18.296  0.00  0.00    +0.000 C 
ATOM     12  C   UNL     1       2.826  14.029  19.742  0.00  0.00    +0.000 C 
ATOM     13  C   UNL     1       2.445  12.924  20.733  0.00  0.00    +0.000 C 
ATOM     14  C   UNL     1       1.014  12.435  20.508  0.00  0.00    +0.000 C 
BRANCH   7  15
ATOM     15  O   UNL     1      -1.634  12.028  18.154  0.00  0.00    +0.000 OA
ATOM     16  H   UNL     1      -2.188  12.034  18.955  0.00  0.00    +0.000 HD
ENDBRANCH   7  15
ENDBRANCH   1   8
BRANCH   4  17
ATOM     17  O   UNL     1       3.291   6.280  19.577  0.00  0.00    +0.000 OA
BRANCH  17  18
ATOM     18  C   UNL     1       2.746   5.024  19.433  0.00  0.00    +0.000 A 
ATOM     19  C   UNL     1       2.102   4.467  20.535  0.00  0.00    +0.000 A 
ATOM     20  F   UNL     1       1.998   5.161  21.679  0.00  0.00    +0.000 F 
ATOM     21  C   UNL     1       1.552   3.189  20.456  0.00  0.00    +0.000 A 
ATOM     22  F   UNL     1       0.931   2.658  21.518  0.00  0.00    +0.000 F 
ATOM     23  C   UNL     1       1.639   2.446  19.284  0.00  0.00    +0.000 A 
ATOM     24  C   UNL     1       2.245   3.019  18.173  0.00  0.00    +0.000 A 
ATOM     25  F   UNL     1       2.315   2.320  17.031  0.00  0.00    +0.000 F 
ATOM     26  C   UNL     1       2.768   4.307  18.232  0.00  0.00    +0.000 A 
ATOM     27  F   UNL     1       3.270   4.852  17.112  0.00  0.00    +0.000 F 
ENDBRANCH  17  18
ENDBRANCH   4  17
TORSDOF 4
ENDMDL
