MODEL 1
REMARK VINA RESULT:      -7.5      0.000      0.000
REMARK  Name = 
REMARK  2 active torsions:
REMARK  status: ('A' for Active; 'I' for Inactive)
REMARK    1  A    between atoms: C_1  and  N_2
REMARK    2  A    between atoms: C_15  and  O_16
REMARK                            x       y       z     vdW  Elec       q    Type
REMARK                         _______ _______ _______ _____ _____    ______ ____
ROOT
ATOM      1  C   UNL     1       5.409   4.356  16.885  0.00  0.00    +0.000 C 
ATOM      2  N   UNL     1       4.224   5.197  17.085  0.00  0.00    +0.000 NA
ATOM      3  C   UNL     1       4.665   6.614  17.165  0.00  0.00    +0.000 C 
ATOM      4  C   UNL     1       3.451   7.555  17.208  0.00  0.00    +0.000 C 
ATOM      5  C   UNL     1       2.689   7.209  18.429  0.00  0.00    +0.000 A 
ATOM      6  C   UNL     1       2.702   5.918  18.911  0.00  0.00    +0.000 A 
ATOM      7  N   UNL     1       1.966   5.903  20.074  0.00  0.00    +0.000 N 
ATOM      8  C   UNL     1       1.542   7.197  20.368  0.00  0.00    +0.000 A 
ATOM      9  C   UNL     1       0.826   7.724  21.462  0.00  0.00    +0.000 A 
ATOM     10  C   UNL     1       0.533   9.098  21.453  0.00  0.00    +0.000 A 
ATOM     11 BR   UNL     1      -0.390   9.849  22.923  0.00  0.00    +0.000 Br
ATOM     12  C   UNL     1       0.917   9.920  20.399  0.00  0.00    +0.000 A 
ATOM     13  C   UNL     1       1.627   9.391  19.325  0.00  0.00    +0.000 A 
ATOM     14  C   UNL     1       1.952   8.021  19.313  0.00  0.00    +0.000 A 
ATOM     15  C   UNL     1       1.569   4.701  20.803  0.00  0.00    +0.000 C 
ATOM     16  C   UNL     1       0.828   3.695  19.918  0.00  0.00    +0.000 C 
ATOM     17  C   UNL     1       1.676   2.916  18.906  0.00  0.00    +0.000 C 
ATOM     18  C   UNL     1       2.361   3.720  17.792  0.00  0.00    +0.000 C 
ATOM     19  C   UNL     1       3.413   4.753  18.265  0.00  0.00    +0.000 C 
ENDROOT
BRANCH  15  20
ATOM     20  O   UNL     1       2.688   4.124  21.467  0.00  0.00    +0.000 OA
ATOM     21  H   UNL     1       2.366   3.481  22.116  0.00  0.00    +0.000 HD
ENDBRANCH  15  20
TORSDOF 1
ENDMDL
MODEL 2
REMARK VINA RESULT:      -7.3      1.012      1.155
REMARK  Name = 
REMARK  2 active torsions:
REMARK  status: ('A' for Active; 'I' for Inactive)
REMARK    1  A    between atoms: C_1  and  N_2
REMARK    2  A    between atoms: C_15  and  O_16
REMARK                            x       y       z     vdW  Elec       q    Type
REMARK                         _______ _______ _______ _____ _____    ______ ____
ROOT
ATOM      1  C   UNL     1       6.149   4.059  17.665  0.00  0.00    +0.000 C 
ATOM      2  N   UNL     1       4.971   4.896  17.420  0.00  0.00    +0.000 NA
ATOM      3  C   UNL     1       5.428   6.287  17.167  0.00  0.00    +0.000 C 
ATOM      4  C   UNL     1       4.249   7.174  16.740  0.00  0.00    +0.000 C 
ATOM      5  C   UNL     1       3.288   7.172  17.866  0.00  0.00    +0.000 A 
ATOM      6  C   UNL     1       3.187   6.071  18.689  0.00  0.00    +0.000 A 
ATOM      7  N   UNL     1       2.270   6.370  19.670  0.00  0.00    +0.000 N 
ATOM      8  C   UNL     1       1.837   7.685  19.511  0.00  0.00    +0.000 A 
ATOM      9  C   UNL     1       0.965   8.484  20.277  0.00  0.00    +0.000 A 
ATOM     10  C   UNL     1       0.713   9.793  19.831  0.00  0.00    +0.000 A 
ATOM     11 BR   UNL     1      -0.420  10.909  20.855  0.00  0.00    +0.000 Br
ATOM     12  C   UNL     1       1.286  10.290  18.667  0.00  0.00    +0.000 A 
ATOM     13  C   UNL     1       2.149   9.494  17.920  0.00  0.00    +0.000 A 
ATOM     14  C   UNL     1       2.436   8.185  18.350  0.00  0.00    +0.000 A 
ATOM     15  C   UNL     1       1.726   5.415  20.634  0.00  0.00    +0.000 C 
ATOM     16  C   UNL     1       1.116   4.184  19.959  0.00  0.00    +0.000 C 
ATOM     17  C   UNL     1       2.099   3.169  19.365  0.00  0.00    +0.000 C 
ATOM     18  C   UNL     1       2.978   3.639  18.198  0.00  0.00    +0.000 C 
ATOM     19  C   UNL     1       3.964   4.787  18.526  0.00  0.00    +0.000 C 
ENDROOT
BRANCH  15  20
ATOM     20  O   UNL     1       2.706   5.075  21.609  0.00  0.00    +0.000 OA
ATOM     21  H   UNL     1       2.754   5.789  22.262  0.00  0.00    +0.000 HD
ENDBRANCH  15  20
TORSDOF 1
ENDMDL
MODEL 3
REMARK VINA RESULT:      -6.4      2.197      3.782
REMARK  Name = 
REMARK  2 active torsions:
REMARK  status: ('A' for Active; 'I' for Inactive)
REMARK    1  A    between atoms: C_1  and  N_2
REMARK    2  A    between atoms: C_15  and  O_16
REMARK                            x       y       z     vdW  Elec       q    Type
REMARK                         _______ _______ _______ _____ _____    ______ ____
ROOT
ATOM      1  C   UNL     1       3.708   1.449  18.913  0.00  0.00    +0.000 C 
ATOM      2  N   UNL     1       3.635   2.751  19.581  0.00  0.00    +0.000 NA
ATOM      3  C   UNL     1       2.238   2.963  20.041  0.00  0.00    +0.000 C 
ATOM      4  C   UNL     1       2.138   4.237  20.895  0.00  0.00    +0.000 C 
ATOM      5  C   UNL     1       2.543   5.363  20.023  0.00  0.00    +0.000 A 
ATOM      6  C   UNL     1       3.457   5.163  19.012  0.00  0.00    +0.000 A 
ATOM      7  N   UNL     1       3.595   6.355  18.337  0.00  0.00    +0.000 N 
ATOM      8  C   UNL     1       2.720   7.295  18.877  0.00  0.00    +0.000 A 
ATOM      9  C   UNL     1       2.430   8.624  18.511  0.00  0.00    +0.000 A 
ATOM     10  C   UNL     1       1.490   9.327  19.285  0.00  0.00    +0.000 A 
ATOM     11 BR   UNL     1       1.044  11.100  18.801  0.00  0.00    +0.000 Br
ATOM     12  C   UNL     1       0.871   8.747  20.386  0.00  0.00    +0.000 A 
ATOM     13  C   UNL     1       1.162   7.431  20.737  0.00  0.00    +0.000 A 
ATOM     14  C   UNL     1       2.086   6.695  19.971  0.00  0.00    +0.000 A 
ATOM     15  C   UNL     1       4.605   6.632  17.317  0.00  0.00    +0.000 C 
ATOM     16  C   UNL     1       6.027   6.349  17.807  0.00  0.00    +0.000 C 
ATOM     17  C   UNL     1       6.428   4.875  17.937  0.00  0.00    +0.000 C 
ATOM     18  C   UNL     1       5.673   4.028  18.971  0.00  0.00    +0.000 C 
ATOM     19  C   UNL     1       4.155   3.858  18.713  0.00  0.00    +0.000 C 
ENDROOT
BRANCH  15  20
ATOM     20  O   UNL     1       4.296   5.947  16.108  0.00  0.00    +0.000 OA
ATOM     21  H   UNL     1       4.845   6.311  15.398  0.00  0.00    +0.000 HD
ENDBRANCH  15  20
TORSDOF 1
ENDMDL
MODEL 4
REMARK VINA RESULT:      -6.2      7.031      9.325
REMARK  Name = 
REMARK  2 active torsions:
REMARK  status: ('A' for Active; 'I' for Inactive)
REMARK    1  A    between atoms: C_1  and  N_2
REMARK    2  A    between atoms: C_15  and  O_16
REMARK                            x       y       z     vdW  Elec       q    Type
REMARK                         _______ _______ _______ _____ _____    ______ ____
ROOT
ATOM      1  C   UNL     1      -1.195  14.636  23.637  0.00  0.00    +0.000 C 
ATOM      2  N   UNL     1      -1.387  13.402  22.868  0.00  0.00    +0.000 NA
ATOM      3  C   UNL     1      -0.187  13.188  22.019  0.00  0.00    +0.000 C 
ATOM      4  C   UNL     1      -0.259  11.824  21.316  0.00  0.00    +0.000 C 
ATOM      5  C   UNL     1      -1.466  11.852  20.459  0.00  0.00    +0.000 A 
ATOM      6  C   UNL     1      -2.559  12.607  20.827  0.00  0.00    +0.000 A 
ATOM      7  N   UNL     1      -3.497  12.491  19.827  0.00  0.00    +0.000 N 
ATOM      8  C   UNL     1      -2.975  11.717  18.793  0.00  0.00    +0.000 A 
ATOM      9  C   UNL     1      -3.498  11.359  17.534  0.00  0.00    +0.000 A 
ATOM     10  C   UNL     1      -2.714  10.534  16.709  0.00  0.00    +0.000 A 
ATOM     11 BR   UNL     1      -3.364  10.066  14.995  0.00  0.00    +0.000 Br
ATOM     12  C   UNL     1      -1.469  10.067  17.115  0.00  0.00    +0.000 A 
ATOM     13  C   UNL     1      -0.960  10.430  18.359  0.00  0.00    +0.000 A 
ATOM     14  C   UNL     1      -1.714  11.270  19.201  0.00  0.00    +0.000 A 
ATOM     15  C   UNL     1      -4.873  12.977  19.903  0.00  0.00    +0.000 C 
ATOM     16  C   UNL     1      -5.616  12.445  21.132  0.00  0.00    +0.000 C 
ATOM     17  C   UNL     1      -5.227  13.051  22.485  0.00  0.00    +0.000 C 
ATOM     18  C   UNL     1      -3.794  12.810  22.979  0.00  0.00    +0.000 C 
ATOM     19  C   UNL     1      -2.673  13.414  22.097  0.00  0.00    +0.000 C 
ENDROOT
BRANCH  15  20
ATOM     20  O   UNL     1      -4.908  14.397  19.816  0.00  0.00    +0.000 OA
ATOM     21  H   UNL     1      -4.011  14.738  19.950  0.00  0.00    +0.000 HD
ENDBRANCH  15  20
TORSDOF 1
ENDMDL
MODEL 5
REMARK VINA RESULT:      -6.1      3.589      5.819
REMARK  Name = 
REMARK  2 active torsions:
REMARK  status: ('A' for Active; 'I' for Inactive)
REMARK    1  A    between atoms: C_1  and  N_2
REMARK    2  A    between atoms: C_15  and  O_16
REMARK                            x       y       z     vdW  Elec       q    Type
REMARK                         _______ _______ _______ _____ _____    ______ ____
ROOT
ATOM      1  C   UNL     1       0.964   6.413  20.720  0.00  0.00    +0.000 C 
ATOM      2  N   UNL     1       2.261   6.267  20.052  0.00  0.00    +0.000 NA
ATOM      3  C   UNL     1       2.366   7.310  18.999  0.00  0.00    +0.000 C 
ATOM      4  C   UNL     1       3.771   7.311  18.378  0.00  0.00    +0.000 C 
ATOM      5  C   UNL     1       3.964   5.977  17.766  0.00  0.00    +0.000 A 
ATOM      6  C   UNL     1       3.342   4.871  18.304  0.00  0.00    +0.000 A 
ATOM      7  N   UNL     1       3.650   3.793  17.506  0.00  0.00    +0.000 N 
ATOM      8  C   UNL     1       4.413   4.225  16.423  0.00  0.00    +0.000 A 
ATOM      9  C   UNL     1       4.922   3.539  15.302  0.00  0.00    +0.000 A 
ATOM     10  C   UNL     1       5.685   4.271  14.376  0.00  0.00    +0.000 A 
ATOM     11 BR   UNL     1       6.350   3.395  12.838  0.00  0.00    +0.000 Br
ATOM     12  C   UNL     1       5.951   5.624  14.557  0.00  0.00    +0.000 A 
ATOM     13  C   UNL     1       5.441   6.292  15.666  0.00  0.00    +0.000 A 
ATOM     14  C   UNL     1       4.657   5.591  16.602  0.00  0.00    +0.000 A 
ATOM     15  C   UNL     1       3.352   2.398  17.823  0.00  0.00    +0.000 C 
ATOM     16  C   UNL     1       3.896   1.977  19.190  0.00  0.00    +0.000 C 
ATOM     17  C   UNL     1       3.155   2.514  20.420  0.00  0.00    +0.000 C 
ATOM     18  C   UNL     1       3.165   4.033  20.642  0.00  0.00    +0.000 C 
ATOM     19  C   UNL     1       2.475   4.874  19.540  0.00  0.00    +0.000 C 
ENDROOT
BRANCH  15  20
ATOM     20  O   UNL     1       1.959   2.141  17.687  0.00  0.00    +0.000 OA
ATOM     21  H   UNL     1       1.833   1.477  16.992  0.00  0.00    +0.000 HD
ENDBRANCH  15  20
TORSDOF 1
ENDMDL
MODEL 6
REMARK VINA RESULT:      -6.1      4.944      8.131
REMARK  Name = 
REMARK  2 active torsions:
REMARK  status: ('A' for Active; 'I' for Inactive)
REMARK    1  A    between atoms: C_1  and  N_2
REMARK    2  A    between atoms: C_15  and  O_16
REMARK                            x       y       z     vdW  Elec       q    Type
REMARK                         _______ _______ _______ _____ _____    ______ ____
ROOT
ATOM      1  C   UNL     1      -3.107  14.838  21.640  0.00  0.00    +0.000 C 
ATOM      2  N   UNL     1      -2.741  13.418  21.630  0.00  0.00    +0.000 NA
ATOM      3  C   UNL     1      -1.503  13.249  22.434  0.00  0.00    +0.000 C 
ATOM      4  C   UNL     1      -1.166  11.759  22.598  0.00  0.00    +0.000 C 
ATOM      5  C   UNL     1      -0.943  11.222  21.236  0.00  0.00    +0.000 A 
ATOM      6  C   UNL     1      -1.612  11.764  20.160  0.00  0.00    +0.000 A 
ATOM      7  N   UNL     1      -1.170  11.117  19.029  0.00  0.00    +0.000 N 
ATOM      8  C   UNL     1      -0.172  10.210  19.378  0.00  0.00    +0.000 A 
ATOM      9  C   UNL     1       0.637   9.360  18.597  0.00  0.00    +0.000 A 
ATOM     10  C   UNL     1       1.559   8.535  19.265  0.00  0.00    +0.000 A 
ATOM     11 BR   UNL     1       2.690   7.412  18.249  0.00  0.00    +0.000 Br
ATOM     12  C   UNL     1       1.668   8.537  20.651  0.00  0.00    +0.000 A 
ATOM     13  C   UNL     1       0.867   9.382  21.413  0.00  0.00    +0.000 A 
ATOM     14  C   UNL     1      -0.053  10.233  20.772  0.00  0.00    +0.000 A 
ATOM     15  C   UNL     1      -1.757  11.252  17.698  0.00  0.00    +0.000 C 
ATOM     16  C   UNL     1      -3.262  10.968  17.689  0.00  0.00    +0.000 C 
ATOM     17  C   UNL     1      -4.168  12.042  18.301  0.00  0.00    +0.000 C 
ATOM     18  C   UNL     1      -4.012  12.324  19.802  0.00  0.00    +0.000 C 
ATOM     19  C   UNL     1      -2.631  12.875  20.237  0.00  0.00    +0.000 C 
ENDROOT
BRANCH  15  20
ATOM     20  O   UNL     1      -1.438  12.520  17.136  0.00  0.00    +0.000 OA
ATOM     21  H   UNL     1      -2.177  12.807  16.579  0.00  0.00    +0.000 HD
ENDBRANCH  15  20
TORSDOF 1
ENDMDL
MODEL 7
REMARK VINA RESULT:      -6.0      8.704      9.984
REMARK  Name = 
REMARK  2 active torsions:
REMARK  status: ('A' for Active; 'I' for Inactive)
REMARK    1  A    between atoms: C_1  and  N_2
REMARK    2  A    between atoms: C_15  and  O_16
REMARK                            x       y       z     vdW  Elec       q    Type
REMARK                         _______ _______ _______ _____ _____    ______ ____
ROOT
ATOM      1  C   UNL     1      10.974  15.863  17.712  0.00  0.00    +0.000 C 
ATOM      2  N   UNL     1       9.744  15.315  18.291  0.00  0.00    +0.000 NA
ATOM      3  C   UNL     1       9.228  16.282  19.294  0.00  0.00    +0.000 C 
ATOM      4  C   UNL     1       7.851  15.838  19.812  0.00  0.00    +0.000 C 
ATOM      5  C   UNL     1       8.046  14.520  20.458  0.00  0.00    +0.000 A 
ATOM      6  C   UNL     1       9.030  13.666  20.007  0.00  0.00    +0.000 A 
ATOM      7  N   UNL     1       9.020  12.557  20.820  0.00  0.00    +0.000 N 
ATOM      8  C   UNL     1       8.075  12.733  21.829  0.00  0.00    +0.000 A 
ATOM      9  C   UNL     1       7.725  11.934  22.935  0.00  0.00    +0.000 A 
ATOM     10  C   UNL     1       6.696  12.392  23.776  0.00  0.00    +0.000 A 
ATOM     11 BR   UNL     1       6.226  11.367  25.294  0.00  0.00    +0.000 Br
ATOM     12  C   UNL     1       6.027  13.585  23.527  0.00  0.00    +0.000 A 
ATOM     13  C   UNL     1       6.383  14.369  22.433  0.00  0.00    +0.000 A 
ATOM     14  C   UNL     1       7.422  13.946  21.583  0.00  0.00    +0.000 A 
ATOM     15  C   UNL     1       9.773  11.328  20.577  0.00  0.00    +0.000 C 
ATOM     16  C   UNL     1       9.503  10.738  19.190  0.00  0.00    +0.000 C 
ATOM     17  C   UNL     1      10.129  11.470  17.998  0.00  0.00    +0.000 C 
ATOM     18  C   UNL     1       9.651  12.902  17.720  0.00  0.00    +0.000 C 
ATOM     19  C   UNL     1       9.946  13.933  18.837  0.00  0.00    +0.000 C 
ENDROOT
BRANCH  15  20
ATOM     20  O   UNL     1      11.160  11.534  20.822  0.00  0.00    +0.000 OA
ATOM     21  H   UNL     1      11.588  11.781  19.988  0.00  0.00    +0.000 HD
ENDBRANCH  15  20
TORSDOF 1
ENDMDL
MODEL 8
REMARK VINA RESULT:      -5.9      6.247      8.438
REMARK  Name = 
REMARK  2 active torsions:
REMARK  status: ('A' for Active; 'I' for Inactive)
REMARK    1  A    between atoms: C_1  and  N_2
REMARK    2  A    between atoms: C_15  and  O_16
REMARK                            x       y       z     vdW  Elec       q    Type
REMARK                         _______ _______ _______ _____ _____    ______ ____
ROOT
ATOM      1  C   UNL     1      -3.047  10.757  15.160  0.00  0.00    +0.000 C 
ATOM      2  N   UNL     1      -3.475  10.715  16.561  0.00  0.00    +0.000 NA
ATOM      3  C   UNL     1      -4.760  11.452  16.681  0.00  0.00    +0.000 C 
ATOM      4  C   UNL     1      -5.340  11.299  18.095  0.00  0.00    +0.000 C 
ATOM      5  C   UNL     1      -4.350  11.886  19.026  0.00  0.00    +0.000 A 
ATOM      6  C   UNL     1      -3.007  11.855  18.719  0.00  0.00    +0.000 A 
ATOM      7  N   UNL     1      -2.338  12.517  19.722  0.00  0.00    +0.000 N 
ATOM      8  C   UNL     1      -3.260  13.028  20.633  0.00  0.00    +0.000 A 
ATOM      9  C   UNL     1      -3.099  13.826  21.783  0.00  0.00    +0.000 A 
ATOM     10  C   UNL     1      -4.251  14.165  22.512  0.00  0.00    +0.000 A 
ATOM     11 BR   UNL     1      -4.079  15.268  24.039  0.00  0.00    +0.000 Br
ATOM     12  C   UNL     1      -5.513  13.723  22.132  0.00  0.00    +0.000 A 
ATOM     13  C   UNL     1      -5.661  12.938  20.992  0.00  0.00    +0.000 A 
ATOM     14  C   UNL     1      -4.528  12.596  20.230  0.00  0.00    +0.000 A 
ATOM     15  C   UNL     1      -0.886  12.551  19.885  0.00  0.00    +0.000 C 
ATOM     16  C   UNL     1      -0.267  11.151  19.927  0.00  0.00    +0.000 C 
ATOM     17  C   UNL     1      -0.195  10.392  18.598  0.00  0.00    +0.000 C 
ATOM     18  C   UNL     1      -1.523  10.019  17.926  0.00  0.00    +0.000 C 
ATOM     19  C   UNL     1      -2.409  11.213  17.490  0.00  0.00    +0.000 C 
ENDROOT
BRANCH  15  20
ATOM     20  O   UNL     1      -0.290  13.382  18.895  0.00  0.00    +0.000 OA
ATOM     21  H   UNL     1      -0.555  14.299  19.061  0.00  0.00    +0.000 HD
ENDBRANCH  15  20
TORSDOF 1
ENDMDL
MODEL 9
REMARK VINA RESULT:      -5.9      3.716      7.012
REMARK  Name = 
REMARK  2 active torsions:
REMARK  status: ('A' for Active; 'I' for Inactive)
REMARK    1  A    between atoms: C_1  and  N_2
REMARK    2  A    between atoms: C_15  and  O_16
REMARK                            x       y       z     vdW  Elec       q    Type
REMARK                         _______ _______ _______ _____ _____    ______ ____
ROOT
ATOM      1  C   UNL     1      -1.388  12.482  23.084  0.00  0.00    +0.000 C 
ATOM      2  N   UNL     1      -1.273  11.193  22.396  0.00  0.00    +0.000 NA
ATOM      3  C   UNL     1      -0.430  10.293  23.225  0.00  0.00    +0.000 C 
ATOM      4  C   UNL     1      -0.413   8.874  22.635  0.00  0.00    +0.000 C 
ATOM      5  C   UNL     1       0.175   8.986  21.280  0.00  0.00    +0.000 A 
ATOM      6  C   UNL     1       0.012  10.141  20.547  0.00  0.00    +0.000 A 
ATOM      7  N   UNL     1       0.705   9.985  19.369  0.00  0.00    +0.000 N 
ATOM      8  C   UNL     1       1.364   8.758  19.381  0.00  0.00    +0.000 A 
ATOM      9  C   UNL     1       2.245   8.158  18.459  0.00  0.00    +0.000 A 
ATOM     10  C   UNL     1       2.737   6.876  18.761  0.00  0.00    +0.000 A 
ATOM     11 BR   UNL     1       3.953   6.055  17.568  0.00  0.00    +0.000 Br
ATOM     12  C   UNL     1       2.362   6.204  19.919  0.00  0.00    +0.000 A 
ATOM     13  C   UNL     1       1.494   6.808  20.825  0.00  0.00    +0.000 A 
ATOM     14  C   UNL     1       0.999   8.099  20.560  0.00  0.00    +0.000 A 
ATOM     15  C   UNL     1       0.640  10.895  18.227  0.00  0.00    +0.000 C 
ATOM     16  C   UNL     1      -0.795  11.136  17.750  0.00  0.00    +0.000 C 
ATOM     17  C   UNL     1      -1.671  12.030  18.634  0.00  0.00    +0.000 C 
ATOM     18  C   UNL     1      -1.997  11.525  20.046  0.00  0.00    +0.000 C 
ATOM     19  C   UNL     1      -0.780  11.349  20.988  0.00  0.00    +0.000 C 
ENDROOT
BRANCH  15  20
ATOM     20  O   UNL     1       1.332  12.106  18.511  0.00  0.00    +0.000 OA
ATOM     21  H   UNL     1       1.090  12.398  19.403  0.00  0.00    +0.000 HD
ENDBRANCH  15  20
TORSDOF 1
ENDMDL
