MODEL 1
REMARK VINA RESULT:      -8.3      0.000      0.000
REMARK  Name = 
REMARK  10 active torsions:
REMARK  status: ('A' for Active; 'I' for Inactive)
REMARK    1  A    between atoms: C_1  and  O_2
REMARK    2  A    between atoms: O_2  and  C_3
REMARK    3  A    between atoms: C_6  and  C_7
REMARK    4  A    between atoms: C_8  and  C_9
REMARK    5  A    between atoms: C_12  and  O_13
REMARK    6  A    between atoms: O_13  and  C_14
REMARK    7  A    between atoms: C_15  and  O_16
REMARK    8  A    between atoms: O_16  and  C_17
REMARK    9  A    between atoms: C_24  and  O_25
REMARK   10  A    between atoms: O_25  and  C_26
REMARK                            x       y       z     vdW  Elec       q    Type
REMARK                         _______ _______ _______ _____ _____    ______ ____
ROOT
ATOM      1  C   UNL     1       2.227   4.351  19.367  0.00  0.00    +0.000 C 
ATOM      2  C   UNL     1       3.168   3.593  18.778  0.00  0.00    +0.000 C 
ATOM      3  C   UNL     1       2.822   2.193  19.114  0.00  0.00    +0.000 C 
ATOM      4  O   UNL     1       3.421   1.191  18.777  0.00  0.00    +0.000 OA
ATOM      5  N   UNL     1       1.691   2.230  19.890  0.00  0.00    +0.000 N 
ATOM      6  C   UNL     1       1.214   3.556  20.118  0.00  0.00    +0.000 C 
ATOM      7  H   UNL     1       1.261   1.379  20.225  0.00  0.00    +0.000 HD
ENDROOT
BRANCH   1  11
ATOM      8  C   UNL     1       1.804   8.596  19.206  0.00  0.00    +0.000 A 
ATOM      9  C   UNL     1       2.223   7.875  18.075  0.00  0.00    +0.000 A 
ATOM     10  C   UNL     1       2.361   6.486  18.118  0.00  0.00    +0.000 A 
ATOM     11  C   UNL     1       2.118   5.802  19.306  0.00  0.00    +0.000 A 
ATOM     12  C   UNL     1       1.760   6.522  20.449  0.00  0.00    +0.000 A 
ATOM     13  C   UNL     1       1.607   7.916  20.418  0.00  0.00    +0.000 A 
BRANCH   8  15
ATOM     14  C   UNL     1       0.391  10.395  18.585  0.00  0.00    +0.000 C 
ATOM     15  O   UNL     1       1.622   9.951  19.152  0.00  0.00    +0.000 OA
ENDBRANCH   8  15
BRANCH  13  16
ATOM     16  O   UNL     1       1.248   8.414  21.642  0.00  0.00    +0.000 OA
ATOM     17  C   UNL     1      -0.117   8.698  21.902  0.00  0.00    +0.000 C 
ENDBRANCH  13  16
ENDBRANCH   1  11
BRANCH   2  18
ATOM     18  C   UNL     1       4.313   3.992  17.969  0.00  0.00    +0.000 A 
ATOM     19  C   UNL     1       4.211   4.049  16.579  0.00  0.00    +0.000 A 
ATOM     20  C   UNL     1       5.334   4.361  15.814  0.00  0.00    +0.000 A 
ATOM     21  C   UNL     1       6.568   4.637  16.421  0.00  0.00    +0.000 A 
ATOM     22  C   UNL     1       6.680   4.594  17.824  0.00  0.00    +0.000 A 
ATOM     23  C   UNL     1       5.540   4.281  18.583  0.00  0.00    +0.000 A 
BRANCH  21  24
ATOM     24  O   UNL     1       7.567   4.859  15.509  0.00  0.00    +0.000 OA
ATOM     25  C   UNL     1       7.208   4.855  14.134  0.00  0.00    +0.000 C 
ENDBRANCH  21  24
BRANCH  22  26
ATOM     26  O   UNL     1       7.911   4.821  18.379  0.00  0.00    +0.000 OA
ATOM     27  C   UNL     1       8.041   5.892  19.305  0.00  0.00    +0.000 C 
ENDBRANCH  22  26
ENDBRANCH   2  18
TORSDOF 6
ENDMDL
MODEL 2
REMARK VINA RESULT:      -8.1      1.182      1.205
REMARK  Name = 
REMARK  10 active torsions:
REMARK  status: ('A' for Active; 'I' for Inactive)
REMARK    1  A    between atoms: C_1  and  O_2
REMARK    2  A    between atoms: O_2  and  C_3
REMARK    3  A    between atoms: C_6  and  C_7
REMARK    4  A    between atoms: C_8  and  C_9
REMARK    5  A    between atoms: C_12  and  O_13
REMARK    6  A    between atoms: O_13  and  C_14
REMARK    7  A    between atoms: C_15  and  O_16
REMARK    8  A    between atoms: O_16  and  C_17
REMARK    9  A    between atoms: C_24  and  O_25
REMARK   10  A    between atoms: O_25  and  C_26
REMARK                            x       y       z     vdW  Elec       q    Type
REMARK                         _______ _______ _______ _____ _____    ______ ____
ROOT
ATOM      1  C   UNL     1       2.627   5.246  19.984  0.00  0.00    +0.000 C 
ATOM      2  C   UNL     1       3.611   4.509  19.441  0.00  0.00    +0.000 C 
ATOM      3  C   UNL     1       3.560   3.201  20.134  0.00  0.00    +0.000 C 
ATOM      4  O   UNL     1       4.282   2.242  19.942  0.00  0.00    +0.000 OA
ATOM      5  N   UNL     1       2.539   3.267  21.049  0.00  0.00    +0.000 N 
ATOM      6  C   UNL     1       1.866   4.526  21.043  0.00  0.00    +0.000 C 
ATOM      7  H   UNL     1       2.308   2.473  21.629  0.00  0.00    +0.000 HD
ENDROOT
BRANCH   1  11
ATOM      8  C   UNL     1       1.445   9.209  18.924  0.00  0.00    +0.000 A 
ATOM      9  C   UNL     1       2.011   8.351  17.967  0.00  0.00    +0.000 A 
ATOM     10  C   UNL     1       2.397   7.052  18.303  0.00  0.00    +0.000 A 
ATOM     11  C   UNL     1       2.259   6.606  19.615  0.00  0.00    +0.000 A 
ATOM     12  C   UNL     1       1.753   7.477  20.584  0.00  0.00    +0.000 A 
ATOM     13  C   UNL     1       1.349   8.780  20.258  0.00  0.00    +0.000 A 
BRANCH   8  15
ATOM     14  C   UNL     1      -0.390  10.639  18.465  0.00  0.00    +0.000 C 
ATOM     15  O   UNL     1       1.021  10.465  18.584  0.00  0.00    +0.000 OA
ENDBRANCH   8  15
BRANCH  13  16
ATOM     16  O   UNL     1       0.881   9.456  21.353  0.00  0.00    +0.000 OA
ATOM     17  C   UNL     1      -0.219   8.928  22.075  0.00  0.00    +0.000 C 
ENDBRANCH  13  16
ENDBRANCH   1  11
BRANCH   2  18
ATOM     18  C   UNL     1       4.565   4.853  18.394  0.00  0.00    +0.000 A 
ATOM     19  C   UNL     1       4.395   4.371  17.096  0.00  0.00    +0.000 A 
ATOM     20  C   UNL     1       5.353   4.649  16.123  0.00  0.00    +0.000 A 
ATOM     21  C   UNL     1       6.483   5.424  16.422  0.00  0.00    +0.000 A 
ATOM     22  C   UNL     1       6.660   5.925  17.725  0.00  0.00    +0.000 A 
ATOM     23  C   UNL     1       5.685   5.641  18.696  0.00  0.00    +0.000 A 
BRANCH  21  24
ATOM     24  O   UNL     1       7.343   5.537  15.359  0.00  0.00    +0.000 OA
ATOM     25  C   UNL     1       7.019   4.815  14.179  0.00  0.00    +0.000 C 
ENDBRANCH  21  24
BRANCH  22  26
ATOM     26  O   UNL     1       7.799   6.637  17.993  0.00  0.00    +0.000 OA
ATOM     27  C   UNL     1       7.791   8.035  17.737  0.00  0.00    +0.000 C 
ENDBRANCH  22  26
ENDBRANCH   2  18
TORSDOF 6
ENDMDL
MODEL 3
REMARK VINA RESULT:      -7.7      1.015      6.088
REMARK  Name = 
REMARK  10 active torsions:
REMARK  status: ('A' for Active; 'I' for Inactive)
REMARK    1  A    between atoms: C_1  and  O_2
REMARK    2  A    between atoms: O_2  and  C_3
REMARK    3  A    between atoms: C_6  and  C_7
REMARK    4  A    between atoms: C_8  and  C_9
REMARK    5  A    between atoms: C_12  and  O_13
REMARK    6  A    between atoms: O_13  and  C_14
REMARK    7  A    between atoms: C_15  and  O_16
REMARK    8  A    between atoms: O_16  and  C_17
REMARK    9  A    between atoms: C_24  and  O_25
REMARK   10  A    between atoms: O_25  and  C_26
REMARK                            x       y       z     vdW  Elec       q    Type
REMARK                         _______ _______ _______ _____ _____    ______ ____
ROOT
ATOM      1  C   UNL     1       3.699   3.548  18.894  0.00  0.00    +0.000 C 
ATOM      2  C   UNL     1       2.736   4.282  19.477  0.00  0.00    +0.000 C 
ATOM      3  C   UNL     1       2.026   3.359  20.391  0.00  0.00    +0.000 C 
ATOM      4  O   UNL     1       1.083   3.623  21.111  0.00  0.00    +0.000 OA
ATOM      5  N   UNL     1       2.628   2.131  20.274  0.00  0.00    +0.000 N 
ATOM      6  C   UNL     1       3.714   2.129  19.348  0.00  0.00    +0.000 C 
ATOM      7  H   UNL     1       2.316   1.343  20.825  0.00  0.00    +0.000 HD
ENDROOT
BRANCH   1  11
ATOM      8  C   UNL     1       6.564   5.025  16.095  0.00  0.00    +0.000 A 
ATOM      9  C   UNL     1       5.426   4.329  15.655  0.00  0.00    +0.000 A 
ATOM     10  C   UNL     1       4.482   3.845  16.563  0.00  0.00    +0.000 A 
ATOM     11  C   UNL     1       4.684   4.018  17.930  0.00  0.00    +0.000 A 
ATOM     12  C   UNL     1       5.845   4.655  18.374  0.00  0.00    +0.000 A 
ATOM     13  C   UNL     1       6.796   5.156  17.474  0.00  0.00    +0.000 A 
BRANCH   8  15
ATOM     14  C   UNL     1       7.371   5.055  13.866  0.00  0.00    +0.000 C 
ATOM     15  O   UNL     1       7.465   5.541  15.204  0.00  0.00    +0.000 OA
ENDBRANCH   8  15
BRANCH  13  16
ATOM     16  O   UNL     1       7.848   5.746  18.122  0.00  0.00    +0.000 OA
ATOM     17  C   UNL     1       7.886   7.158  18.241  0.00  0.00    +0.000 C 
ENDBRANCH  13  16
ENDBRANCH   1  11
BRANCH   2  18
ATOM     18  C   UNL     1       2.400   5.690  19.297  0.00  0.00    +0.000 A 
ATOM     19  C   UNL     1       2.503   6.287  18.041  0.00  0.00    +0.000 A 
ATOM     20  C   UNL     1       2.249   7.650  17.899  0.00  0.00    +0.000 A 
ATOM     21  C   UNL     1       1.872   8.434  19.000  0.00  0.00    +0.000 A 
ATOM     22  C   UNL     1       1.754   7.840  20.270  0.00  0.00    +0.000 A 
ATOM     23  C   UNL     1       2.009   6.464  20.399  0.00  0.00    +0.000 A 
BRANCH  21  24
ATOM     24  O   UNL     1       1.728   9.759  18.680  0.00  0.00    +0.000 OA
ATOM     25  C   UNL     1       0.431  10.202  18.305  0.00  0.00    +0.000 C 
ENDBRANCH  21  24
BRANCH  22  26
ATOM     26  O   UNL     1       1.431   8.645  21.331  0.00  0.00    +0.000 OA
ATOM     27  C   UNL     1       0.061   8.757  21.694  0.00  0.00    +0.000 C 
ENDBRANCH  22  26
ENDBRANCH   2  18
TORSDOF 6
ENDMDL
MODEL 4
REMARK VINA RESULT:      -7.6      1.203      2.104
REMARK  Name = 
REMARK  10 active torsions:
REMARK  status: ('A' for Active; 'I' for Inactive)
REMARK    1  A    between atoms: C_1  and  O_2
REMARK    2  A    between atoms: O_2  and  C_3
REMARK    3  A    between atoms: C_6  and  C_7
REMARK    4  A    between atoms: C_8  and  C_9
REMARK    5  A    between atoms: C_12  and  O_13
REMARK    6  A    between atoms: O_13  and  C_14
REMARK    7  A    between atoms: C_15  and  O_16
REMARK    8  A    between atoms: O_16  and  C_17
REMARK    9  A    between atoms: C_24  and  O_25
REMARK   10  A    between atoms: O_25  and  C_26
REMARK                            x       y       z     vdW  Elec       q    Type
REMARK                         _______ _______ _______ _____ _____    ______ ____
ROOT
ATOM      1  C   UNL     1       2.177   4.956  19.546  0.00  0.00    +0.000 C 
ATOM      2  C   UNL     1       3.256   4.331  19.044  0.00  0.00    +0.000 C 
ATOM      3  C   UNL     1       2.995   2.884  19.217  0.00  0.00    +0.000 C 
ATOM      4  O   UNL     1       3.724   1.966  18.895  0.00  0.00    +0.000 OA
ATOM      5  N   UNL     1       1.769   2.762  19.820  0.00  0.00    +0.000 N 
ATOM      6  C   UNL     1       1.146   4.021  20.077  0.00  0.00    +0.000 C 
ATOM      7  H   UNL     1       1.375   1.853  20.021  0.00  0.00    +0.000 HD
ENDROOT
BRANCH   1  11
ATOM      8  C   UNL     1       1.401   9.153  19.674  0.00  0.00    +0.000 A 
ATOM      9  C   UNL     1       1.821   8.538  18.482  0.00  0.00    +0.000 A 
ATOM     10  C   UNL     1       2.073   7.166  18.430  0.00  0.00    +0.000 A 
ATOM     11  C   UNL     1       1.947   6.394  19.582  0.00  0.00    +0.000 A 
ATOM     12  C   UNL     1       1.590   7.012  20.783  0.00  0.00    +0.000 A 
ATOM     13  C   UNL     1       1.321   8.387  20.848  0.00  0.00    +0.000 A 
BRANCH   8  15
ATOM     14  C   UNL     1      -0.113  10.880  19.084  0.00  0.00    +0.000 C 
ATOM     15  O   UNL     1       1.106  10.488  19.714  0.00  0.00    +0.000 OA
ENDBRANCH   8  15
BRANCH  13  16
ATOM     16  O   UNL     1       0.984   8.780  22.116  0.00  0.00    +0.000 OA
ATOM     17  C   UNL     1      -0.373   9.058  22.418  0.00  0.00    +0.000 C 
ENDBRANCH  13  16
ENDBRANCH   1  11
BRANCH   2  18
ATOM     18  C   UNL     1       4.462   4.889  18.444  0.00  0.00    +0.000 A 
ATOM     19  C   UNL     1       5.496   5.369  19.249  0.00  0.00    +0.000 A 
ATOM     20  C   UNL     1       6.610   5.966  18.662  0.00  0.00    +0.000 A 
ATOM     21  C   UNL     1       6.720   6.078  17.269  0.00  0.00    +0.000 A 
ATOM     22  C   UNL     1       5.688   5.588  16.446  0.00  0.00    +0.000 A 
ATOM     23  C   UNL     1       4.572   4.986  17.050  0.00  0.00    +0.000 A 
BRANCH  21  24
ATOM     24  O   UNL     1       7.852   6.748  16.880  0.00  0.00    +0.000 OA
ATOM     25  C   UNL     1       8.049   8.054  17.406  0.00  0.00    +0.000 C 
ENDBRANCH  21  24
BRANCH  22  26
ATOM     26  O   UNL     1       5.807   5.759  15.092  0.00  0.00    +0.000 OA
ATOM     27  C   UNL     1       6.397   4.711  14.334  0.00  0.00    +0.000 C 
ENDBRANCH  22  26
ENDBRANCH   2  18
TORSDOF 6
ENDMDL
MODEL 5
REMARK VINA RESULT:      -7.6      1.234      2.670
REMARK  Name = 
REMARK  10 active torsions:
REMARK  status: ('A' for Active; 'I' for Inactive)
REMARK    1  A    between atoms: C_1  and  O_2
REMARK    2  A    between atoms: O_2  and  C_3
REMARK    3  A    between atoms: C_6  and  C_7
REMARK    4  A    between atoms: C_8  and  C_9
REMARK    5  A    between atoms: C_12  and  O_13
REMARK    6  A    between atoms: O_13  and  C_14
REMARK    7  A    between atoms: C_15  and  O_16
REMARK    8  A    between atoms: O_16  and  C_17
REMARK    9  A    between atoms: C_24  and  O_25
REMARK   10  A    between atoms: O_25  and  C_26
REMARK                            x       y       z     vdW  Elec       q    Type
REMARK                         _______ _______ _______ _____ _____    ______ ____
ROOT
ATOM      1  C   UNL     1       2.346   3.926  19.113  0.00  0.00    +0.000 C 
ATOM      2  C   UNL     1       3.434   3.517  18.438  0.00  0.00    +0.000 C 
ATOM      3  C   UNL     1       3.240   2.067  18.208  0.00  0.00    +0.000 C 
ATOM      4  O   UNL     1       3.996   1.311  17.631  0.00  0.00    +0.000 OA
ATOM      5  N   UNL     1       2.039   1.724  18.776  0.00  0.00    +0.000 N 
ATOM      6  C   UNL     1       1.372   2.831  19.383  0.00  0.00    +0.000 C 
ATOM      7  H   UNL     1       1.690   0.777  18.725  0.00  0.00    +0.000 HD
ENDROOT
BRANCH   1  11
ATOM      8  C   UNL     1       1.603   7.930  20.395  0.00  0.00    +0.000 A 
ATOM      9  C   UNL     1       1.264   6.841  21.216  0.00  0.00    +0.000 A 
ATOM     10  C   UNL     1       1.507   5.528  20.806  0.00  0.00    +0.000 A 
ATOM     11  C   UNL     1       2.057   5.285  19.550  0.00  0.00    +0.000 A 
ATOM     12  C   UNL     1       2.338   6.363  18.707  0.00  0.00    +0.000 A 
ATOM     13  C   UNL     1       2.111   7.687  19.109  0.00  0.00    +0.000 A 
BRANCH   8  15
ATOM     14  C   UNL     1       0.342   9.422  21.738  0.00  0.00    +0.000 C 
ATOM     15  O   UNL     1       1.411   9.218  20.816  0.00  0.00    +0.000 OA
ENDBRANCH   8  15
BRANCH  13  16
ATOM     16  O   UNL     1       2.462   8.582  18.134  0.00  0.00    +0.000 OA
ATOM     17  C   UNL     1       1.557   9.615  17.783  0.00  0.00    +0.000 C 
ENDBRANCH  13  16
ENDBRANCH   1  11
BRANCH   2  18
ATOM     18  C   UNL     1       4.595   4.277  17.994  0.00  0.00    +0.000 A 
ATOM     19  C   UNL     1       5.496   4.801  18.922  0.00  0.00    +0.000 A 
ATOM     20  C   UNL     1       6.561   5.587  18.487  0.00  0.00    +0.000 A 
ATOM     21  C   UNL     1       6.756   5.848  17.123  0.00  0.00    +0.000 A 
ATOM     22  C   UNL     1       5.861   5.317  16.176  0.00  0.00    +0.000 A 
ATOM     23  C   UNL     1       4.793   4.523  16.627  0.00  0.00    +0.000 A 
BRANCH  21  24
ATOM     24  O   UNL     1       7.815   6.690  16.892  0.00  0.00    +0.000 OA
ATOM     25  C   UNL     1       7.812   7.941  17.566  0.00  0.00    +0.000 C 
ENDBRANCH  21  24
BRANCH  22  26
ATOM     26  O   UNL     1       6.055   5.633  14.857  0.00  0.00    +0.000 OA
ATOM     27  C   UNL     1       6.781   4.717  14.048  0.00  0.00    +0.000 C 
ENDBRANCH  22  26
ENDBRANCH   2  18
TORSDOF 6
ENDMDL
MODEL 6
REMARK VINA RESULT:      -7.4      1.449      6.083
REMARK  Name = 
REMARK  10 active torsions:
REMARK  status: ('A' for Active; 'I' for Inactive)
REMARK    1  A    between atoms: C_1  and  O_2
REMARK    2  A    between atoms: O_2  and  C_3
REMARK    3  A    between atoms: C_6  and  C_7
REMARK    4  A    between atoms: C_8  and  C_9
REMARK    5  A    between atoms: C_12  and  O_13
REMARK    6  A    between atoms: O_13  and  C_14
REMARK    7  A    between atoms: C_15  and  O_16
REMARK    8  A    between atoms: O_16  and  C_17
REMARK    9  A    between atoms: C_24  and  O_25
REMARK   10  A    between atoms: O_25  and  C_26
REMARK                            x       y       z     vdW  Elec       q    Type
REMARK                         _______ _______ _______ _____ _____    ______ ____
ROOT
ATOM      1  C   UNL     1       3.488   3.711  17.881  0.00  0.00    +0.000 C 
ATOM      2  C   UNL     1       2.452   4.071  18.658  0.00  0.00    +0.000 C 
ATOM      3  C   UNL     1       1.570   2.883  18.722  0.00  0.00    +0.000 C 
ATOM      4  O   UNL     1       0.518   2.785  19.324  0.00  0.00    +0.000 OA
ATOM      5  N   UNL     1       2.157   1.900  17.966  0.00  0.00    +0.000 N 
ATOM      6  C   UNL     1       3.392   2.312  17.380  0.00  0.00    +0.000 C 
ATOM      7  H   UNL     1       1.734   0.986  17.880  0.00  0.00    +0.000 HD
ENDROOT
BRANCH   1  11
ATOM      8  C   UNL     1       6.857   6.169  16.968  0.00  0.00    +0.000 A 
ATOM      9  C   UNL     1       5.676   6.264  16.213  0.00  0.00    +0.000 A 
ATOM     10  C   UNL     1       4.568   5.467  16.507  0.00  0.00    +0.000 A 
ATOM     11  C   UNL     1       4.640   4.533  17.538  0.00  0.00    +0.000 A 
ATOM     12  C   UNL     1       5.833   4.393  18.251  0.00  0.00    +0.000 A 
ATOM     13  C   UNL     1       6.951   5.195  17.975  0.00  0.00    +0.000 A 
BRANCH   8  15
ATOM     14  C   UNL     1       7.986   8.194  17.465  0.00  0.00    +0.000 C 
ATOM     15  O   UNL     1       7.926   6.984  16.712  0.00  0.00    +0.000 OA
ENDBRANCH   8  15
BRANCH  13  16
ATOM     16  O   UNL     1       8.006   4.895  18.794  0.00  0.00    +0.000 OA
ATOM     17  C   UNL     1       8.154   5.595  20.018  0.00  0.00    +0.000 C 
ENDBRANCH  13  16
ENDBRANCH   1  11
BRANCH   2  18
ATOM     18  C   UNL     1       2.183   5.338  19.326  0.00  0.00    +0.000 A 
ATOM     19  C   UNL     1       1.725   5.361  20.643  0.00  0.00    +0.000 A 
ATOM     20  C   UNL     1       1.403   6.576  21.244  0.00  0.00    +0.000 A 
ATOM     21  C   UNL     1       1.550   7.786  20.551  0.00  0.00    +0.000 A 
ATOM     22  C   UNL     1       2.022   7.778  19.225  0.00  0.00    +0.000 A 
ATOM     23  C   UNL     1       2.346   6.546  18.632  0.00  0.00    +0.000 A 
BRANCH  21  24
ATOM     24  O   UNL     1       1.125   8.868  21.280  0.00  0.00    +0.000 OA
ATOM     25  C   UNL     1      -0.274   9.001  21.492  0.00  0.00    +0.000 C 
ENDBRANCH  21  24
BRANCH  22  26
ATOM     26  O   UNL     1       2.106   8.974  18.562  0.00  0.00    +0.000 OA
ATOM     27  C   UNL     1       0.941   9.463  17.912  0.00  0.00    +0.000 C 
ENDBRANCH  22  26
ENDBRANCH   2  18
TORSDOF 6
ENDMDL
MODEL 7
REMARK VINA RESULT:      -7.2      0.883      1.889
REMARK  Name = 
REMARK  10 active torsions:
REMARK  status: ('A' for Active; 'I' for Inactive)
REMARK    1  A    between atoms: C_1  and  O_2
REMARK    2  A    between atoms: O_2  and  C_3
REMARK    3  A    between atoms: C_6  and  C_7
REMARK    4  A    between atoms: C_8  and  C_9
REMARK    5  A    between atoms: C_12  and  O_13
REMARK    6  A    between atoms: O_13  and  C_14
REMARK    7  A    between atoms: C_15  and  O_16
REMARK    8  A    between atoms: O_16  and  C_17
REMARK    9  A    between atoms: C_24  and  O_25
REMARK   10  A    between atoms: O_25  and  C_26
REMARK                            x       y       z     vdW  Elec       q    Type
REMARK                         _______ _______ _______ _____ _____    ______ ____
ROOT
ATOM      1  C   UNL     1       2.346   3.858  19.464  0.00  0.00    +0.000 C 
ATOM      2  C   UNL     1       3.304   3.280  18.721  0.00  0.00    +0.000 C 
ATOM      3  C   UNL     1       3.093   1.821  18.860  0.00  0.00    +0.000 C 
ATOM      4  O   UNL     1       3.747   0.934  18.347  0.00  0.00    +0.000 OA
ATOM      5  N   UNL     1       2.015   1.645  19.691  0.00  0.00    +0.000 N 
ATOM      6  C   UNL     1       1.449   2.877  20.138  0.00  0.00    +0.000 C 
ATOM      7  H   UNL     1       1.675   0.720  19.915  0.00  0.00    +0.000 HD
ENDROOT
BRANCH   1  11
ATOM      8  C   UNL     1       1.786   8.063  19.946  0.00  0.00    +0.000 A 
ATOM      9  C   UNL     1       1.332   7.163  20.926  0.00  0.00    +0.000 A 
ATOM     10  C   UNL     1       1.514   5.787  20.778  0.00  0.00    +0.000 A 
ATOM     11  C   UNL     1       2.119   5.287  19.627  0.00  0.00    +0.000 A 
ATOM     12  C   UNL     1       2.516   6.174  18.624  0.00  0.00    +0.000 A 
ATOM     13  C   UNL     1       2.351   7.560  18.763  0.00  0.00    +0.000 A 
BRANCH   8  15
ATOM     14  C   UNL     1       0.407   9.975  19.701  0.00  0.00    +0.000 C 
ATOM     15  O   UNL     1       1.652   9.415  20.113  0.00  0.00    +0.000 OA
ENDBRANCH   8  15
BRANCH  13  16
ATOM     16  O   UNL     1       2.813   8.240  17.667  0.00  0.00    +0.000 OA
ATOM     17  C   UNL     1       3.945   7.746  16.972  0.00  0.00    +0.000 C 
ENDBRANCH  13  16
ENDBRANCH   1  11
BRANCH   2  18
ATOM     18  C   UNL     1       4.360   3.890  17.922  0.00  0.00    +0.000 A 
ATOM     19  C   UNL     1       4.233   3.987  16.536  0.00  0.00    +0.000 A 
ATOM     20  C   UNL     1       5.281   4.507  15.779  0.00  0.00    +0.000 A 
ATOM     21  C   UNL     1       6.462   4.953  16.390  0.00  0.00    +0.000 A 
ATOM     22  C   UNL     1       6.598   4.871  17.788  0.00  0.00    +0.000 A 
ATOM     23  C   UNL     1       5.533   4.348  18.540  0.00  0.00    +0.000 A 
BRANCH  21  24
ATOM     24  O   UNL     1       7.402   5.370  15.482  0.00  0.00    +0.000 OA
ATOM     25  C   UNL     1       7.229   4.964  14.132  0.00  0.00    +0.000 C 
ENDBRANCH  21  24
BRANCH  22  26
ATOM     26  O   UNL     1       7.784   5.271  18.346  0.00  0.00    +0.000 OA
ATOM     27  C   UNL     1       7.939   6.645  18.675  0.00  0.00    +0.000 C 
ENDBRANCH  22  26
ENDBRANCH   2  18
TORSDOF 6
ENDMDL
MODEL 8
REMARK VINA RESULT:      -7.2      1.303      2.179
REMARK  Name = 
REMARK  10 active torsions:
REMARK  status: ('A' for Active; 'I' for Inactive)
REMARK    1  A    between atoms: C_1  and  O_2
REMARK    2  A    between atoms: O_2  and  C_3
REMARK    3  A    between atoms: C_6  and  C_7
REMARK    4  A    between atoms: C_8  and  C_9
REMARK    5  A    between atoms: C_12  and  O_13
REMARK    6  A    between atoms: O_13  and  C_14
REMARK    7  A    between atoms: C_15  and  O_16
REMARK    8  A    between atoms: O_16  and  C_17
REMARK    9  A    between atoms: C_24  and  O_25
REMARK   10  A    between atoms: O_25  and  C_26
REMARK                            x       y       z     vdW  Elec       q    Type
REMARK                         _______ _______ _______ _____ _____    ______ ____
ROOT
ATOM      1  C   UNL     1       2.866   4.642  20.300  0.00  0.00    +0.000 C 
ATOM      2  C   UNL     1       3.870   3.943  19.743  0.00  0.00    +0.000 C 
ATOM      3  C   UNL     1       3.882   2.636  20.439  0.00  0.00    +0.000 C 
ATOM      4  O   UNL     1       4.638   1.707  20.237  0.00  0.00    +0.000 OA
ATOM      5  N   UNL     1       2.874   2.664  21.370  0.00  0.00    +0.000 N 
ATOM      6  C   UNL     1       2.151   3.895  21.372  0.00  0.00    +0.000 C 
ATOM      7  H   UNL     1       2.683   1.863  21.955  0.00  0.00    +0.000 HD
ENDROOT
BRANCH   1  11
ATOM      8  C   UNL     1       1.712   8.611  19.231  0.00  0.00    +0.000 A 
ATOM      9  C   UNL     1       1.307   8.053  20.455  0.00  0.00    +0.000 A 
ATOM     10  C   UNL     1       1.682   6.757  20.814  0.00  0.00    +0.000 A 
ATOM     11  C   UNL     1       2.438   5.985  19.935  0.00  0.00    +0.000 A 
ATOM     12  C   UNL     1       2.791   6.515  18.691  0.00  0.00    +0.000 A 
ATOM     13  C   UNL     1       2.431   7.819  18.321  0.00  0.00    +0.000 A 
BRANCH   8  15
ATOM     14  C   UNL     1       0.028  10.122  18.523  0.00  0.00    +0.000 C 
ATOM     15  O   UNL     1       1.385   9.898  18.899  0.00  0.00    +0.000 OA
ENDBRANCH   8  15
BRANCH  13  16
ATOM     16  O   UNL     1       2.883   8.135  17.068  0.00  0.00    +0.000 OA
ATOM     17  C   UNL     1       4.055   7.507  16.575  0.00  0.00    +0.000 C 
ENDBRANCH  13  16
ENDBRANCH   1  11
BRANCH   2  18
ATOM     18  C   UNL     1       4.793   4.323  18.680  0.00  0.00    +0.000 A 
ATOM     19  C   UNL     1       4.644   3.802  17.394  0.00  0.00    +0.000 A 
ATOM     20  C   UNL     1       5.576   4.117  16.407  0.00  0.00    +0.000 A 
ATOM     21  C   UNL     1       6.657   4.968  16.679  0.00  0.00    +0.000 A 
ATOM     22  C   UNL     1       6.812   5.509  17.970  0.00  0.00    +0.000 A 
ATOM     23  C   UNL     1       5.864   5.186  18.955  0.00  0.00    +0.000 A 
BRANCH  21  24
ATOM     24  O   UNL     1       7.501   5.110  15.607  0.00  0.00    +0.000 OA
ATOM     25  C   UNL     1       6.965   4.848  14.317  0.00  0.00    +0.000 C 
ENDBRANCH  21  24
BRANCH  22  26
ATOM     26  O   UNL     1       7.906   6.297  18.212  0.00  0.00    +0.000 OA
ATOM     27  C   UNL     1       7.810   7.684  17.919  0.00  0.00    +0.000 C 
ENDBRANCH  22  26
ENDBRANCH   2  18
TORSDOF 6
ENDMDL
MODEL 9
REMARK VINA RESULT:      -7.1      1.442      6.375
REMARK  Name = 
REMARK  10 active torsions:
REMARK  status: ('A' for Active; 'I' for Inactive)
REMARK    1  A    between atoms: C_1  and  O_2
REMARK    2  A    between atoms: O_2  and  C_3
REMARK    3  A    between atoms: C_6  and  C_7
REMARK    4  A    between atoms: C_8  and  C_9
REMARK    5  A    between atoms: C_12  and  O_13
REMARK    6  A    between atoms: O_13  and  C_14
REMARK    7  A    between atoms: C_15  and  O_16
REMARK    8  A    between atoms: O_16  and  C_17
REMARK    9  A    between atoms: C_24  and  O_25
REMARK   10  A    between atoms: O_25  and  C_26
REMARK                            x       y       z     vdW  Elec       q    Type
REMARK                         _______ _______ _______ _____ _____    ______ ____
ROOT
ATOM      1  C   UNL     1       3.532   3.793  18.129  0.00  0.00    +0.000 C 
ATOM      2  C   UNL     1       2.456   4.145  18.853  0.00  0.00    +0.000 C 
ATOM      3  C   UNL     1       1.609   2.933  18.926  0.00  0.00    +0.000 C 
ATOM      4  O   UNL     1       0.539   2.821  19.492  0.00  0.00    +0.000 OA
ATOM      5  N   UNL     1       2.255   1.945  18.226  0.00  0.00    +0.000 N 
ATOM      6  C   UNL     1       3.498   2.376  17.672  0.00  0.00    +0.000 C 
ATOM      7  H   UNL     1       1.864   1.016  18.156  0.00  0.00    +0.000 HD
ENDROOT
BRANCH   1  11
ATOM      8  C   UNL     1       6.919   6.190  17.123  0.00  0.00    +0.000 A 
ATOM      9  C   UNL     1       6.559   5.987  18.466  0.00  0.00    +0.000 A 
ATOM     10  C   UNL     1       5.455   5.202  18.804  0.00  0.00    +0.000 A 
ATOM     11  C   UNL     1       4.671   4.640  17.800  0.00  0.00    +0.000 A 
ATOM     12  C   UNL     1       4.990   4.889  16.463  0.00  0.00    +0.000 A 
ATOM     13  C   UNL     1       6.103   5.666  16.108  0.00  0.00    +0.000 A 
BRANCH   8  15
ATOM     14  C   UNL     1       8.181   8.168  17.464  0.00  0.00    +0.000 C 
ATOM     15  O   UNL     1       8.029   6.919  16.792  0.00  0.00    +0.000 OA
ENDBRANCH   8  15
BRANCH  13  16
ATOM     16  O   UNL     1       6.232   5.777  14.750  0.00  0.00    +0.000 OA
ATOM     17  C   UNL     1       6.724   4.673  14.008  0.00  0.00    +0.000 C 
ENDBRANCH  13  16
ENDBRANCH   1  11
BRANCH   2  18
ATOM     18  C   UNL     1       2.124   5.425  19.467  0.00  0.00    +0.000 A 
ATOM     19  C   UNL     1       1.587   5.474  20.754  0.00  0.00    +0.000 A 
ATOM     20  C   UNL     1       1.207   6.699  21.299  0.00  0.00    +0.000 A 
ATOM     21  C   UNL     1       1.371   7.892  20.581  0.00  0.00    +0.000 A 
ATOM     22  C   UNL     1       1.922   7.856  19.286  0.00  0.00    +0.000 A 
ATOM     23  C   UNL     1       2.304   6.616  18.749  0.00  0.00    +0.000 A 
BRANCH  21  24
ATOM     24  O   UNL     1       0.882   8.984  21.252  0.00  0.00    +0.000 OA
ATOM     25  C   UNL     1      -0.385   8.850  21.881  0.00  0.00    +0.000 C 
ENDBRANCH  21  24
BRANCH  22  26
ATOM     26  O   UNL     1       2.022   9.035  18.595  0.00  0.00    +0.000 OA
ATOM     27  C   UNL     1       0.840   9.579  18.023  0.00  0.00    +0.000 C 
ENDBRANCH  22  26
ENDBRANCH   2  18
TORSDOF 6
ENDMDL
