MODEL 1
REMARK VINA RESULT:      -7.3      0.000      0.000
REMARK  Name = 
REMARK  1 active torsions:
REMARK  status: ('A' for Active; 'I' for Inactive)
REMARK    1  A    between atoms: C_2  and  C_3
REMARK                            x       y       z     vdW  Elec       q    Type
REMARK                         _______ _______ _______ _____ _____    ______ ____
ROOT
ATOM      1  O   UNL     1       3.879   2.174  17.518  0.00  0.00    +0.000 OA
ATOM      2  C   UNL     1       3.953   3.133  18.288  0.00  0.00    +0.000 C 
ATOM      3  N   UNL     1       4.884   4.191  18.100  0.00  0.00    +0.000 N 
ATOM      4  C   UNL     1       5.203   5.146  19.171  0.00  0.00    +0.000 C 
ATOM      5  C   UNL     1       6.687   5.386  19.326  0.00  0.00    +0.000 C 
ATOM      6  C   UNL     1       7.253   5.955  18.045  0.00  0.00    +0.000 C 
ATOM      7  C   UNL     1       6.739   5.237  16.827  0.00  0.00    +0.000 A 
ATOM      8  C   UNL     1       7.422   5.469  15.619  0.00  0.00    +0.000 A 
ATOM      9  C   UNL     1       7.008   4.865  14.440  0.00  0.00    +0.000 A 
ATOM     10  C   UNL     1       5.904   4.026  14.458  0.00  0.00    +0.000 A 
ATOM     11  C   UNL     1       5.210   3.793  15.651  0.00  0.00    +0.000 A 
ATOM     12  C   UNL     1       5.609   4.388  16.862  0.00  0.00    +0.000 A 
ENDROOT
BRANCH   2  13
ATOM     13  C   UNL     1       3.093   3.176  19.482  0.00  0.00    +0.000 A 
ATOM     14  C   UNL     1       3.279   2.660  20.753  0.00  0.00    +0.000 A 
ATOM     15  C   UNL     1       2.124   2.795  21.577  0.00  0.00    +0.000 A 
ATOM     16  C   UNL     1       1.142   3.537  20.964  0.00  0.00    +0.000 A 
ATOM     17  S   UNL     1       1.597   4.024  19.390  0.00  0.00    +0.000 S 
ENDBRANCH   2  13
TORSDOF 1
ENDMDL
MODEL 2
REMARK VINA RESULT:      -7.3      0.784      1.022
REMARK  Name = 
REMARK  1 active torsions:
REMARK  status: ('A' for Active; 'I' for Inactive)
REMARK    1  A    between atoms: C_2  and  C_3
REMARK                            x       y       z     vdW  Elec       q    Type
REMARK                         _______ _______ _______ _____ _____    ______ ____
ROOT
ATOM      1  O   UNL     1       3.651   2.285  17.392  0.00  0.00    +0.000 OA
ATOM      2  C   UNL     1       3.726   3.251  18.153  0.00  0.00    +0.000 C 
ATOM      3  N   UNL     1       4.718   4.261  18.007  0.00  0.00    +0.000 N 
ATOM      4  C   UNL     1       5.019   5.216  19.083  0.00  0.00    +0.000 C 
ATOM      5  C   UNL     1       6.501   5.387  19.324  0.00  0.00    +0.000 C 
ATOM      6  C   UNL     1       7.168   5.908  18.073  0.00  0.00    +0.000 C 
ATOM      7  C   UNL     1       6.693   5.196  16.835  0.00  0.00    +0.000 A 
ATOM      8  C   UNL     1       7.458   5.377  15.667  0.00  0.00    +0.000 A 
ATOM      9  C   UNL     1       7.085   4.775  14.473  0.00  0.00    +0.000 A 
ATOM     10  C   UNL     1       5.942   3.990  14.436  0.00  0.00    +0.000 A 
ATOM     11  C   UNL     1       5.169   3.809  15.588  0.00  0.00    +0.000 A 
ATOM     12  C   UNL     1       5.523   4.403  16.813  0.00  0.00    +0.000 A 
ENDROOT
BRANCH   2  13
ATOM     13  C   UNL     1       2.800   3.354  19.292  0.00  0.00    +0.000 A 
ATOM     14  C   UNL     1       1.588   4.011  19.419  0.00  0.00    +0.000 A 
ATOM     15  C   UNL     1       1.083   3.982  20.752  0.00  0.00    +0.000 A 
ATOM     16  C   UNL     1       1.846   3.184  21.571  0.00  0.00    +0.000 A 
ATOM     17  S   UNL     1       3.184   2.515  20.745  0.00  0.00    +0.000 S 
ENDBRANCH   2  13
TORSDOF 1
ENDMDL
MODEL 3
REMARK VINA RESULT:      -6.9      2.105      5.755
REMARK  Name = 
REMARK  1 active torsions:
REMARK  status: ('A' for Active; 'I' for Inactive)
REMARK    1  A    between atoms: C_2  and  C_3
REMARK                            x       y       z     vdW  Elec       q    Type
REMARK                         _______ _______ _______ _____ _____    ______ ____
ROOT
ATOM      1  O   UNL     1       4.107   2.503  17.104  0.00  0.00    +0.000 OA
ATOM      2  C   UNL     1       4.475   3.678  17.104  0.00  0.00    +0.000 C 
ATOM      3  N   UNL     1       3.991   4.628  18.047  0.00  0.00    +0.000 N 
ATOM      4  C   UNL     1       4.162   6.075  17.851  0.00  0.00    +0.000 C 
ATOM      5  C   UNL     1       2.899   6.861  18.117  0.00  0.00    +0.000 C 
ATOM      6  C   UNL     1       2.459   6.658  19.548  0.00  0.00    +0.000 C 
ATOM      7  C   UNL     1       2.542   5.217  19.971  0.00  0.00    +0.000 A 
ATOM      8  C   UNL     1       1.876   4.866  21.161  0.00  0.00    +0.000 A 
ATOM      9  C   UNL     1       1.913   3.563  21.639  0.00  0.00    +0.000 A 
ATOM     10  C   UNL     1       2.620   2.601  20.934  0.00  0.00    +0.000 A 
ATOM     11  C   UNL     1       3.294   2.938  19.755  0.00  0.00    +0.000 A 
ATOM     12  C   UNL     1       3.271   4.249  19.243  0.00  0.00    +0.000 A 
ENDROOT
BRANCH   2  13
ATOM     13  C   UNL     1       5.405   4.151  16.066  0.00  0.00    +0.000 A 
ATOM     14  C   UNL     1       5.228   4.333  14.705  0.00  0.00    +0.000 A 
ATOM     15  C   UNL     1       6.441   4.666  14.032  0.00  0.00    +0.000 A 
ATOM     16  C   UNL     1       7.476   4.870  14.913  0.00  0.00    +0.000 A 
ATOM     17  S   UNL     1       6.996   4.616  16.533  0.00  0.00    +0.000 S 
ENDBRANCH   2  13
TORSDOF 1
ENDMDL
MODEL 4
REMARK VINA RESULT:      -6.7      2.513      5.594
REMARK  Name = 
REMARK  1 active torsions:
REMARK  status: ('A' for Active; 'I' for Inactive)
REMARK    1  A    between atoms: C_2  and  C_3
REMARK                            x       y       z     vdW  Elec       q    Type
REMARK                         _______ _______ _______ _____ _____    ______ ____
ROOT
ATOM      1  O   UNL     1       4.802   4.342  16.627  0.00  0.00    +0.000 OA
ATOM      2  C   UNL     1       4.873   5.043  17.638  0.00  0.00    +0.000 C 
ATOM      3  N   UNL     1       3.873   5.024  18.649  0.00  0.00    +0.000 N 
ATOM      4  C   UNL     1       3.781   6.077  19.671  0.00  0.00    +0.000 C 
ATOM      5  C   UNL     1       2.370   6.581  19.875  0.00  0.00    +0.000 C 
ATOM      6  C   UNL     1       1.480   5.447  20.327  0.00  0.00    +0.000 C 
ATOM      7  C   UNL     1       1.713   4.188  19.537  0.00  0.00    +0.000 A 
ATOM      8  C   UNL     1       0.742   3.176  19.656  0.00  0.00    +0.000 A 
ATOM      9  C   UNL     1       0.883   1.972  18.978  0.00  0.00    +0.000 A 
ATOM     10  C   UNL     1       1.998   1.769  18.179  0.00  0.00    +0.000 A 
ATOM     11  C   UNL     1       2.974   2.765  18.058  0.00  0.00    +0.000 A 
ATOM     12  C   UNL     1       2.858   3.996  18.729  0.00  0.00    +0.000 A 
ENDROOT
BRANCH   2  13
ATOM     13  C   UNL     1       5.997   5.979  17.797  0.00  0.00    +0.000 A 
ATOM     14  C   UNL     1       6.276   7.178  17.163  0.00  0.00    +0.000 A 
ATOM     15  C   UNL     1       7.557   7.699  17.508  0.00  0.00    +0.000 A 
ATOM     16  C   UNL     1       8.158   6.962  18.501  0.00  0.00    +0.000 A 
ATOM     17  S   UNL     1       7.201   5.629  18.978  0.00  0.00    +0.000 S 
ENDBRANCH   2  13
TORSDOF 1
ENDMDL
MODEL 5
REMARK VINA RESULT:      -6.6      2.463      5.491
REMARK  Name = 
REMARK  1 active torsions:
REMARK  status: ('A' for Active; 'I' for Inactive)
REMARK    1  A    between atoms: C_2  and  C_3
REMARK                            x       y       z     vdW  Elec       q    Type
REMARK                         _______ _______ _______ _____ _____    ______ ____
ROOT
ATOM      1  O   UNL     1       4.842   4.055  16.688  0.00  0.00    +0.000 OA
ATOM      2  C   UNL     1       4.938   4.776  17.682  0.00  0.00    +0.000 C 
ATOM      3  N   UNL     1       3.922   4.844  18.675  0.00  0.00    +0.000 N 
ATOM      4  C   UNL     1       3.877   5.926  19.669  0.00  0.00    +0.000 C 
ATOM      5  C   UNL     1       2.497   6.520  19.834  0.00  0.00    +0.000 C 
ATOM      6  C   UNL     1       1.531   5.455  20.298  0.00  0.00    +0.000 C 
ATOM      7  C   UNL     1       1.700   4.164  19.543  0.00  0.00    +0.000 A 
ATOM      8  C   UNL     1       0.667   3.216  19.669  0.00  0.00    +0.000 A 
ATOM      9  C   UNL     1       0.746   1.990  19.023  0.00  0.00    +0.000 A 
ATOM     10  C   UNL     1       1.859   1.699  18.250  0.00  0.00    +0.000 A 
ATOM     11  C   UNL     1       2.897   2.630  18.123  0.00  0.00    +0.000 A 
ATOM     12  C   UNL     1       2.844   3.882  18.761  0.00  0.00    +0.000 A 
ENDROOT
BRANCH   2  13
ATOM     13  C   UNL     1       6.115   5.646  17.840  0.00  0.00    +0.000 A 
ATOM     14  C   UNL     1       7.246   5.509  18.627  0.00  0.00    +0.000 A 
ATOM     15  C   UNL     1       8.082   6.663  18.596  0.00  0.00    +0.000 A 
ATOM     16  C   UNL     1       7.643   7.588  17.678  0.00  0.00    +0.000 A 
ATOM     17  S   UNL     1       6.210   7.084  16.897  0.00  0.00    +0.000 S 
ENDBRANCH   2  13
TORSDOF 1
ENDMDL
MODEL 6
REMARK VINA RESULT:      -6.5      2.096      5.690
REMARK  Name = 
REMARK  1 active torsions:
REMARK  status: ('A' for Active; 'I' for Inactive)
REMARK    1  A    between atoms: C_2  and  C_3
REMARK                            x       y       z     vdW  Elec       q    Type
REMARK                         _______ _______ _______ _____ _____    ______ ____
ROOT
ATOM      1  O   UNL     1       4.092   2.568  16.964  0.00  0.00    +0.000 OA
ATOM      2  C   UNL     1       4.542   3.707  17.098  0.00  0.00    +0.000 C 
ATOM      3  N   UNL     1       3.991   4.641  18.020  0.00  0.00    +0.000 N 
ATOM      4  C   UNL     1       4.299   6.077  17.949  0.00  0.00    +0.000 C 
ATOM      5  C   UNL     1       3.072   6.950  18.075  0.00  0.00    +0.000 C 
ATOM      6  C   UNL     1       2.402   6.708  19.407  0.00  0.00    +0.000 C 
ATOM      7  C   UNL     1       2.310   5.243  19.740  0.00  0.00    +0.000 A 
ATOM      8  C   UNL     1       1.443   4.885  20.790  0.00  0.00    +0.000 A 
ATOM      9  C   UNL     1       1.308   3.560  21.180  0.00  0.00    +0.000 A 
ATOM     10  C   UNL     1       2.041   2.581  20.526  0.00  0.00    +0.000 A 
ATOM     11  C   UNL     1       2.913   2.925  19.486  0.00  0.00    +0.000 A 
ATOM     12  C   UNL     1       3.068   4.258  19.066  0.00  0.00    +0.000 A 
ENDROOT
BRANCH   2  13
ATOM     13  C   UNL     1       5.655   4.155  16.245  0.00  0.00    +0.000 A 
ATOM     14  C   UNL     1       6.958   4.501  16.562  0.00  0.00    +0.000 A 
ATOM     15  C   UNL     1       7.673   5.028  15.447  0.00  0.00    +0.000 A 
ATOM     16  C   UNL     1       6.948   4.935  14.283  0.00  0.00    +0.000 A 
ATOM     17  S   UNL     1       5.401   4.260  14.546  0.00  0.00    +0.000 S 
ENDBRANCH   2  13
TORSDOF 1
ENDMDL
MODEL 7
REMARK VINA RESULT:      -6.4      4.746      6.826
REMARK  Name = 
REMARK  1 active torsions:
REMARK  status: ('A' for Active; 'I' for Inactive)
REMARK    1  A    between atoms: C_2  and  C_3
REMARK                            x       y       z     vdW  Elec       q    Type
REMARK                         _______ _______ _______ _____ _____    ______ ____
ROOT
ATOM      1  O   UNL     1       1.627   5.677  20.857  0.00  0.00    +0.000 OA
ATOM      2  C   UNL     1       2.268   6.207  19.948  0.00  0.00    +0.000 C 
ATOM      3  N   UNL     1       2.074   7.565  19.572  0.00  0.00    +0.000 N 
ATOM      4  C   UNL     1       2.581   8.099  18.299  0.00  0.00    +0.000 C 
ATOM      5  C   UNL     1       1.560   8.932  17.559  0.00  0.00    +0.000 C 
ATOM      6  C   UNL     1       1.152  10.116  18.403  0.00  0.00    +0.000 C 
ATOM      7  C   UNL     1       0.903   9.735  19.837  0.00  0.00    +0.000 A 
ATOM      8  C   UNL     1       0.228  10.678  20.636  0.00  0.00    +0.000 A 
ATOM      9  C   UNL     1      -0.029  10.421  21.975  0.00  0.00    +0.000 A 
ATOM     10  C   UNL     1       0.390   9.221  22.529  0.00  0.00    +0.000 A 
ATOM     11  C   UNL     1       1.069   8.278  21.749  0.00  0.00    +0.000 A 
ATOM     12  C   UNL     1       1.341   8.509  20.388  0.00  0.00    +0.000 A 
ENDROOT
BRANCH   2  13
ATOM     13  C   UNL     1       3.235   5.410  19.177  0.00  0.00    +0.000 A 
ATOM     14  C   UNL     1       4.613   5.310  19.277  0.00  0.00    +0.000 A 
ATOM     15  C   UNL     1       5.185   4.531  18.229  0.00  0.00    +0.000 A 
ATOM     16  C   UNL     1       4.222   3.940  17.446  0.00  0.00    +0.000 A 
ATOM     17  S   UNL     1       2.644   4.361  17.946  0.00  0.00    +0.000 S 
ENDBRANCH   2  13
TORSDOF 1
ENDMDL
MODEL 8
REMARK VINA RESULT:      -6.4      4.818      6.845
REMARK  Name = 
REMARK  1 active torsions:
REMARK  status: ('A' for Active; 'I' for Inactive)
REMARK    1  A    between atoms: C_2  and  C_3
REMARK                            x       y       z     vdW  Elec       q    Type
REMARK                         _______ _______ _______ _____ _____    ______ ____
ROOT
ATOM      1  O   UNL     1       1.543   5.633  20.684  0.00  0.00    +0.000 OA
ATOM      2  C   UNL     1       2.177   6.174  19.777  0.00  0.00    +0.000 C 
ATOM      3  N   UNL     1       2.031   7.554  19.463  0.00  0.00    +0.000 N 
ATOM      4  C   UNL     1       2.519   8.119  18.196  0.00  0.00    +0.000 C 
ATOM      5  C   UNL     1       1.511   9.025  17.527  0.00  0.00    +0.000 C 
ATOM      6  C   UNL     1       1.184  10.189  18.432  0.00  0.00    +0.000 C 
ATOM      7  C   UNL     1       0.965   9.758  19.857  0.00  0.00    +0.000 A 
ATOM      8  C   UNL     1       0.359  10.695  20.717  0.00  0.00    +0.000 A 
ATOM      9  C   UNL     1       0.135  10.392  22.053  0.00  0.00    +0.000 A 
ATOM     10  C   UNL     1       0.518   9.153  22.542  0.00  0.00    +0.000 A 
ATOM     11  C   UNL     1       1.129   8.216  21.701  0.00  0.00    +0.000 A 
ATOM     12  C   UNL     1       1.366   8.492  20.342  0.00  0.00    +0.000 A 
ENDROOT
BRANCH   2  13
ATOM     13  C   UNL     1       3.082   5.369  18.941  0.00  0.00    +0.000 A 
ATOM     14  C   UNL     1       2.831   4.583  17.829  0.00  0.00    +0.000 A 
ATOM     15  C   UNL     1       3.976   3.847  17.406  0.00  0.00    +0.000 A 
ATOM     16  C   UNL     1       5.101   4.200  18.112  0.00  0.00    +0.000 A 
ATOM     17  S   UNL     1       4.765   5.376  19.305  0.00  0.00    +0.000 S 
ENDBRANCH   2  13
TORSDOF 1
ENDMDL
MODEL 9
REMARK VINA RESULT:      -6.3      3.841      4.623
REMARK  Name = 
REMARK  1 active torsions:
REMARK  status: ('A' for Active; 'I' for Inactive)
REMARK    1  A    between atoms: C_2  and  C_3
REMARK                            x       y       z     vdW  Elec       q    Type
REMARK                         _______ _______ _______ _____ _____    ______ ____
ROOT
ATOM      1  O   UNL     1       2.619   8.614  17.409  0.00  0.00    +0.000 OA
ATOM      2  C   UNL     1       2.367   7.907  18.386  0.00  0.00    +0.000 C 
ATOM      3  N   UNL     1       2.737   6.535  18.449  0.00  0.00    +0.000 N 
ATOM      4  C   UNL     1       2.159   5.618  19.443  0.00  0.00    +0.000 C 
ATOM      5  C   UNL     1       1.721   4.301  18.846  0.00  0.00    +0.000 C 
ATOM      6  C   UNL     1       2.907   3.595  18.232  0.00  0.00    +0.000 C 
ATOM      7  C   UNL     1       3.770   4.526  17.425  0.00  0.00    +0.000 A 
ATOM      8  C   UNL     1       4.713   3.932  16.565  0.00  0.00    +0.000 A 
ATOM      9  C   UNL     1       5.565   4.713  15.796  0.00  0.00    +0.000 A 
ATOM     10  C   UNL     1       5.485   6.094  15.883  0.00  0.00    +0.000 A 
ATOM     11  C   UNL     1       4.557   6.698  16.740  0.00  0.00    +0.000 A 
ATOM     12  C   UNL     1       3.678   5.933  17.529  0.00  0.00    +0.000 A 
ENDROOT
BRANCH   2  13
ATOM     13  C   UNL     1       1.607   8.469  19.515  0.00  0.00    +0.000 A 
ATOM     14  C   UNL     1       1.539   8.083  20.843  0.00  0.00    +0.000 A 
ATOM     15  C   UNL     1       0.558   8.811  21.578  0.00  0.00    +0.000 A 
ATOM     16  C   UNL     1       0.009   9.826  20.831  0.00  0.00    +0.000 A 
ATOM     17  S   UNL     1       0.641   9.868  19.244  0.00  0.00    +0.000 S 
ENDBRANCH   2  13
TORSDOF 1
ENDMDL
