MODEL 1
REMARK VINA RESULT:      -7.1      0.000      0.000
REMARK  Name = 
REMARK  3 active torsions:
REMARK  status: ('A' for Active; 'I' for Inactive)
REMARK    1  A    between atoms: C_2  and  C_3
REMARK    2  A    between atoms: C_3  and  N_4
REMARK    3  A    between atoms: N_11  and  C_12
REMARK                            x       y       z     vdW  Elec       q    Type
REMARK                         _______ _______ _______ _____ _____    ______ ____
ROOT
ATOM      1  O   UNL     1       6.283   4.971  19.884  0.00  0.00    +0.000 OA
ATOM      2  C   UNL     1       5.737   5.447  18.889  0.00  0.00    +0.000 C 
ATOM      3  N   UNL     1       4.418   5.230  18.533  0.00  0.00    +0.000 N 
ATOM      4  H   UNL     1       4.160   5.373  17.556  0.00  0.00    +0.000 HD
ENDROOT
BRANCH   3   5
ATOM      5  C   UNL     1       3.432   4.604  19.342  0.00  0.00    +0.000 A 
ATOM      6  C   UNL     1       2.821   5.231  20.436  0.00  0.00    +0.000 A 
ATOM      7  C   UNL     1       1.878   4.546  21.212  0.00  0.00    +0.000 A 
ATOM      8  C   UNL     1       1.541   3.235  20.893  0.00  0.00    +0.000 A 
ATOM      9  F   UNL     1       0.651   2.583  21.654  0.00  0.00    +0.000 F 
ATOM     10  C   UNL     1       2.112   2.613  19.793  0.00  0.00    +0.000 A 
ATOM     11  F   UNL     1       1.770   1.354  19.480  0.00  0.00    +0.000 F 
ATOM     12  C   UNL     1       3.043   3.298  19.018  0.00  0.00    +0.000 A 
ATOM     13  F   UNL     1       3.592   2.692  17.953  0.00  0.00    +0.000 F 
ENDBRANCH   3   5
BRANCH   2  14
ATOM     14  C   UNL     1       6.540   6.259  17.873  0.00  0.00    +0.000 C 
BRANCH  14  15
ATOM     15  N   UNL     1       6.379   5.699  16.547  0.00  0.00    +0.000 N 
ATOM     16  C   UNL     1       5.433   6.162  15.666  0.00  0.00    +0.000 C 
ATOM     17  O   UNL     1       4.626   7.053  15.902  0.00  0.00    +0.000 OA
ATOM     18  C   UNL     1       5.478   5.428  14.349  0.00  0.00    +0.000 C 
ATOM     19  S   UNL     1       6.717   4.129  14.545  0.00  0.00    +0.000 S 
ATOM     20  C   UNL     1       7.173   4.671  16.138  0.00  0.00    +0.000 C 
ATOM     21  O   UNL     1       8.090   4.180  16.779  0.00  0.00    +0.000 OA
ENDBRANCH  14  15
ENDBRANCH   2  14
TORSDOF 3
ENDMDL
MODEL 2
REMARK VINA RESULT:      -7.0      2.040      3.056
REMARK  Name = 
REMARK  3 active torsions:
REMARK  status: ('A' for Active; 'I' for Inactive)
REMARK    1  A    between atoms: C_2  and  C_3
REMARK    2  A    between atoms: C_3  and  N_4
REMARK    3  A    between atoms: N_11  and  C_12
REMARK                            x       y       z     vdW  Elec       q    Type
REMARK                         _______ _______ _______ _____ _____    ______ ____
ROOT
ATOM      1  O   UNL     1       3.742   3.450  16.633  0.00  0.00    +0.000 OA
ATOM      2  C   UNL     1       4.748   3.853  17.217  0.00  0.00    +0.000 C 
ATOM      3  N   UNL     1       4.832   4.077  18.580  0.00  0.00    +0.000 N 
ATOM      4  H   UNL     1       5.560   4.710  18.913  0.00  0.00    +0.000 HD
ENDROOT
BRANCH   3   5
ATOM      5  C   UNL     1       3.862   3.695  19.545  0.00  0.00    +0.000 A 
ATOM      6  C   UNL     1       3.985   2.558  20.354  0.00  0.00    +0.000 A 
ATOM      7  C   UNL     1       2.976   2.221  21.265  0.00  0.00    +0.000 A 
ATOM      8  C   UNL     1       1.846   3.023  21.373  0.00  0.00    +0.000 A 
ATOM      9  F   UNL     1       0.878   2.680  22.234  0.00  0.00    +0.000 F 
ATOM     10  C   UNL     1       1.726   4.171  20.603  0.00  0.00    +0.000 A 
ATOM     11  F   UNL     1       0.640   4.950  20.724  0.00  0.00    +0.000 F 
ATOM     12  C   UNL     1       2.732   4.508  19.704  0.00  0.00    +0.000 A 
ATOM     13  F   UNL     1       2.612   5.621  18.963  0.00  0.00    +0.000 F 
ENDBRANCH   3   5
BRANCH   2  14
ATOM     14  C   UNL     1       5.996   4.254  16.433  0.00  0.00    +0.000 C 
BRANCH  14  15
ATOM     15  N   UNL     1       6.581   5.451  17.002  0.00  0.00    +0.000 N 
ATOM     16  C   UNL     1       7.540   5.403  17.982  0.00  0.00    +0.000 C 
ATOM     17  O   UNL     1       7.978   4.378  18.491  0.00  0.00    +0.000 OA
ATOM     18  C   UNL     1       7.999   6.779  18.394  0.00  0.00    +0.000 C 
ATOM     19  S   UNL     1       6.966   7.943  17.478  0.00  0.00    +0.000 S 
ATOM     20  C   UNL     1       6.175   6.679  16.575  0.00  0.00    +0.000 C 
ATOM     21  O   UNL     1       5.371   6.893  15.680  0.00  0.00    +0.000 OA
ENDBRANCH  14  15
ENDBRANCH   2  14
TORSDOF 3
ENDMDL
MODEL 3
REMARK VINA RESULT:      -7.0      3.954      6.913
REMARK  Name = 
REMARK  3 active torsions:
REMARK  status: ('A' for Active; 'I' for Inactive)
REMARK    1  A    between atoms: C_2  and  C_3
REMARK    2  A    between atoms: C_3  and  N_4
REMARK    3  A    between atoms: N_11  and  C_12
REMARK                            x       y       z     vdW  Elec       q    Type
REMARK                         _______ _______ _______ _____ _____    ______ ____
ROOT
ATOM      1  O   UNL     1       4.325   5.517  16.961  0.00  0.00    +0.000 OA
ATOM      2  C   UNL     1       4.916   4.516  17.364  0.00  0.00    +0.000 C 
ATOM      3  N   UNL     1       5.652   3.659  16.566  0.00  0.00    +0.000 N 
ATOM      4  H   UNL     1       5.812   2.710  16.906  0.00  0.00    +0.000 HD
ENDROOT
BRANCH   3   5
ATOM      5  C   UNL     1       6.016   3.893  15.212  0.00  0.00    +0.000 A 
ATOM      6  C   UNL     1       5.345   3.322  14.123  0.00  0.00    +0.000 A 
ATOM      7  C   UNL     1       5.775   3.569  12.814  0.00  0.00    +0.000 A 
ATOM      8  C   UNL     1       6.873   4.392  12.590  0.00  0.00    +0.000 A 
ATOM      9  F   UNL     1       7.287   4.607  11.334  0.00  0.00    +0.000 F 
ATOM     10  C   UNL     1       7.526   4.993  13.656  0.00  0.00    +0.000 A 
ATOM     11  F   UNL     1       8.574   5.800  13.433  0.00  0.00    +0.000 F 
ATOM     12  C   UNL     1       7.093   4.752  14.956  0.00  0.00    +0.000 A 
ATOM     13  F   UNL     1       7.727   5.337  15.985  0.00  0.00    +0.000 F 
ENDBRANCH   3   5
BRANCH   2  14
ATOM     14  C   UNL     1       4.786   4.067  18.819  0.00  0.00    +0.000 C 
BRANCH  14  15
ATOM     15  N   UNL     1       3.443   3.589  19.076  0.00  0.00    +0.000 N 
ATOM     16  C   UNL     1       3.017   2.348  18.673  0.00  0.00    +0.000 C 
ATOM     17  O   UNL     1       3.692   1.540  18.046  0.00  0.00    +0.000 OA
ATOM     18  C   UNL     1       1.588   2.082  19.073  0.00  0.00    +0.000 C 
ATOM     19  S   UNL     1       0.990   3.608  19.830  0.00  0.00    +0.000 S 
ATOM     20  C   UNL     1       2.549   4.382  19.729  0.00  0.00    +0.000 C 
ATOM     21  O   UNL     1       2.783   5.487  20.195  0.00  0.00    +0.000 OA
ENDBRANCH  14  15
ENDBRANCH   2  14
TORSDOF 3
ENDMDL
MODEL 4
REMARK VINA RESULT:      -7.0      2.045      2.551
REMARK  Name = 
REMARK  3 active torsions:
REMARK  status: ('A' for Active; 'I' for Inactive)
REMARK    1  A    between atoms: C_2  and  C_3
REMARK    2  A    between atoms: C_3  and  N_4
REMARK    3  A    between atoms: N_11  and  C_12
REMARK                            x       y       z     vdW  Elec       q    Type
REMARK                         _______ _______ _______ _____ _____    ______ ____
ROOT
ATOM      1  O   UNL     1       3.672   3.364  16.655  0.00  0.00    +0.000 OA
ATOM      2  C   UNL     1       4.671   3.793  17.233  0.00  0.00    +0.000 C 
ATOM      3  N   UNL     1       4.751   4.039  18.592  0.00  0.00    +0.000 N 
ATOM      4  H   UNL     1       5.467   4.690  18.916  0.00  0.00    +0.000 HD
ENDROOT
BRANCH   3   5
ATOM      5  C   UNL     1       3.788   3.655  19.563  0.00  0.00    +0.000 A 
ATOM      6  C   UNL     1       3.946   2.551  20.412  0.00  0.00    +0.000 A 
ATOM      7  C   UNL     1       2.943   2.208  21.327  0.00  0.00    +0.000 A 
ATOM      8  C   UNL     1       1.783   2.971  21.399  0.00  0.00    +0.000 A 
ATOM      9  F   UNL     1       0.822   2.622  22.265  0.00  0.00    +0.000 F 
ATOM     10  C   UNL     1       1.626   4.086  20.589  0.00  0.00    +0.000 A 
ATOM     11  F   UNL     1       0.511   4.828  20.675  0.00  0.00    +0.000 F 
ATOM     12  C   UNL     1       2.627   4.430  19.686  0.00  0.00    +0.000 A 
ATOM     13  F   UNL     1       2.472   5.511  18.906  0.00  0.00    +0.000 F 
ENDBRANCH   3   5
BRANCH   2  14
ATOM     14  C   UNL     1       5.911   4.205  16.442  0.00  0.00    +0.000 C 
BRANCH  14  15
ATOM     15  N   UNL     1       6.462   5.432  16.980  0.00  0.00    +0.000 N 
ATOM     16  C   UNL     1       6.027   6.669  16.576  0.00  0.00    +0.000 C 
ATOM     17  O   UNL     1       5.171   6.872  15.723  0.00  0.00    +0.000 OA
ATOM     18  C   UNL     1       6.744   7.784  17.295  0.00  0.00    +0.000 C 
ATOM     19  S   UNL     1       7.996   6.989  18.325  0.00  0.00    +0.000 S 
ATOM     20  C   UNL     1       7.454   5.384  17.912  0.00  0.00    +0.000 C 
ATOM     21  O   UNL     1       7.915   4.369  18.411  0.00  0.00    +0.000 OA
ENDBRANCH  14  15
ENDBRANCH   2  14
TORSDOF 3
ENDMDL
MODEL 5
REMARK VINA RESULT:      -6.9      1.229      1.648
REMARK  Name = 
REMARK  3 active torsions:
REMARK  status: ('A' for Active; 'I' for Inactive)
REMARK    1  A    between atoms: C_2  and  C_3
REMARK    2  A    between atoms: C_3  and  N_4
REMARK    3  A    between atoms: N_11  and  C_12
REMARK                            x       y       z     vdW  Elec       q    Type
REMARK                         _______ _______ _______ _____ _____    ______ ____
ROOT
ATOM      1  O   UNL     1       6.589   5.164  20.040  0.00  0.00    +0.000 OA
ATOM      2  C   UNL     1       6.022   5.457  18.988  0.00  0.00    +0.000 C 
ATOM      3  N   UNL     1       4.751   5.040  18.635  0.00  0.00    +0.000 N 
ATOM      4  H   UNL     1       4.508   5.043  17.643  0.00  0.00    +0.000 HD
ENDROOT
BRANCH   3   5
ATOM      5  C   UNL     1       3.823   4.390  19.491  0.00  0.00    +0.000 A 
ATOM      6  C   UNL     1       4.051   3.130  20.061  0.00  0.00    +0.000 A 
ATOM      7  C   UNL     1       3.079   2.531  20.872  0.00  0.00    +0.000 A 
ATOM      8  C   UNL     1       1.881   3.191  21.119  0.00  0.00    +0.000 A 
ATOM      9  F   UNL     1       0.951   2.599  21.881  0.00  0.00    +0.000 F 
ATOM     10  C   UNL     1       1.655   4.453  20.590  0.00  0.00    +0.000 A 
ATOM     11  F   UNL     1       0.503   5.092  20.846  0.00  0.00    +0.000 F 
ATOM     12  C   UNL     1       2.624   5.050  19.790  0.00  0.00    +0.000 A 
ATOM     13  F   UNL     1       2.401   6.273  19.282  0.00  0.00    +0.000 F 
ENDBRANCH   3   5
BRANCH   2  14
ATOM     14  C   UNL     1       6.752   6.246  17.903  0.00  0.00    +0.000 C 
BRANCH  14  15
ATOM     15  N   UNL     1       6.460   5.689  16.598  0.00  0.00    +0.000 N 
ATOM     16  C   UNL     1       5.447   6.169  15.806  0.00  0.00    +0.000 C 
ATOM     17  O   UNL     1       4.682   7.075  16.112  0.00  0.00    +0.000 OA
ATOM     18  C   UNL     1       5.359   5.434  14.492  0.00  0.00    +0.000 C 
ATOM     19  S   UNL     1       6.585   4.112  14.578  0.00  0.00    +0.000 S 
ATOM     20  C   UNL     1       7.195   4.646  16.121  0.00  0.00    +0.000 C 
ATOM     21  O   UNL     1       8.157   4.139  16.677  0.00  0.00    +0.000 OA
ENDBRANCH  14  15
ENDBRANCH   2  14
TORSDOF 3
ENDMDL
MODEL 6
REMARK VINA RESULT:      -6.9      3.899      6.814
REMARK  Name = 
REMARK  3 active torsions:
REMARK  status: ('A' for Active; 'I' for Inactive)
REMARK    1  A    between atoms: C_2  and  C_3
REMARK    2  A    between atoms: C_3  and  N_4
REMARK    3  A    between atoms: N_11  and  C_12
REMARK                            x       y       z     vdW  Elec       q    Type
REMARK                         _______ _______ _______ _____ _____    ______ ____
ROOT
ATOM      1  O   UNL     1       4.578   5.674  16.862  0.00  0.00    +0.000 OA
ATOM      2  C   UNL     1       5.041   4.591  17.218  0.00  0.00    +0.000 C 
ATOM      3  N   UNL     1       5.665   3.685  16.379  0.00  0.00    +0.000 N 
ATOM      4  H   UNL     1       5.705   2.710  16.679  0.00  0.00    +0.000 HD
ENDROOT
BRANCH   3   5
ATOM      5  C   UNL     1       6.054   3.930  15.035  0.00  0.00    +0.000 A 
ATOM      6  C   UNL     1       5.404   3.367  13.929  0.00  0.00    +0.000 A 
ATOM      7  C   UNL     1       5.859   3.624  12.630  0.00  0.00    +0.000 A 
ATOM      8  C   UNL     1       6.960   4.450  12.434  0.00  0.00    +0.000 A 
ATOM      9  F   UNL     1       7.397   4.675  11.188  0.00  0.00    +0.000 F 
ATOM     10  C   UNL     1       7.592   5.043  13.517  0.00  0.00    +0.000 A 
ATOM     11  F   UNL     1       8.644   5.852  13.320  0.00  0.00    +0.000 F 
ATOM     12  C   UNL     1       7.135   4.791  14.806  0.00  0.00    +0.000 A 
ATOM     13  F   UNL     1       7.749   5.368  15.851  0.00  0.00    +0.000 F 
ENDBRANCH   3   5
BRANCH   2  14
ATOM     14  C   UNL     1       4.857   4.100  18.653  0.00  0.00    +0.000 C 
BRANCH  14  15
ATOM     15  N   UNL     1       3.471   3.746  18.886  0.00  0.00    +0.000 N 
ATOM     16  C   UNL     1       2.589   4.603  19.496  0.00  0.00    +0.000 C 
ATOM     17  O   UNL     1       2.868   5.716  19.924  0.00  0.00    +0.000 OA
ATOM     18  C   UNL     1       1.208   4.008  19.606  0.00  0.00    +0.000 C 
ATOM     19  S   UNL     1       1.340   2.321  18.978  0.00  0.00    +0.000 S 
ATOM     20  C   UNL     1       3.006   2.525  18.506  0.00  0.00    +0.000 C 
ATOM     21  O   UNL     1       3.646   1.671  17.910  0.00  0.00    +0.000 OA
ENDBRANCH  14  15
ENDBRANCH   2  14
TORSDOF 3
ENDMDL
MODEL 7
REMARK VINA RESULT:      -6.9      3.968      4.783
REMARK  Name = 
REMARK  3 active torsions:
REMARK  status: ('A' for Active; 'I' for Inactive)
REMARK    1  A    between atoms: C_2  and  C_3
REMARK    2  A    between atoms: C_3  and  N_4
REMARK    3  A    between atoms: N_11  and  C_12
REMARK                            x       y       z     vdW  Elec       q    Type
REMARK                         _______ _______ _______ _____ _____    ______ ____
ROOT
ATOM      1  O   UNL     1       1.497   4.567  19.561  0.00  0.00    +0.000 OA
ATOM      2  C   UNL     1       2.665   4.931  19.692  0.00  0.00    +0.000 C 
ATOM      3  N   UNL     1       3.081   6.249  19.732  0.00  0.00    +0.000 N 
ATOM      4  H   UNL     1       4.056   6.448  19.505  0.00  0.00    +0.000 HD
ENDROOT
BRANCH   3   5
ATOM      5  C   UNL     1       2.232   7.384  19.832  0.00  0.00    +0.000 A 
ATOM      6  C   UNL     1       1.527   7.720  20.995  0.00  0.00    +0.000 A 
ATOM      7  C   UNL     1       0.682   8.836  21.017  0.00  0.00    +0.000 A 
ATOM      8  C   UNL     1       0.545   9.623  19.878  0.00  0.00    +0.000 A 
ATOM      9  F   UNL     1      -0.281  10.678  19.906  0.00  0.00    +0.000 F 
ATOM     10  C   UNL     1       1.264   9.323  18.731  0.00  0.00    +0.000 A 
ATOM     11  F   UNL     1       1.140  10.096  17.640  0.00  0.00    +0.000 F 
ATOM     12  C   UNL     1       2.108   8.218  18.713  0.00  0.00    +0.000 A 
ATOM     13  F   UNL     1       2.803   7.934  17.600  0.00  0.00    +0.000 F 
ENDBRANCH   3   5
BRANCH   2  14
ATOM     14  C   UNL     1       3.801   3.909  19.714  0.00  0.00    +0.000 C 
BRANCH  14  15
ATOM     15  N   UNL     1       4.659   4.092  18.561  0.00  0.00    +0.000 N 
ATOM     16  C   UNL     1       4.303   3.660  17.307  0.00  0.00    +0.000 C 
ATOM     17  O   UNL     1       3.267   3.067  17.033  0.00  0.00    +0.000 OA
ATOM     18  C   UNL     1       5.357   3.983  16.278  0.00  0.00    +0.000 C 
ATOM     19  S   UNL     1       6.735   4.714  17.187  0.00  0.00    +0.000 S 
ATOM     20  C   UNL     1       5.869   4.700  18.700  0.00  0.00    +0.000 C 
ATOM     21  O   UNL     1       6.310   5.183  19.732  0.00  0.00    +0.000 OA
ENDBRANCH  14  15
ENDBRANCH   2  14
TORSDOF 3
ENDMDL
MODEL 8
REMARK VINA RESULT:      -6.9      3.937      4.994
REMARK  Name = 
REMARK  3 active torsions:
REMARK  status: ('A' for Active; 'I' for Inactive)
REMARK    1  A    between atoms: C_2  and  C_3
REMARK    2  A    between atoms: C_3  and  N_4
REMARK    3  A    between atoms: N_11  and  C_12
REMARK                            x       y       z     vdW  Elec       q    Type
REMARK                         _______ _______ _______ _____ _____    ______ ____
ROOT
ATOM      1  O   UNL     1       4.969   7.180  17.635  0.00  0.00    +0.000 OA
ATOM      2  C   UNL     1       4.139   6.273  17.575  0.00  0.00    +0.000 C 
ATOM      3  N   UNL     1       2.863   6.335  18.104  0.00  0.00    +0.000 N 
ATOM      4  H   UNL     1       2.387   5.454  18.303  0.00  0.00    +0.000 HD
ENDROOT
BRANCH   3   5
ATOM      5  C   UNL     1       2.232   7.500  18.615  0.00  0.00    +0.000 A 
ATOM      6  C   UNL     1       1.960   8.634  17.838  0.00  0.00    +0.000 A 
ATOM      7  C   UNL     1       1.364   9.763  18.413  0.00  0.00    +0.000 A 
ATOM      8  C   UNL     1       1.032   9.759  19.763  0.00  0.00    +0.000 A 
ATOM      9  F   UNL     1       0.479  10.852  20.306  0.00  0.00    +0.000 F 
ATOM     10  C   UNL     1       1.263   8.631  20.537  0.00  0.00    +0.000 A 
ATOM     11  F   UNL     1       0.925   8.627  21.836  0.00  0.00    +0.000 F 
ATOM     12  C   UNL     1       1.849   7.508  19.963  0.00  0.00    +0.000 A 
ATOM     13  F   UNL     1       2.069   6.418  20.716  0.00  0.00    +0.000 F 
ENDBRANCH   3   5
BRANCH   2  14
ATOM     14  C   UNL     1       4.512   4.915  16.980  0.00  0.00    +0.000 C 
BRANCH  14  15
ATOM     15  N   UNL     1       4.144   3.852  17.893  0.00  0.00    +0.000 N 
ATOM     16  C   UNL     1       3.000   3.110  17.731  0.00  0.00    +0.000 C 
ATOM     17  O   UNL     1       2.173   3.274  16.843  0.00  0.00    +0.000 OA
ATOM     18  C   UNL     1       2.852   2.057  18.800  0.00  0.00    +0.000 C 
ATOM     19  S   UNL     1       4.226   2.312  19.944  0.00  0.00    +0.000 S 
ATOM     20  C   UNL     1       4.937   3.565  18.962  0.00  0.00    +0.000 C 
ATOM     21  O   UNL     1       6.007   4.096  19.218  0.00  0.00    +0.000 OA
ENDBRANCH  14  15
ENDBRANCH   2  14
TORSDOF 3
ENDMDL
MODEL 9
REMARK VINA RESULT:      -6.9      3.911      4.850
REMARK  Name = 
REMARK  3 active torsions:
REMARK  status: ('A' for Active; 'I' for Inactive)
REMARK    1  A    between atoms: C_2  and  C_3
REMARK    2  A    between atoms: C_3  and  N_4
REMARK    3  A    between atoms: N_11  and  C_12
REMARK                            x       y       z     vdW  Elec       q    Type
REMARK                         _______ _______ _______ _____ _____    ______ ____
ROOT
ATOM      1  O   UNL     1       1.538   4.538  19.416  0.00  0.00    +0.000 OA
ATOM      2  C   UNL     1       2.699   4.892  19.623  0.00  0.00    +0.000 C 
ATOM      3  N   UNL     1       3.115   6.207  19.729  0.00  0.00    +0.000 N 
ATOM      4  H   UNL     1       4.102   6.408  19.562  0.00  0.00    +0.000 HD
ENDROOT
BRANCH   3   5
ATOM      5  C   UNL     1       2.266   7.342  19.819  0.00  0.00    +0.000 A 
ATOM      6  C   UNL     1       1.544   7.676  20.972  0.00  0.00    +0.000 A 
ATOM      7  C   UNL     1       0.699   8.792  20.984  0.00  0.00    +0.000 A 
ATOM      8  C   UNL     1       0.579   9.581  19.845  0.00  0.00    +0.000 A 
ATOM      9  F   UNL     1      -0.247  10.636  19.862  0.00  0.00    +0.000 F 
ATOM     10  C   UNL     1       1.313   9.283  18.707  0.00  0.00    +0.000 A 
ATOM     11  F   UNL     1       1.205  10.057  17.616  0.00  0.00    +0.000 F 
ATOM     12  C   UNL     1       2.157   8.177  18.699  0.00  0.00    +0.000 A 
ATOM     13  F   UNL     1       2.867   7.894  17.595  0.00  0.00    +0.000 F 
ENDBRANCH   3   5
BRANCH   2  14
ATOM     14  C   UNL     1       3.829   3.865  19.675  0.00  0.00    +0.000 C 
BRANCH  14  15
ATOM     15  N   UNL     1       4.727   4.054  18.553  0.00  0.00    +0.000 N 
ATOM     16  C   UNL     1       5.937   4.688  18.682  0.00  0.00    +0.000 C 
ATOM     17  O   UNL     1       6.371   5.176  19.719  0.00  0.00    +0.000 OA
ATOM     18  C   UNL     1       6.690   4.743  17.377  0.00  0.00    +0.000 C 
ATOM     19  S   UNL     1       5.586   4.035  16.136  0.00  0.00    +0.000 S 
ATOM     20  C   UNL     1       4.378   3.605  17.316  0.00  0.00    +0.000 C 
ATOM     21  O   UNL     1       3.364   2.980  17.044  0.00  0.00    +0.000 OA
ENDBRANCH  14  15
ENDBRANCH   2  14
TORSDOF 3
ENDMDL
