MODEL 1
REMARK VINA RESULT:      -8.0      0.000      0.000
REMARK  Name = 
REMARK  3 active torsions:
REMARK  status: ('A' for Active; 'I' for Inactive)
REMARK    1  A    between atoms: C_5  and  C_6
REMARK    2  A    between atoms: N_19  and  S_20
REMARK    3  A    between atoms: S_20  and  C_23
REMARK                            x       y       z     vdW  Elec       q    Type
REMARK                         _______ _______ _______ _____ _____    ______ ____
ROOT
ATOM      1  O   UNL     1      -1.069  12.319  23.084  0.00  0.00    +0.000 OA
ATOM      2  C   UNL     1      -0.571  11.384  22.463  0.00  0.00    +0.000 A 
ATOM      3  C   UNL     1      -0.400  10.085  23.148  0.00  0.00    +0.000 A 
ATOM      4  C   UNL     1       0.211   9.076  22.523  0.00  0.00    +0.000 A 
ATOM      5  C   UNL     1       0.675   9.195  21.152  0.00  0.00    +0.000 A 
ATOM      6  C   UNL     1       0.475  10.360  20.482  0.00  0.00    +0.000 A 
ATOM      7  N   UNL     1      -0.124  11.449  21.140  0.00  0.00    +0.000 N 
ATOM      8  C   UNL     1      -0.179  12.782  20.536  0.00  0.00    +0.000 C 
ATOM      9  C   UNL     1       0.057  12.863  19.028  0.00  0.00    +0.000 C 
ATOM     10  C   UNL     1       1.237  11.975  18.674  0.00  0.00    +0.000 C 
ATOM     11  C   UNL     1       0.836  10.541  19.002  0.00  0.00    +0.000 C 
ATOM     12  C   UNL     1      -0.348  10.141  18.097  0.00  0.00    +0.000 C 
ATOM     13  N   UNL     1      -1.528  11.036  18.298  0.00  0.00    +0.000 NA
ATOM     14  C   UNL     1      -1.190  12.487  18.213  0.00  0.00    +0.000 C 
ENDROOT
BRANCH   5  15
ATOM     15  C   UNL     1       1.322   8.041  20.509  0.00  0.00    +0.000 A 
ATOM     16  C   UNL     1       2.068   8.160  19.350  0.00  0.00    +0.000 A 
ATOM     17  N   UNL     1       2.688   7.124  18.745  0.00  0.00    +0.000 NA
ATOM     18  C   UNL     1       2.553   5.932  19.347  0.00  0.00    +0.000 A 
ATOM     19  N   UNL     1       1.861   5.691  20.472  0.00  0.00    +0.000 NA
ATOM     20  C   UNL     1       1.266   6.764  21.035  0.00  0.00    +0.000 A 
ENDBRANCH   5  15
BRANCH  13  21
ATOM     21  S   UNL     1      -2.878  10.621  17.306  0.00  0.00    +0.000 S 
ATOM     22  O   UNL     1      -2.593  11.054  15.954  0.00  0.00    +0.000 OA
ATOM     23  O   UNL     1      -3.210   9.244  17.596  0.00  0.00    +0.000 OA
BRANCH  21  24
ATOM     24  C   UNL     1      -4.172  11.662  17.935  0.00  0.00    +0.000 A 
ATOM     25  C   UNL     1      -5.223  12.023  17.087  0.00  0.00    +0.000 A 
ATOM     26  C   UNL     1      -6.253  12.829  17.573  0.00  0.00    +0.000 A 
ATOM     27  C   UNL     1      -6.233  13.262  18.901  0.00  0.00    +0.000 A 
ATOM     28  C   UNL     1      -5.188  12.887  19.748  0.00  0.00    +0.000 A 
ATOM     29  C   UNL     1      -4.154  12.083  19.268  0.00  0.00    +0.000 A 
ENDBRANCH  21  24
ENDBRANCH  13  21
TORSDOF 3
ENDMDL
MODEL 2
REMARK VINA RESULT:      -7.8      0.281      1.286
REMARK  Name = 
REMARK  3 active torsions:
REMARK  status: ('A' for Active; 'I' for Inactive)
REMARK    1  A    between atoms: C_5  and  C_6
REMARK    2  A    between atoms: N_19  and  S_20
REMARK    3  A    between atoms: S_20  and  C_23
REMARK                            x       y       z     vdW  Elec       q    Type
REMARK                         _______ _______ _______ _____ _____    ______ ____
ROOT
ATOM      1  O   UNL     1      -0.998  11.894  23.206  0.00  0.00    +0.000 OA
ATOM      2  C   UNL     1      -0.474  11.036  22.501  0.00  0.00    +0.000 A 
ATOM      3  C   UNL     1      -0.232   9.695  23.076  0.00  0.00    +0.000 A 
ATOM      4  C   UNL     1       0.408   8.769  22.359  0.00  0.00    +0.000 A 
ATOM      5  C   UNL     1       0.836   9.017  20.994  0.00  0.00    +0.000 A 
ATOM      6  C   UNL     1       0.570  10.223  20.424  0.00  0.00    +0.000 A 
ATOM      7  N   UNL     1      -0.060  11.227  21.180  0.00  0.00    +0.000 N 
ATOM      8  C   UNL     1      -0.187  12.600  20.688  0.00  0.00    +0.000 C 
ATOM      9  C   UNL     1       0.011  12.812  19.187  0.00  0.00    +0.000 C 
ATOM     10  C   UNL     1       1.220  12.010  18.739  0.00  0.00    +0.000 C 
ATOM     11  C   UNL     1       0.889  10.538  18.957  0.00  0.00    +0.000 C 
ATOM     12  C   UNL     1      -0.295  10.159  18.046  0.00  0.00    +0.000 C 
ATOM     13  N   UNL     1      -1.509  10.980  18.341  0.00  0.00    +0.000 NA
ATOM     14  C   UNL     1      -1.237  12.447  18.367  0.00  0.00    +0.000 C 
ENDROOT
BRANCH   5  15
ATOM     15  C   UNL     1       1.519   7.950  20.247  0.00  0.00    +0.000 A 
ATOM     16  C   UNL     1       1.565   6.642  20.697  0.00  0.00    +0.000 A 
ATOM     17  N   UNL     1       2.168   5.637  20.027  0.00  0.00    +0.000 NA
ATOM     18  C   UNL     1       2.732   5.973  18.857  0.00  0.00    +0.000 A 
ATOM     19  N   UNL     1       2.750   7.201  18.314  0.00  0.00    +0.000 NA
ATOM     20  C   UNL     1       2.128   8.165  19.025  0.00  0.00    +0.000 A 
ENDBRANCH   5  15
BRANCH  13  21
ATOM     21  S   UNL     1      -2.861  10.585  17.344  0.00  0.00    +0.000 S 
ATOM     22  O   UNL     1      -2.578  11.040  15.999  0.00  0.00    +0.000 OA
ATOM     23  O   UNL     1      -3.197   9.204  17.612  0.00  0.00    +0.000 OA
BRANCH  21  24
ATOM     24  C   UNL     1      -4.152  11.619  17.992  0.00  0.00    +0.000 A 
ATOM     25  C   UNL     1      -4.073  12.051  19.319  0.00  0.00    +0.000 A 
ATOM     26  C   UNL     1      -5.074  12.874  19.835  0.00  0.00    +0.000 A 
ATOM     27  C   UNL     1      -6.140  13.270  19.023  0.00  0.00    +0.000 A 
ATOM     28  C   UNL     1      -6.206  12.849  17.694  0.00  0.00    +0.000 A 
ATOM     29  C   UNL     1      -5.210  12.023  17.172  0.00  0.00    +0.000 A 
ENDBRANCH  21  24
ENDBRANCH  13  21
TORSDOF 3
ENDMDL
MODEL 3
REMARK VINA RESULT:      -7.8      3.085      5.430
REMARK  Name = 
REMARK  3 active torsions:
REMARK  status: ('A' for Active; 'I' for Inactive)
REMARK    1  A    between atoms: C_5  and  C_6
REMARK    2  A    between atoms: N_19  and  S_20
REMARK    3  A    between atoms: S_20  and  C_23
REMARK                            x       y       z     vdW  Elec       q    Type
REMARK                         _______ _______ _______ _____ _____    ______ ____
ROOT
ATOM      1  O   UNL     1      -0.274   9.084  21.606  0.00  0.00    +0.000 OA
ATOM      2  C   UNL     1      -0.152  10.234  21.192  0.00  0.00    +0.000 A 
ATOM      3  C   UNL     1       0.634  10.467  19.961  0.00  0.00    +0.000 A 
ATOM      4  C   UNL     1       0.849  11.713  19.534  0.00  0.00    +0.000 A 
ATOM      5  C   UNL     1       0.286  12.864  20.216  0.00  0.00    +0.000 A 
ATOM      6  C   UNL     1      -0.491  12.670  21.315  0.00  0.00    +0.000 A 
ATOM      7  N   UNL     1      -0.689  11.368  21.808  0.00  0.00    +0.000 N 
ATOM      8  C   UNL     1      -1.341  11.119  23.095  0.00  0.00    +0.000 C 
ATOM      9  C   UNL     1      -2.157  12.270  23.684  0.00  0.00    +0.000 C 
ATOM     10  C   UNL     1      -1.363  13.555  23.531  0.00  0.00    +0.000 C 
ATOM     11  C   UNL     1      -1.212  13.816  22.036  0.00  0.00    +0.000 C 
ATOM     12  C   UNL     1      -2.612  14.047  21.432  0.00  0.00    +0.000 C 
ATOM     13  N   UNL     1      -3.506  12.867  21.633  0.00  0.00    +0.000 NA
ATOM     14  C   UNL     1      -3.551  12.394  23.048  0.00  0.00    +0.000 C 
ENDROOT
BRANCH   5  15
ATOM     15  C   UNL     1       0.540  14.212  19.684  0.00  0.00    +0.000 A 
ATOM     16  C   UNL     1       1.670  14.939  20.015  0.00  0.00    +0.000 A 
ATOM     17  N   UNL     1       1.940  16.170  19.532  0.00  0.00    +0.000 NA
ATOM     18  C   UNL     1       1.037  16.671  18.676  0.00  0.00    +0.000 A 
ATOM     19  N   UNL     1      -0.091  16.064  18.276  0.00  0.00    +0.000 NA
ATOM     20  C   UNL     1      -0.308  14.834  18.788  0.00  0.00    +0.000 A 
ENDBRANCH   5  15
BRANCH  13  21
ATOM     21  S   UNL     1      -5.084  13.083  20.969  0.00  0.00    +0.000 S 
ATOM     22  O   UNL     1      -5.990  12.187  21.657  0.00  0.00    +0.000 OA
ATOM     23  O   UNL     1      -5.334  14.507  20.921  0.00  0.00    +0.000 OA
BRANCH  21  24
ATOM     24  C   UNL     1      -4.905  12.482  19.307  0.00  0.00    +0.000 A 
ATOM     25  C   UNL     1      -5.933  12.711  18.389  0.00  0.00    +0.000 A 
ATOM     26  C   UNL     1      -5.798  12.255  17.077  0.00  0.00    +0.000 A 
ATOM     27  C   UNL     1      -4.637  11.584  16.687  0.00  0.00    +0.000 A 
ATOM     28  C   UNL     1      -3.606  11.371  17.604  0.00  0.00    +0.000 A 
ATOM     29  C   UNL     1      -3.735  11.821  18.919  0.00  0.00    +0.000 A 
ENDBRANCH  21  24
ENDBRANCH  13  21
TORSDOF 3
ENDMDL
MODEL 4
REMARK VINA RESULT:      -7.8      3.051      5.628
REMARK  Name = 
REMARK  3 active torsions:
REMARK  status: ('A' for Active; 'I' for Inactive)
REMARK    1  A    between atoms: C_5  and  C_6
REMARK    2  A    between atoms: N_19  and  S_20
REMARK    3  A    between atoms: S_20  and  C_23
REMARK                            x       y       z     vdW  Elec       q    Type
REMARK                         _______ _______ _______ _____ _____    ______ ____
ROOT
ATOM      1  O   UNL     1       0.197   9.371  20.919  0.00  0.00    +0.000 OA
ATOM      2  C   UNL     1       0.221  10.562  20.622  0.00  0.00    +0.000 A 
ATOM      3  C   UNL     1       0.914  10.972  19.382  0.00  0.00    +0.000 A 
ATOM      4  C   UNL     1       1.023  12.267  19.076  0.00  0.00    +0.000 A 
ATOM      5  C   UNL     1       0.431  13.302  19.904  0.00  0.00    +0.000 A 
ATOM      6  C   UNL     1      -0.264  12.945  21.017  0.00  0.00    +0.000 A 
ATOM      7  N   UNL     1      -0.348  11.589  21.382  0.00  0.00    +0.000 N 
ATOM      8  C   UNL     1      -0.904  11.167  22.669  0.00  0.00    +0.000 C 
ATOM      9  C   UNL     1      -1.754  12.193  23.418  0.00  0.00    +0.000 C 
ATOM     10  C   UNL     1      -1.054  13.539  23.358  0.00  0.00    +0.000 C 
ATOM     11  C   UNL     1      -1.010  13.959  21.893  0.00  0.00    +0.000 C 
ATOM     12  C   UNL     1      -2.456  14.153  21.393  0.00  0.00    +0.000 C 
ATOM     13  N   UNL     1      -3.260  12.900  21.518  0.00  0.00    +0.000 NA
ATOM     14  C   UNL     1      -3.188  12.285  22.875  0.00  0.00    +0.000 C 
ENDROOT
BRANCH   5  15
ATOM     15  C   UNL     1       0.567  14.711  19.504  0.00  0.00    +0.000 A 
ATOM     16  C   UNL     1      -0.337  15.333  18.661  0.00  0.00    +0.000 A 
ATOM     17  N   UNL     1      -0.249  16.628  18.288  0.00  0.00    +0.000 NA
ATOM     18  C   UNL     1       0.785  17.312  18.801  0.00  0.00    +0.000 A 
ATOM     19  N   UNL     1       1.721  16.823  19.629  0.00  0.00    +0.000 NA
ATOM     20  C   UNL     1       1.582  15.525  19.971  0.00  0.00    +0.000 A 
ENDBRANCH   5  15
BRANCH  13  21
ATOM     21  S   UNL     1      -4.886  13.072  20.965  0.00  0.00    +0.000 S 
ATOM     22  O   UNL     1      -5.719  12.158  21.721  0.00  0.00    +0.000 OA
ATOM     23  O   UNL     1      -5.174  14.489  20.928  0.00  0.00    +0.000 OA
BRANCH  21  24
ATOM     24  C   UNL     1      -4.810  12.464  19.298  0.00  0.00    +0.000 A 
ATOM     25  C   UNL     1      -5.890  12.697  18.442  0.00  0.00    +0.000 A 
ATOM     26  C   UNL     1      -5.836  12.236  17.126  0.00  0.00    +0.000 A 
ATOM     27  C   UNL     1      -4.704  11.556  16.671  0.00  0.00    +0.000 A 
ATOM     28  C   UNL     1      -3.622  11.339  17.526  0.00  0.00    +0.000 A 
ATOM     29  C   UNL     1      -3.670  11.794  18.844  0.00  0.00    +0.000 A 
ENDBRANCH  21  24
ENDBRANCH  13  21
TORSDOF 3
ENDMDL
MODEL 5
REMARK VINA RESULT:      -7.8      3.697      6.674
REMARK  Name = 
REMARK  3 active torsions:
REMARK  status: ('A' for Active; 'I' for Inactive)
REMARK    1  A    between atoms: C_5  and  C_6
REMARK    2  A    between atoms: N_19  and  S_20
REMARK    3  A    between atoms: S_20  and  C_23
REMARK                            x       y       z     vdW  Elec       q    Type
REMARK                         _______ _______ _______ _____ _____    ______ ____
ROOT
ATOM      1  O   UNL     1       1.339   8.812  20.709  0.00  0.00    +0.000 OA
ATOM      2  C   UNL     1       0.623   9.682  21.196  0.00  0.00    +0.000 A 
ATOM      3  C   UNL     1       0.189   9.541  22.603  0.00  0.00    +0.000 A 
ATOM      4  C   UNL     1      -0.655  10.429  23.133  0.00  0.00    +0.000 A 
ATOM      5  C   UNL     1      -1.128  11.578  22.381  0.00  0.00    +0.000 A 
ATOM      6  C   UNL     1      -0.695  11.761  21.106  0.00  0.00    +0.000 A 
ATOM      7  N   UNL     1       0.155  10.810  20.515  0.00  0.00    +0.000 N 
ATOM      8  C   UNL     1       0.487  10.849  19.089  0.00  0.00    +0.000 C 
ATOM      9  C   UNL     1       0.222  12.166  18.359  0.00  0.00    +0.000 C 
ATOM     10  C   UNL     1      -1.138  12.690  18.783  0.00  0.00    +0.000 C 
ATOM     11  C   UNL     1      -1.058  12.998  20.274  0.00  0.00    +0.000 C 
ATOM     12  C   UNL     1      -0.027  14.124  20.490  0.00  0.00    +0.000 C 
ATOM     13  N   UNL     1       1.330  13.737  19.998  0.00  0.00    +0.000 NA
ATOM     14  C   UNL     1       1.324  13.210  18.602  0.00  0.00    +0.000 C 
ENDROOT
BRANCH   5  15
ATOM     15  C   UNL     1      -2.040  12.534  23.027  0.00  0.00    +0.000 A 
ATOM     16  C   UNL     1      -3.415  12.381  23.002  0.00  0.00    +0.000 A 
ATOM     17  N   UNL     1      -4.278  13.231  23.599  0.00  0.00    +0.000 NA
ATOM     18  C   UNL     1      -3.720  14.264  24.250  0.00  0.00    +0.000 A 
ATOM     19  N   UNL     1      -2.406  14.517  24.348  0.00  0.00    +0.000 NA
ATOM     20  C   UNL     1      -1.591  13.632  23.736  0.00  0.00    +0.000 A 
ENDBRANCH   5  15
BRANCH  13  21
ATOM     21  S   UNL     1       2.516  14.970  20.224  0.00  0.00    +0.000 S 
ATOM     22  O   UNL     1       2.253  15.624  21.489  0.00  0.00    +0.000 OA
ATOM     23  O   UNL     1       3.805  14.375  19.944  0.00  0.00    +0.000 OA
BRANCH  21  24
ATOM     24  C   UNL     1       2.136  16.133  18.937  0.00  0.00    +0.000 A 
ATOM     25  C   UNL     1       3.010  16.256  17.853  0.00  0.00    +0.000 A 
ATOM     26  C   UNL     1       2.715  17.157  16.830  0.00  0.00    +0.000 A 
ATOM     27  C   UNL     1       1.547  17.920  16.888  0.00  0.00    +0.000 A 
ATOM     28  C   UNL     1       0.669  17.784  17.964  0.00  0.00    +0.000 A 
ATOM     29  C   UNL     1       0.959  16.887  18.994  0.00  0.00    +0.000 A 
ENDBRANCH  21  24
ENDBRANCH  13  21
TORSDOF 3
ENDMDL
MODEL 6
REMARK VINA RESULT:      -7.7      3.040      5.744
REMARK  Name = 
REMARK  3 active torsions:
REMARK  status: ('A' for Active; 'I' for Inactive)
REMARK    1  A    between atoms: C_5  and  C_6
REMARK    2  A    between atoms: N_19  and  S_20
REMARK    3  A    between atoms: S_20  and  C_23
REMARK                            x       y       z     vdW  Elec       q    Type
REMARK                         _______ _______ _______ _____ _____    ______ ____
ROOT
ATOM      1  O   UNL     1       0.274   9.479  20.571  0.00  0.00    +0.000 OA
ATOM      2  C   UNL     1       0.280  10.685  20.338  0.00  0.00    +0.000 A 
ATOM      3  C   UNL     1       0.935  11.169  19.104  0.00  0.00    +0.000 A 
ATOM      4  C   UNL     1       1.026  12.479  18.867  0.00  0.00    +0.000 A 
ATOM      5  C   UNL     1       0.448  13.461  19.767  0.00  0.00    +0.000 A 
ATOM      6  C   UNL     1      -0.212  13.038  20.877  0.00  0.00    +0.000 A 
ATOM      7  N   UNL     1      -0.276  11.664  21.168  0.00  0.00    +0.000 N 
ATOM      8  C   UNL     1      -0.793  11.167  22.445  0.00  0.00    +0.000 C 
ATOM      9  C   UNL     1      -1.630  12.143  23.272  0.00  0.00    +0.000 C 
ATOM     10  C   UNL     1      -0.943  13.496  23.266  0.00  0.00    +0.000 C 
ATOM     11  C   UNL     1      -0.943  13.996  21.826  0.00  0.00    +0.000 C 
ATOM     12  C   UNL     1      -2.403  14.203  21.377  0.00  0.00    +0.000 C 
ATOM     13  N   UNL     1      -3.194  12.937  21.454  0.00  0.00    +0.000 NA
ATOM     14  C   UNL     1      -3.080  12.250  22.774  0.00  0.00    +0.000 C 
ENDROOT
BRANCH   5  15
ATOM     15  C   UNL     1       0.562  14.891  19.441  0.00  0.00    +0.000 A 
ATOM     16  C   UNL     1       1.623  15.668  19.872  0.00  0.00    +0.000 A 
ATOM     17  N   UNL     1       1.765  16.978  19.576  0.00  0.00    +0.000 NA
ATOM     18  C   UNL     1       0.801  17.509  18.807  0.00  0.00    +0.000 A 
ATOM     19  N   UNL     1      -0.270  16.860  18.325  0.00  0.00    +0.000 NA
ATOM     20  C   UNL     1      -0.358  15.552  18.650  0.00  0.00    +0.000 A 
ENDBRANCH   5  15
BRANCH  13  21
ATOM     21  S   UNL     1      -4.835  13.124  20.956  0.00  0.00    +0.000 S 
ATOM     22  O   UNL     1      -5.651  12.221  21.742  0.00  0.00    +0.000 OA
ATOM     23  O   UNL     1      -5.110  14.544  20.924  0.00  0.00    +0.000 OA
BRANCH  21  24
ATOM     24  C   UNL     1      -4.821  12.511  19.289  0.00  0.00    +0.000 A 
ATOM     25  C   UNL     1      -3.675  11.867  18.814  0.00  0.00    +0.000 A 
ATOM     26  C   UNL     1      -3.657  11.369  17.511  0.00  0.00    +0.000 A 
ATOM     27  C   UNL     1      -4.783  11.506  16.695  0.00  0.00    +0.000 A 
ATOM     28  C   UNL     1      -5.930  12.137  17.180  0.00  0.00    +0.000 A 
ATOM     29  C   UNL     1      -5.955  12.640  18.481  0.00  0.00    +0.000 A 
ENDBRANCH  21  24
ENDBRANCH  13  21
TORSDOF 3
ENDMDL
MODEL 7
REMARK VINA RESULT:      -7.7      3.637      6.736
REMARK  Name = 
REMARK  3 active torsions:
REMARK  status: ('A' for Active; 'I' for Inactive)
REMARK    1  A    between atoms: C_5  and  C_6
REMARK    2  A    between atoms: N_19  and  S_20
REMARK    3  A    between atoms: S_20  and  C_23
REMARK                            x       y       z     vdW  Elec       q    Type
REMARK                         _______ _______ _______ _____ _____    ______ ____
ROOT
ATOM      1  O   UNL     1       1.360   8.771  21.412  0.00  0.00    +0.000 OA
ATOM      2  C   UNL     1       0.559   9.662  21.682  0.00  0.00    +0.000 A 
ATOM      3  C   UNL     1      -0.107   9.644  23.002  0.00  0.00    +0.000 A 
ATOM      4  C   UNL     1      -1.040  10.554  23.290  0.00  0.00    +0.000 A 
ATOM      5  C   UNL     1      -1.392  11.611  22.360  0.00  0.00    +0.000 A 
ATOM      6  C   UNL     1      -0.749  11.684  21.164  0.00  0.00    +0.000 A 
ATOM      7  N   UNL     1       0.202  10.705  20.823  0.00  0.00    +0.000 N 
ATOM      8  C   UNL     1       0.773  10.617  19.477  0.00  0.00    +0.000 C 
ATOM      9  C   UNL     1       0.621  11.850  18.586  0.00  0.00    +0.000 C 
ATOM     10  C   UNL     1      -0.799  12.373  18.719  0.00  0.00    +0.000 C 
ATOM     11  C   UNL     1      -0.979  12.824  20.164  0.00  0.00    +0.000 C 
ATOM     12  C   UNL     1      -0.014  13.995  20.438  0.00  0.00    +0.000 C 
ATOM     13  N   UNL     1       1.412  13.603  20.224  0.00  0.00    +0.000 NA
ATOM     14  C   UNL     1       1.651  12.944  18.907  0.00  0.00    +0.000 C 
ENDROOT
BRANCH   5  15
ATOM     15  C   UNL     1      -2.413  12.598  22.743  0.00  0.00    +0.000 A 
ATOM     16  C   UNL     1      -3.735  12.486  22.355  0.00  0.00    +0.000 A 
ATOM     17  N   UNL     1      -4.699  13.366  22.704  0.00  0.00    +0.000 NA
ATOM     18  C   UNL     1      -4.303  14.384  23.483  0.00  0.00    +0.000 A 
ATOM     19  N   UNL     1      -3.054  14.598  23.926  0.00  0.00    +0.000 NA
ATOM     20  C   UNL     1      -2.134  13.686  23.550  0.00  0.00    +0.000 A 
ENDBRANCH   5  15
BRANCH  13  21
ATOM     21  S   UNL     1       2.527  14.885  20.524  0.00  0.00    +0.000 S 
ATOM     22  O   UNL     1       2.100  15.585  21.718  0.00  0.00    +0.000 OA
ATOM     23  O   UNL     1       3.857  14.325  20.421  0.00  0.00    +0.000 OA
BRANCH  21  24
ATOM     24  C   UNL     1       2.263  15.976  19.148  0.00  0.00    +0.000 A 
ATOM     25  C   UNL     1       1.140  16.809  19.149  0.00  0.00    +0.000 A 
ATOM     26  C   UNL     1       0.929  17.680  18.079  0.00  0.00    +0.000 A 
ATOM     27  C   UNL     1       1.842  17.723  17.023  0.00  0.00    +0.000 A 
ATOM     28  C   UNL     1       2.970  16.900  17.034  0.00  0.00    +0.000 A 
ATOM     29  C   UNL     1       3.186  16.024  18.098  0.00  0.00    +0.000 A 
ENDBRANCH  21  24
ENDBRANCH  13  21
TORSDOF 3
ENDMDL
MODEL 8
REMARK VINA RESULT:      -7.7      3.176      5.913
REMARK  Name = 
REMARK  3 active torsions:
REMARK  status: ('A' for Active; 'I' for Inactive)
REMARK    1  A    between atoms: C_5  and  C_6
REMARK    2  A    between atoms: N_19  and  S_20
REMARK    3  A    between atoms: S_20  and  C_23
REMARK                            x       y       z     vdW  Elec       q    Type
REMARK                         _______ _______ _______ _____ _____    ______ ____
ROOT
ATOM      1  O   UNL     1       0.784   9.942  20.273  0.00  0.00    +0.000 OA
ATOM      2  C   UNL     1       0.679  11.151  20.087  0.00  0.00    +0.000 A 
ATOM      3  C   UNL     1       1.285  11.740  18.874  0.00  0.00    +0.000 A 
ATOM      4  C   UNL     1       1.254  13.061  18.687  0.00  0.00    +0.000 A 
ATOM      5  C   UNL     1       0.590  13.951  19.623  0.00  0.00    +0.000 A 
ATOM      6  C   UNL     1      -0.027  13.426  20.715  0.00  0.00    +0.000 A 
ATOM      7  N   UNL     1       0.037  12.042  20.953  0.00  0.00    +0.000 N 
ATOM      8  C   UNL     1      -0.430  11.451  22.209  0.00  0.00    +0.000 C 
ATOM      9  C   UNL     1      -1.351  12.313  23.072  0.00  0.00    +0.000 C 
ATOM     10  C   UNL     1      -0.791  13.724  23.119  0.00  0.00    +0.000 C 
ATOM     11  C   UNL     1      -0.840  14.276  21.699  0.00  0.00    +0.000 C 
ATOM     12  C   UNL     1      -2.314  14.365  21.256  0.00  0.00    +0.000 C 
ATOM     13  N   UNL     1      -2.985  13.030  21.283  0.00  0.00    +0.000 NA
ATOM     14  C   UNL     1      -2.806  12.306  22.575  0.00  0.00    +0.000 C 
ENDROOT
BRANCH   5  15
ATOM     15  C   UNL     1       0.572  15.397  19.352  0.00  0.00    +0.000 A 
ATOM     16  C   UNL     1       1.544  16.254  19.834  0.00  0.00    +0.000 A 
ATOM     17  N   UNL     1       1.565  17.582  19.590  0.00  0.00    +0.000 NA
ATOM     18  C   UNL     1       0.568  18.047  18.820  0.00  0.00    +0.000 A 
ATOM     19  N   UNL     1      -0.426  17.318  18.292  0.00  0.00    +0.000 NA
ATOM     20  C   UNL     1      -0.394  15.997  18.566  0.00  0.00    +0.000 A 
ENDBRANCH   5  15
BRANCH  13  21
ATOM     21  S   UNL     1      -4.638  13.084  20.790  0.00  0.00    +0.000 S 
ATOM     22  O   UNL     1      -5.392  12.187  21.640  0.00  0.00    +0.000 OA
ATOM     23  O   UNL     1      -4.999  14.480  20.668  0.00  0.00    +0.000 OA
BRANCH  21  24
ATOM     24  C   UNL     1      -4.596  12.365  19.167  0.00  0.00    +0.000 A 
ATOM     25  C   UNL     1      -5.734  12.447  18.359  0.00  0.00    +0.000 A 
ATOM     26  C   UNL     1      -5.709  11.897  17.077  0.00  0.00    +0.000 A 
ATOM     27  C   UNL     1      -4.548  11.280  16.605  0.00  0.00    +0.000 A 
ATOM     28  C   UNL     1      -3.409  11.214  17.410  0.00  0.00    +0.000 A 
ATOM     29  C   UNL     1      -3.427  11.758  18.694  0.00  0.00    +0.000 A 
ENDBRANCH  21  24
ENDBRANCH  13  21
TORSDOF 3
ENDMDL
MODEL 9
REMARK VINA RESULT:      -7.7      4.011      5.931
REMARK  Name = 
REMARK  3 active torsions:
REMARK  status: ('A' for Active; 'I' for Inactive)
REMARK    1  A    between atoms: C_5  and  C_6
REMARK    2  A    between atoms: N_19  and  S_20
REMARK    3  A    between atoms: S_20  and  C_23
REMARK                            x       y       z     vdW  Elec       q    Type
REMARK                         _______ _______ _______ _____ _____    ______ ____
ROOT
ATOM      1  O   UNL     1      -4.775  11.847  24.669  0.00  0.00    +0.000 OA
ATOM      2  C   UNL     1      -4.130  12.317  23.736  0.00  0.00    +0.000 A 
ATOM      3  C   UNL     1      -2.666  12.118  23.710  0.00  0.00    +0.000 A 
ATOM      4  C   UNL     1      -1.932  12.687  22.751  0.00  0.00    +0.000 A 
ATOM      5  C   UNL     1      -2.537  13.463  21.683  0.00  0.00    +0.000 A 
ATOM      6  C   UNL     1      -3.889  13.609  21.652  0.00  0.00    +0.000 A 
ATOM      7  N   UNL     1      -4.673  13.058  22.681  0.00  0.00    +0.000 N 
ATOM      8  C   UNL     1      -6.101  13.355  22.808  0.00  0.00    +0.000 C 
ATOM      9  C   UNL     1      -6.793  13.937  21.575  0.00  0.00    +0.000 C 
ATOM     10  C   UNL     1      -5.899  15.009  20.979  0.00  0.00    +0.000 C 
ATOM     11  C   UNL     1      -4.622  14.321  20.509  0.00  0.00    +0.000 C 
ATOM     12  C   UNL     1      -4.983  13.326  19.387  0.00  0.00    +0.000 C 
ATOM     13  N   UNL     1      -5.953  12.289  19.855  0.00  0.00    +0.000 NA
ATOM     14  C   UNL     1      -7.150  12.865  20.534  0.00  0.00    +0.000 C 
ENDROOT
BRANCH   5  15
ATOM     15  C   UNL     1      -1.678  14.048  20.642  0.00  0.00    +0.000 A 
ATOM     16  C   UNL     1      -1.292  15.376  20.658  0.00  0.00    +0.000 A 
ATOM     17  N   UNL     1      -0.491  15.938  19.727  0.00  0.00    +0.000 NA
ATOM     18  C   UNL     1      -0.063  15.117  18.756  0.00  0.00    +0.000 A 
ATOM     19  N   UNL     1      -0.364  13.815  18.634  0.00  0.00    +0.000 NA
ATOM     20  C   UNL     1      -1.164  13.306  19.595  0.00  0.00    +0.000 A 
ENDBRANCH   5  15
BRANCH  13  21
ATOM     21  S   UNL     1      -6.382  11.152  18.630  0.00  0.00    +0.000 S 
ATOM     22  O   UNL     1      -6.743   9.907  19.276  0.00  0.00    +0.000 OA
ATOM     23  O   UNL     1      -7.297  11.821  17.731  0.00  0.00    +0.000 OA
BRANCH  21  24
ATOM     24  C   UNL     1      -4.847  10.881  17.779  0.00  0.00    +0.000 A 
ATOM     25  C   UNL     1      -3.860  10.104  18.393  0.00  0.00    +0.000 A 
ATOM     26  C   UNL     1      -2.655   9.873  17.728  0.00  0.00    +0.000 A 
ATOM     27  C   UNL     1      -2.446  10.407  16.455  0.00  0.00    +0.000 A 
ATOM     28  C   UNL     1      -3.441  11.170  15.840  0.00  0.00    +0.000 A 
ATOM     29  C   UNL     1      -4.647  11.408  16.499  0.00  0.00    +0.000 A 
ENDBRANCH  21  24
ENDBRANCH  13  21
TORSDOF 3
ENDMDL
