MODEL 1
REMARK VINA RESULT:      -8.6      0.000      0.000
REMARK  Name = 
REMARK  6 active torsions:
REMARK  status: ('A' for Active; 'I' for Inactive)
REMARK    1  A    between atoms: C_1  and  C_2
REMARK    2  A    between atoms: C_5  and  O_6
REMARK    3  A    between atoms: O_6  and  C_7
REMARK    4  A    between atoms: C_7  and  C_8
REMARK    5  A    between atoms: C_12  and  C_13
REMARK    6  A    between atoms: C_17  and  C_18
REMARK                            x       y       z     vdW  Elec       q    Type
REMARK                         _______ _______ _______ _____ _____    ______ ____
ROOT
ATOM      1  C   UNL     1       1.794   8.622  19.059  0.00  0.00    +0.000 A 
ATOM      2  C   UNL     1       1.417   7.724  20.034  0.00  0.00    +0.000 A 
ATOM      3  C   UNL     1       2.067   6.456  19.910  0.00  0.00    +0.000 A 
ATOM      4  N   UNL     1       1.830   5.405  20.740  0.00  0.00    +0.000 NA
ATOM      5  C   UNL     1       2.551   4.292  20.478  0.00  0.00    +0.000 A 
ATOM      6  C   UNL     1       3.499   4.173  19.474  0.00  0.00    +0.000 A 
ATOM      7  C   UNL     1       3.757   5.245  18.601  0.00  0.00    +0.000 A 
ATOM      8  C   UNL     1       2.978   6.414  18.845  0.00  0.00    +0.000 A 
ATOM      9  S   UNL     1       2.905   7.913  17.979  0.00  0.00    +0.000 S 
ENDROOT
BRANCH   7  10
ATOM     10  C   UNL     1       4.759   5.119  17.510  0.00  0.00    +0.000 A 
ATOM     11  C   UNL     1       5.945   5.885  17.522  0.00  0.00    +0.000 A 
ATOM     12  C   UNL     1       6.896   5.786  16.498  0.00  0.00    +0.000 A 
ATOM     13  C   UNL     1       6.689   4.896  15.456  0.00  0.00    +0.000 A 
ATOM     14  F   UNL     1       7.608   4.781  14.489  0.00  0.00    +0.000 F 
ATOM     15  C   UNL     1       5.536   4.133  15.401  0.00  0.00    +0.000 A 
ATOM     16  C   UNL     1       4.569   4.267  16.405  0.00  0.00    +0.000 A 
ENDBRANCH   7  10
BRANCH   5  17
ATOM     17  C   UNL     1       2.274   3.104  21.352  0.00  0.00    +0.000 C 
ATOM     18  N   UNL     1       0.959   2.762  21.496  0.00  0.00    +0.000 N 
ATOM     19  O   UNL     1       3.166   2.465  21.898  0.00  0.00    +0.000 OA
ATOM     20  H   UNL     1       0.240   3.301  21.028  0.00  0.00    +0.000 HD
ATOM     21  H   UNL     1       0.711   1.966  22.069  0.00  0.00    +0.000 HD
ENDBRANCH   5  17
BRANCH   1  22
ATOM     22  C   UNL     1       1.322  10.027  18.829  0.00  0.00    +0.000 C 
BRANCH  22  23
ATOM     23  O   UNL     1       0.108  10.197  19.567  0.00  0.00    +0.000 OA
BRANCH  23  28
ATOM     24  C   UNL     1      -4.495  11.593  16.730  0.00  0.00    +0.000 C 
ATOM     25  C   UNL     1      -3.251  11.214  17.470  0.00  0.00    +0.000 A 
ATOM     26  N   UNL     1      -2.992  11.831  18.639  0.00  0.00    +0.000 NA
ATOM     27  C   UNL     1      -1.861  11.457  19.277  0.00  0.00    +0.000 A 
ATOM     28  C   UNL     1      -0.992  10.489  18.817  0.00  0.00    +0.000 A 
ATOM     29  C   UNL     1      -1.344   9.943  17.600  0.00  0.00    +0.000 A 
ATOM     30  N   UNL     1      -2.461  10.278  16.913  0.00  0.00    +0.000 NA
ENDBRANCH  23  28
ENDBRANCH  22  23
ENDBRANCH   1  22
TORSDOF 5
ENDMDL
MODEL 2
REMARK VINA RESULT:      -8.6      4.144      7.693
REMARK  Name = 
REMARK  6 active torsions:
REMARK  status: ('A' for Active; 'I' for Inactive)
REMARK    1  A    between atoms: C_1  and  C_2
REMARK    2  A    between atoms: C_5  and  O_6
REMARK    3  A    between atoms: O_6  and  C_7
REMARK    4  A    between atoms: C_7  and  C_8
REMARK    5  A    between atoms: C_12  and  C_13
REMARK    6  A    between atoms: C_17  and  C_18
REMARK                            x       y       z     vdW  Elec       q    Type
REMARK                         _______ _______ _______ _____ _____    ______ ____
ROOT
ATOM      1  C   UNL     1       6.185   5.189  17.569  0.00  0.00    +0.000 A 
ATOM      2  C   UNL     1       5.705   4.119  18.291  0.00  0.00    +0.000 A 
ATOM      3  C   UNL     1       4.497   4.417  18.998  0.00  0.00    +0.000 A 
ATOM      4  N   UNL     1       3.856   3.525  19.801  0.00  0.00    +0.000 NA
ATOM      5  C   UNL     1       2.719   3.981  20.373  0.00  0.00    +0.000 A 
ATOM      6  C   UNL     1       2.177   5.241  20.177  0.00  0.00    +0.000 A 
ATOM      7  C   UNL     1       2.825   6.181  19.356  0.00  0.00    +0.000 A 
ATOM      8  C   UNL     1       4.043   5.724  18.773  0.00  0.00    +0.000 A 
ATOM      9  S   UNL     1       5.193   6.558  17.781  0.00  0.00    +0.000 S 
ENDROOT
BRANCH   7  10
ATOM     10  C   UNL     1       2.259   7.541  19.155  0.00  0.00    +0.000 A 
ATOM     11  C   UNL     1       1.599   8.215  20.206  0.00  0.00    +0.000 A 
ATOM     12  C   UNL     1       1.051   9.492  20.032  0.00  0.00    +0.000 A 
ATOM     13  C   UNL     1       1.178  10.130  18.808  0.00  0.00    +0.000 A 
ATOM     14  F   UNL     1       0.678  11.362  18.647  0.00  0.00    +0.000 F 
ATOM     15  C   UNL     1       1.808   9.501  17.749  0.00  0.00    +0.000 A 
ATOM     16  C   UNL     1       2.317   8.207  17.915  0.00  0.00    +0.000 A 
ENDBRANCH   7  10
BRANCH   5  17
ATOM     17  C   UNL     1       2.018   3.030  21.299  0.00  0.00    +0.000 C 
ATOM     18  N   UNL     1       0.700   2.797  21.030  0.00  0.00    +0.000 N 
ATOM     19  O   UNL     1       2.589   2.482  22.236  0.00  0.00    +0.000 OA
ATOM     20  H   UNL     1       0.253   3.256  20.245  0.00  0.00    +0.000 HD
ATOM     21  H   UNL     1       0.177   2.160  21.617  0.00  0.00    +0.000 HD
ENDBRANCH   5  17
BRANCH   1  22
ATOM     22  C   UNL     1       7.426   5.288  16.732  0.00  0.00    +0.000 C 
BRANCH  22  23
ATOM     23  O   UNL     1       7.067   5.944  15.511  0.00  0.00    +0.000 OA
BRANCH  23  28
ATOM     24  C   UNL     1       5.542   2.455  11.426  0.00  0.00    +0.000 C 
ATOM     25  C   UNL     1       5.963   3.403  12.505  0.00  0.00    +0.000 A 
ATOM     26  N   UNL     1       5.144   3.568  13.562  0.00  0.00    +0.000 NA
ATOM     27  C   UNL     1       5.563   4.430  14.516  0.00  0.00    +0.000 A 
ATOM     28  C   UNL     1       6.760   5.114  14.474  0.00  0.00    +0.000 A 
ATOM     29  C   UNL     1       7.504   4.886  13.335  0.00  0.00    +0.000 A 
ATOM     30  N   UNL     1       7.137   4.039  12.346  0.00  0.00    +0.000 NA
ENDBRANCH  23  28
ENDBRANCH  22  23
ENDBRANCH   1  22
TORSDOF 5
ENDMDL
MODEL 3
REMARK VINA RESULT:      -8.5      0.127      1.274
REMARK  Name = 
REMARK  6 active torsions:
REMARK  status: ('A' for Active; 'I' for Inactive)
REMARK    1  A    between atoms: C_1  and  C_2
REMARK    2  A    between atoms: C_5  and  O_6
REMARK    3  A    between atoms: O_6  and  C_7
REMARK    4  A    between atoms: C_7  and  C_8
REMARK    5  A    between atoms: C_12  and  C_13
REMARK    6  A    between atoms: C_17  and  C_18
REMARK                            x       y       z     vdW  Elec       q    Type
REMARK                         _______ _______ _______ _____ _____    ______ ____
ROOT
ATOM      1  C   UNL     1       1.798   8.678  19.026  0.00  0.00    +0.000 A 
ATOM      2  C   UNL     1       1.411   7.781  19.997  0.00  0.00    +0.000 A 
ATOM      3  C   UNL     1       2.062   6.513  19.878  0.00  0.00    +0.000 A 
ATOM      4  N   UNL     1       1.817   5.461  20.705  0.00  0.00    +0.000 NA
ATOM      5  C   UNL     1       2.540   4.348  20.449  0.00  0.00    +0.000 A 
ATOM      6  C   UNL     1       3.496   4.229  19.454  0.00  0.00    +0.000 A 
ATOM      7  C   UNL     1       3.763   5.301  18.584  0.00  0.00    +0.000 A 
ATOM      8  C   UNL     1       2.983   6.470  18.821  0.00  0.00    +0.000 A 
ATOM      9  S   UNL     1       2.919   7.969  17.956  0.00  0.00    +0.000 S 
ENDROOT
BRANCH   7  10
ATOM     10  C   UNL     1       4.775   5.174  17.502  0.00  0.00    +0.000 A 
ATOM     11  C   UNL     1       4.567   4.300  16.412  0.00  0.00    +0.000 A 
ATOM     12  C   UNL     1       5.514   4.161  15.389  0.00  0.00    +0.000 A 
ATOM     13  C   UNL     1       6.675   4.917  15.424  0.00  0.00    +0.000 A 
ATOM     14  F   UNL     1       7.569   4.805  14.434  0.00  0.00    +0.000 F 
ATOM     15  C   UNL     1       6.922   5.778  16.478  0.00  0.00    +0.000 A 
ATOM     16  C   UNL     1       5.992   5.881  17.521  0.00  0.00    +0.000 A 
ENDBRANCH   7  10
BRANCH   5  17
ATOM     17  C   UNL     1       2.253   3.159  21.320  0.00  0.00    +0.000 C 
ATOM     18  N   UNL     1       0.940   2.801  21.430  0.00  0.00    +0.000 N 
ATOM     19  O   UNL     1       3.139   2.534  21.893  0.00  0.00    +0.000 OA
ATOM     20  H   UNL     1       0.227   3.329  20.939  0.00  0.00    +0.000 HD
ATOM     21  H   UNL     1       0.686   2.004  21.999  0.00  0.00    +0.000 HD
ENDBRANCH   5  17
BRANCH   1  22
ATOM     22  C   UNL     1       1.329  10.084  18.792  0.00  0.00    +0.000 C 
BRANCH  22  23
ATOM     23  O   UNL     1       0.146  10.276  19.573  0.00  0.00    +0.000 OA
BRANCH  23  28
ATOM     24  C   UNL     1      -4.339  11.374  16.433  0.00  0.00    +0.000 C 
ATOM     25  C   UNL     1      -3.150  11.085  17.294  0.00  0.00    +0.000 A 
ATOM     26  N   UNL     1      -2.261  10.169  16.864  0.00  0.00    +0.000 NA
ATOM     27  C   UNL     1      -1.199   9.941  17.670  0.00  0.00    +0.000 A 
ATOM     28  C   UNL     1      -0.974  10.592  18.864  0.00  0.00    +0.000 A 
ATOM     29  C   UNL     1      -1.961  11.490  19.215  0.00  0.00    +0.000 A 
ATOM     30  N   UNL     1      -3.047  11.759  18.453  0.00  0.00    +0.000 NA
ENDBRANCH  23  28
ENDBRANCH  22  23
ENDBRANCH   1  22
TORSDOF 5
ENDMDL
MODEL 4
REMARK VINA RESULT:      -8.2      0.867      1.507
REMARK  Name = 
REMARK  6 active torsions:
REMARK  status: ('A' for Active; 'I' for Inactive)
REMARK    1  A    between atoms: C_1  and  C_2
REMARK    2  A    between atoms: C_5  and  O_6
REMARK    3  A    between atoms: O_6  and  C_7
REMARK    4  A    between atoms: C_7  and  C_8
REMARK    5  A    between atoms: C_12  and  C_13
REMARK    6  A    between atoms: C_17  and  C_18
REMARK                            x       y       z     vdW  Elec       q    Type
REMARK                         _______ _______ _______ _____ _____    ______ ____
ROOT
ATOM      1  C   UNL     1       1.797   8.575  19.081  0.00  0.00    +0.000 A 
ATOM      2  C   UNL     1       1.431   7.660  20.044  0.00  0.00    +0.000 A 
ATOM      3  C   UNL     1       2.103   6.405  19.908  0.00  0.00    +0.000 A 
ATOM      4  N   UNL     1       1.880   5.340  20.725  0.00  0.00    +0.000 NA
ATOM      5  C   UNL     1       2.622   4.242  20.453  0.00  0.00    +0.000 A 
ATOM      6  C   UNL     1       3.575   4.151  19.452  0.00  0.00    +0.000 A 
ATOM      7  C   UNL     1       3.818   5.237  18.592  0.00  0.00    +0.000 A 
ATOM      8  C   UNL     1       3.019   6.390  18.846  0.00  0.00    +0.000 A 
ATOM      9  S   UNL     1       2.924   7.897  17.997  0.00  0.00    +0.000 S 
ENDROOT
BRANCH   7  10
ATOM     10  C   UNL     1       4.827   5.140  17.504  0.00  0.00    +0.000 A 
ATOM     11  C   UNL     1       4.619   4.291  16.395  0.00  0.00    +0.000 A 
ATOM     12  C   UNL     1       5.562   4.180  15.365  0.00  0.00    +0.000 A 
ATOM     13  C   UNL     1       6.720   4.939  15.414  0.00  0.00    +0.000 A 
ATOM     14  F   UNL     1       7.612   4.855  14.418  0.00  0.00    +0.000 F 
ATOM     15  C   UNL     1       6.968   5.777  16.487  0.00  0.00    +0.000 A 
ATOM     16  C   UNL     1       6.041   5.852  17.535  0.00  0.00    +0.000 A 
ENDBRANCH   7  10
BRANCH   5  17
ATOM     17  C   UNL     1       2.361   3.040  21.313  0.00  0.00    +0.000 C 
ATOM     18  N   UNL     1       1.052   2.800  21.624  0.00  0.00    +0.000 N 
ATOM     19  O   UNL     1       3.259   2.305  21.706  0.00  0.00    +0.000 OA
ATOM     20  H   UNL     1       0.327   3.418  21.279  0.00  0.00    +0.000 HD
ATOM     21  H   UNL     1       0.814   2.000  22.195  0.00  0.00    +0.000 HD
ENDBRANCH   5  17
BRANCH   1  22
ATOM     22  C   UNL     1       1.302   9.974  18.865  0.00  0.00    +0.000 C 
BRANCH  22  23
ATOM     23  O   UNL     1       0.054   9.885  18.171  0.00  0.00    +0.000 OA
BRANCH  23  28
ATOM     24  C   UNL     1      -3.874  13.108  20.487  0.00  0.00    +0.000 C 
ATOM     25  C   UNL     1      -2.828  12.252  19.845  0.00  0.00    +0.000 A 
ATOM     26  N   UNL     1      -1.715  11.973  20.549  0.00  0.00    +0.000 NA
ATOM     27  C   UNL     1      -0.797  11.194  19.935  0.00  0.00    +0.000 A 
ATOM     28  C   UNL     1      -0.945  10.669  18.668  0.00  0.00    +0.000 A 
ATOM     29  C   UNL     1      -2.111  11.042  18.032  0.00  0.00    +0.000 A 
ATOM     30  N   UNL     1      -3.065  11.820  18.593  0.00  0.00    +0.000 NA
ENDBRANCH  23  28
ENDBRANCH  22  23
ENDBRANCH   1  22
TORSDOF 5
ENDMDL
MODEL 5
REMARK VINA RESULT:      -8.1      1.928      2.566
REMARK  Name = 
REMARK  6 active torsions:
REMARK  status: ('A' for Active; 'I' for Inactive)
REMARK    1  A    between atoms: C_1  and  C_2
REMARK    2  A    between atoms: C_5  and  O_6
REMARK    3  A    between atoms: O_6  and  C_7
REMARK    4  A    between atoms: C_7  and  C_8
REMARK    5  A    between atoms: C_12  and  C_13
REMARK    6  A    between atoms: C_17  and  C_18
REMARK                            x       y       z     vdW  Elec       q    Type
REMARK                         _______ _______ _______ _____ _____    ______ ____
ROOT
ATOM      1  C   UNL     1       1.654   8.481  19.432  0.00  0.00    +0.000 A 
ATOM      2  C   UNL     1       1.452   7.548  20.425  0.00  0.00    +0.000 A 
ATOM      3  C   UNL     1       2.091   6.297  20.156  0.00  0.00    +0.000 A 
ATOM      4  N   UNL     1       2.006   5.217  20.979  0.00  0.00    +0.000 NA
ATOM      5  C   UNL     1       2.691   4.126  20.567  0.00  0.00    +0.000 A 
ATOM      6  C   UNL     1       3.465   4.056  19.421  0.00  0.00    +0.000 A 
ATOM      7  C   UNL     1       3.564   5.158  18.553  0.00  0.00    +0.000 A 
ATOM      8  C   UNL     1       2.818   6.304  18.957  0.00  0.00    +0.000 A 
ATOM      9  S   UNL     1       2.586   7.826  18.164  0.00  0.00    +0.000 S 
ENDROOT
BRANCH   7  10
ATOM     10  C   UNL     1       4.378   5.084  17.311  0.00  0.00    +0.000 A 
ATOM     11  C   UNL     1       4.717   6.252  16.594  0.00  0.00    +0.000 A 
ATOM     12  C   UNL     1       5.475   6.200  15.417  0.00  0.00    +0.000 A 
ATOM     13  C   UNL     1       5.932   4.977  14.952  0.00  0.00    +0.000 A 
ATOM     14  F   UNL     1       6.679   4.927  13.842  0.00  0.00    +0.000 F 
ATOM     15  C   UNL     1       5.615   3.808  15.619  0.00  0.00    +0.000 A 
ATOM     16  C   UNL     1       4.821   3.861  16.771  0.00  0.00    +0.000 A 
ENDBRANCH   7  10
BRANCH   5  17
ATOM     17  C   UNL     1       2.575   2.907  21.436  0.00  0.00    +0.000 C 
ATOM     18  N   UNL     1       1.343   2.676  21.979  0.00  0.00    +0.000 N 
ATOM     19  O   UNL     1       3.519   2.153  21.641  0.00  0.00    +0.000 OA
ATOM     20  H   UNL     1       0.577   3.311  21.788  0.00  0.00    +0.000 HD
ATOM     21  H   UNL     1       1.203   1.866  22.569  0.00  0.00    +0.000 HD
ENDBRANCH   5  17
BRANCH   1  22
ATOM     22  C   UNL     1       1.132   9.883  19.327  0.00  0.00    +0.000 C 
BRANCH  22  23
ATOM     23  O   UNL     1      -0.221   9.873  19.794  0.00  0.00    +0.000 OA
BRANCH  23  28
ATOM     24  C   UNL     1      -1.454  13.762  23.606  0.00  0.00    +0.000 C 
ATOM     25  C   UNL     1      -1.120  12.737  22.569  0.00  0.00    +0.000 A 
ATOM     26  N   UNL     1      -0.572  11.575  22.975  0.00  0.00    +0.000 NA
ATOM     27  C   UNL     1      -0.289  10.675  22.006  0.00  0.00    +0.000 A 
ATOM     28  C   UNL     1      -0.543  10.870  20.665  0.00  0.00    +0.000 A 
ATOM     29  C   UNL     1      -1.081  12.104  20.363  0.00  0.00    +0.000 A 
ATOM     30  N   UNL     1      -1.384  13.046  21.287  0.00  0.00    +0.000 NA
ENDBRANCH  23  28
ENDBRANCH  22  23
ENDBRANCH   1  22
TORSDOF 5
ENDMDL
MODEL 6
REMARK VINA RESULT:      -8.0      1.001      1.001
REMARK  Name = 
REMARK  6 active torsions:
REMARK  status: ('A' for Active; 'I' for Inactive)
REMARK    1  A    between atoms: C_1  and  C_2
REMARK    2  A    between atoms: C_5  and  O_6
REMARK    3  A    between atoms: O_6  and  C_7
REMARK    4  A    between atoms: C_7  and  C_8
REMARK    5  A    between atoms: C_12  and  C_13
REMARK    6  A    between atoms: C_17  and  C_18
REMARK                            x       y       z     vdW  Elec       q    Type
REMARK                         _______ _______ _______ _____ _____    ______ ____
ROOT
ATOM      1  C   UNL     1       1.556   8.526  19.526  0.00  0.00    +0.000 A 
ATOM      2  C   UNL     1       1.354   7.573  20.501  0.00  0.00    +0.000 A 
ATOM      3  C   UNL     1       1.999   6.330  20.210  0.00  0.00    +0.000 A 
ATOM      4  N   UNL     1       1.916   5.234  21.011  0.00  0.00    +0.000 NA
ATOM      5  C   UNL     1       2.606   4.154  20.582  0.00  0.00    +0.000 A 
ATOM      6  C   UNL     1       3.384   4.109  19.436  0.00  0.00    +0.000 A 
ATOM      7  C   UNL     1       3.481   5.228  18.590  0.00  0.00    +0.000 A 
ATOM      8  C   UNL     1       2.730   6.363  19.014  0.00  0.00    +0.000 A 
ATOM      9  S   UNL     1       2.494   7.899  18.250  0.00  0.00    +0.000 S 
ENDROOT
BRANCH   7  10
ATOM     10  C   UNL     1       4.299   5.180  17.350  0.00  0.00    +0.000 A 
ATOM     11  C   UNL     1       4.707   6.368  16.703  0.00  0.00    +0.000 A 
ATOM     12  C   UNL     1       5.470   6.342  15.528  0.00  0.00    +0.000 A 
ATOM     13  C   UNL     1       5.863   5.125  14.994  0.00  0.00    +0.000 A 
ATOM     14  F   UNL     1       6.614   5.098  13.886  0.00  0.00    +0.000 F 
ATOM     15  C   UNL     1       5.477   3.938  15.591  0.00  0.00    +0.000 A 
ATOM     16  C   UNL     1       4.679   3.968  16.741  0.00  0.00    +0.000 A 
ENDBRANCH   7  10
BRANCH   5  17
ATOM     17  C   UNL     1       2.492   2.918  21.426  0.00  0.00    +0.000 C 
ATOM     18  N   UNL     1       3.527   2.031  21.330  0.00  0.00    +0.000 N 
ATOM     19  O   UNL     1       1.538   2.714  22.168  0.00  0.00    +0.000 OA
ATOM     20  H   UNL     1       4.308   2.227  20.716  0.00  0.00    +0.000 HD
ATOM     21  H   UNL     1       3.508   1.183  21.881  0.00  0.00    +0.000 HD
ENDBRANCH   5  17
BRANCH   1  22
ATOM     22  C   UNL     1       1.028   9.928  19.447  0.00  0.00    +0.000 C 
BRANCH  22  23
ATOM     23  O   UNL     1       0.466  10.101  18.142  0.00  0.00    +0.000 OA
BRANCH  23  28
ATOM     24  C   UNL     1      -4.858  11.778  18.300  0.00  0.00    +0.000 C 
ATOM     25  C   UNL     1      -3.433  11.324  18.235  0.00  0.00    +0.000 A 
ATOM     26  N   UNL     1      -2.553  11.866  19.098  0.00  0.00    +0.000 NA
ATOM     27  C   UNL     1      -1.277  11.426  19.008  0.00  0.00    +0.000 A 
ATOM     28  C   UNL     1      -0.847  10.465  18.118  0.00  0.00    +0.000 A 
ATOM     29  C   UNL     1      -1.828  10.000  17.267  0.00  0.00    +0.000 A 
ATOM     30  N   UNL     1      -3.120  10.403  17.307  0.00  0.00    +0.000 NA
ENDBRANCH  23  28
ENDBRANCH  22  23
ENDBRANCH   1  22
TORSDOF 5
ENDMDL
MODEL 7
REMARK VINA RESULT:      -8.0      1.231      1.914
REMARK  Name = 
REMARK  6 active torsions:
REMARK  status: ('A' for Active; 'I' for Inactive)
REMARK    1  A    between atoms: C_1  and  C_2
REMARK    2  A    between atoms: C_5  and  O_6
REMARK    3  A    between atoms: O_6  and  C_7
REMARK    4  A    between atoms: C_7  and  C_8
REMARK    5  A    between atoms: C_12  and  C_13
REMARK    6  A    between atoms: C_17  and  C_18
REMARK                            x       y       z     vdW  Elec       q    Type
REMARK                         _______ _______ _______ _____ _____    ______ ____
ROOT
ATOM      1  C   UNL     1       1.836   8.451  19.064  0.00  0.00    +0.000 A 
ATOM      2  C   UNL     1       1.546   7.537  20.054  0.00  0.00    +0.000 A 
ATOM      3  C   UNL     1       2.257   6.304  19.903  0.00  0.00    +0.000 A 
ATOM      4  N   UNL     1       2.109   5.243  20.742  0.00  0.00    +0.000 NA
ATOM      5  C   UNL     1       2.876   4.169  20.450  0.00  0.00    +0.000 A 
ATOM      6  C   UNL     1       3.787   4.099  19.409  0.00  0.00    +0.000 A 
ATOM      7  C   UNL     1       3.953   5.181  18.526  0.00  0.00    +0.000 A 
ATOM      8  C   UNL     1       3.124   6.307  18.802  0.00  0.00    +0.000 A 
ATOM      9  S   UNL     1       2.938   7.799  17.940  0.00  0.00    +0.000 S 
ENDROOT
BRANCH   7  10
ATOM     10  C   UNL     1       4.915   5.105  17.395  0.00  0.00    +0.000 A 
ATOM     11  C   UNL     1       4.658   4.281  16.278  0.00  0.00    +0.000 A 
ATOM     12  C   UNL     1       5.558   4.190  15.207  0.00  0.00    +0.000 A 
ATOM     13  C   UNL     1       6.720   4.944  15.225  0.00  0.00    +0.000 A 
ATOM     14  F   UNL     1       7.569   4.879  14.192  0.00  0.00    +0.000 F 
ATOM     15  C   UNL     1       7.015   5.757  16.305  0.00  0.00    +0.000 A 
ATOM     16  C   UNL     1       6.133   5.812  17.392  0.00  0.00    +0.000 A 
ENDBRANCH   7  10
BRANCH   5  17
ATOM     17  C   UNL     1       2.697   2.970  21.335  0.00  0.00    +0.000 C 
ATOM     18  N   UNL     1       1.465   2.830  21.909  0.00  0.00    +0.000 N 
ATOM     19  O   UNL     1       3.591   2.154  21.527  0.00  0.00    +0.000 OA
ATOM     20  H   UNL     1       0.740   3.514  21.728  0.00  0.00    +0.000 HD
ATOM     21  H   UNL     1       1.283   2.037  22.511  0.00  0.00    +0.000 HD
ENDBRANCH   5  17
BRANCH   1  22
ATOM     22  C   UNL     1       1.282   9.829  18.854  0.00  0.00    +0.000 C 
BRANCH  22  23
ATOM     23  O   UNL     1       1.064  10.405  20.146  0.00  0.00    +0.000 OA
BRANCH  23  28
ATOM     24  C   UNL     1      -3.806  13.123  20.422  0.00  0.00    +0.000 C 
ATOM     25  C   UNL     1      -2.502  12.390  20.371  0.00  0.00    +0.000 A 
ATOM     26  N   UNL     1      -2.151  11.797  19.214  0.00  0.00    +0.000 NA
ATOM     27  C   UNL     1      -0.965  11.148  19.209  0.00  0.00    +0.000 A 
ATOM     28  C   UNL     1      -0.111  11.081  20.290  0.00  0.00    +0.000 A 
ATOM     29  C   UNL     1      -0.585  11.702  21.427  0.00  0.00    +0.000 A 
ATOM     30  N   UNL     1      -1.763  12.364  21.494  0.00  0.00    +0.000 NA
ENDBRANCH  23  28
ENDBRANCH  22  23
ENDBRANCH   1  22
TORSDOF 5
ENDMDL
MODEL 8
REMARK VINA RESULT:      -7.9      1.715      2.589
REMARK  Name = 
REMARK  6 active torsions:
REMARK  status: ('A' for Active; 'I' for Inactive)
REMARK    1  A    between atoms: C_1  and  C_2
REMARK    2  A    between atoms: C_5  and  O_6
REMARK    3  A    between atoms: O_6  and  C_7
REMARK    4  A    between atoms: C_7  and  C_8
REMARK    5  A    between atoms: C_12  and  C_13
REMARK    6  A    between atoms: C_17  and  C_18
REMARK                            x       y       z     vdW  Elec       q    Type
REMARK                         _______ _______ _______ _____ _____    ______ ____
ROOT
ATOM      1  C   UNL     1       1.781   9.028  18.901  0.00  0.00    +0.000 A 
ATOM      2  C   UNL     1       1.324   8.171  19.880  0.00  0.00    +0.000 A 
ATOM      3  C   UNL     1       1.923   6.874  19.812  0.00  0.00    +0.000 A 
ATOM      4  N   UNL     1       1.606   5.854  20.655  0.00  0.00    +0.000 NA
ATOM      5  C   UNL     1       2.288   4.705  20.449  0.00  0.00    +0.000 A 
ATOM      6  C   UNL     1       3.270   4.522  19.489  0.00  0.00    +0.000 A 
ATOM      7  C   UNL     1       3.611   5.560  18.604  0.00  0.00    +0.000 A 
ATOM      8  C   UNL     1       2.874   6.766  18.787  0.00  0.00    +0.000 A 
ATOM      9  S   UNL     1       2.903   8.245  17.886  0.00  0.00    +0.000 S 
ENDROOT
BRANCH   7  10
ATOM     10  C   UNL     1       4.651   5.364  17.559  0.00  0.00    +0.000 A 
ATOM     11  C   UNL     1       4.468   4.425  16.521  0.00  0.00    +0.000 A 
ATOM     12  C   UNL     1       5.441   4.220  15.533  0.00  0.00    +0.000 A 
ATOM     13  C   UNL     1       6.604   4.973  15.553  0.00  0.00    +0.000 A 
ATOM     14  F   UNL     1       7.524   4.798  14.596  0.00  0.00    +0.000 F 
ATOM     15  C   UNL     1       6.827   5.897  16.558  0.00  0.00    +0.000 A 
ATOM     16  C   UNL     1       5.870   6.068  17.567  0.00  0.00    +0.000 A 
ENDBRANCH   7  10
BRANCH   5  17
ATOM     17  C   UNL     1       1.923   3.552  21.338  0.00  0.00    +0.000 C 
ATOM     18  N   UNL     1       0.816   2.842  20.969  0.00  0.00    +0.000 N 
ATOM     19  O   UNL     1       2.578   3.251  22.329  0.00  0.00    +0.000 OA
ATOM     20  H   UNL     1       0.296   3.106  20.141  0.00  0.00    +0.000 HD
ATOM     21  H   UNL     1       0.524   2.049  21.527  0.00  0.00    +0.000 HD
ENDBRANCH   5  17
BRANCH   1  22
ATOM     22  C   UNL     1       1.381  10.445  18.620  0.00  0.00    +0.000 C 
BRANCH  22  23
ATOM     23  O   UNL     1      -0.016  10.563  18.910  0.00  0.00    +0.000 OA
BRANCH  23  28
ATOM     24  C   UNL     1      -1.006  14.092  23.122  0.00  0.00    +0.000 C 
ATOM     25  C   UNL     1      -0.758  13.157  21.981  0.00  0.00    +0.000 A 
ATOM     26  N   UNL     1       0.483  12.655  21.829  0.00  0.00    +0.000 NA
ATOM     27  C   UNL     1       0.664  11.811  20.788  0.00  0.00    +0.000 A 
ATOM     28  C   UNL     1      -0.331  11.433  19.910  0.00  0.00    +0.000 A 
ATOM     29  C   UNL     1      -1.553  12.028  20.148  0.00  0.00    +0.000 A 
ATOM     30  N   UNL     1      -1.795  12.881  21.170  0.00  0.00    +0.000 NA
ENDBRANCH  23  28
ENDBRANCH  22  23
ENDBRANCH   1  22
TORSDOF 5
ENDMDL
MODEL 9
REMARK VINA RESULT:      -7.9      1.974      2.674
REMARK  Name = 
REMARK  6 active torsions:
REMARK  status: ('A' for Active; 'I' for Inactive)
REMARK    1  A    between atoms: C_1  and  C_2
REMARK    2  A    between atoms: C_5  and  O_6
REMARK    3  A    between atoms: O_6  and  C_7
REMARK    4  A    between atoms: C_7  and  C_8
REMARK    5  A    between atoms: C_12  and  C_13
REMARK    6  A    between atoms: C_17  and  C_18
REMARK                            x       y       z     vdW  Elec       q    Type
REMARK                         _______ _______ _______ _____ _____    ______ ____
ROOT
ATOM      1  C   UNL     1       2.529   8.017  18.438  0.00  0.00    +0.000 A 
ATOM      2  C   UNL     1       2.436   7.088  19.451  0.00  0.00    +0.000 A 
ATOM      3  C   UNL     1       3.162   5.886  19.177  0.00  0.00    +0.000 A 
ATOM      4  N   UNL     1       3.191   4.816  20.017  0.00  0.00    +0.000 NA
ATOM      5  C   UNL     1       3.944   3.776  19.597  0.00  0.00    +0.000 A 
ATOM      6  C   UNL     1       4.680   3.746  18.424  0.00  0.00    +0.000 A 
ATOM      7  C   UNL     1       4.661   4.838  17.537  0.00  0.00    +0.000 A 
ATOM      8  C   UNL     1       3.843   5.929  17.952  0.00  0.00    +0.000 A 
ATOM      9  S   UNL     1       3.464   7.415  17.147  0.00  0.00    +0.000 S 
ENDROOT
BRANCH   7  10
ATOM     10  C   UNL     1       5.434   4.806  16.268  0.00  0.00    +0.000 A 
ATOM     11  C   UNL     1       6.707   5.409  16.178  0.00  0.00    +0.000 A 
ATOM     12  C   UNL     1       7.446   5.397  14.987  0.00  0.00    +0.000 A 
ATOM     13  C   UNL     1       6.933   4.756  13.871  0.00  0.00    +0.000 A 
ATOM     14  F   UNL     1       7.648   4.720  12.739  0.00  0.00    +0.000 F 
ATOM     15  C   UNL     1       5.685   4.160  13.913  0.00  0.00    +0.000 A 
ATOM     16  C   UNL     1       4.933   4.212  15.093  0.00  0.00    +0.000 A 
ENDBRANCH   7  10
BRANCH   5  17
ATOM     17  C   UNL     1       3.955   2.566  20.486  0.00  0.00    +0.000 C 
ATOM     18  N   UNL     1       4.990   1.696  20.299  0.00  0.00    +0.000 N 
ATOM     19  O   UNL     1       3.097   2.369  21.339  0.00  0.00    +0.000 OA
ATOM     20  H   UNL     1       5.691   1.886  19.592  0.00  0.00    +0.000 HD
ATOM     21  H   UNL     1       5.054   0.865  20.873  0.00  0.00    +0.000 HD
ENDBRANCH   5  17
BRANCH   1  22
ATOM     22  C   UNL     1       1.895   9.372  18.333  0.00  0.00    +0.000 C 
BRANCH  22  23
ATOM     23  O   UNL     1       0.539   9.246  18.772  0.00  0.00    +0.000 OA
BRANCH  23  28
ATOM     24  C   UNL     1      -1.104  12.645  22.886  0.00  0.00    +0.000 C 
ATOM     25  C   UNL     1      -0.657  11.719  21.799  0.00  0.00    +0.000 A 
ATOM     26  N   UNL     1      -1.307  11.759  20.621  0.00  0.00    +0.000 NA
ATOM     27  C   UNL     1      -0.869  10.909  19.665  0.00  0.00    +0.000 A 
ATOM     28  C   UNL     1       0.191  10.041  19.823  0.00  0.00    +0.000 A 
ATOM     29  C   UNL     1       0.765  10.068  21.077  0.00  0.00    +0.000 A 
ATOM     30  N   UNL     1       0.370  10.894  22.074  0.00  0.00    +0.000 NA
ENDBRANCH  23  28
ENDBRANCH  22  23
ENDBRANCH   1  22
TORSDOF 5
ENDMDL
