MODEL 1
REMARK VINA RESULT:      -8.0      0.000      0.000
REMARK  Name = 
REMARK  7 active torsions:
REMARK  status: ('A' for Active; 'I' for Inactive)
REMARK    1  A    between atoms: N_1  and  C_2
REMARK    2  A    between atoms: C_6  and  C_7
REMARK    3  A    between atoms: N_9  and  C_10
REMARK    4  A    between atoms: C_10  and  C_11
REMARK    5  A    between atoms: C_10  and  C_15
REMARK    6  A    between atoms: N_13  and  O_14
REMARK    7  A    between atoms: C_18  and  N_19
REMARK                            x       y       z     vdW  Elec       q    Type
REMARK                         _______ _______ _______ _____ _____    ______ ____
ROOT
ATOM      1  C   UNL     1       2.924   4.965  18.706  0.00  0.00    +0.000 C 
ENDROOT
BRANCH   1   2
ATOM      2  C   UNL     1       3.868   4.903  17.517  0.00  0.00    +0.000 A 
ATOM      3  C   UNL     1       4.341   6.084  16.927  0.00  0.00    +0.000 A 
ATOM      4  C   UNL     1       5.211   6.042  15.830  0.00  0.00    +0.000 A 
ATOM      5  C   UNL     1       5.610   4.811  15.295  0.00  0.00    +0.000 A 
ATOM      6  C   UNL     1       5.150   3.627  15.886  0.00  0.00    +0.000 A 
ATOM      7  C   UNL     1       4.291   3.673  16.988  0.00  0.00    +0.000 A 
BRANCH   5   8
ATOM      8  N   UNL     1       6.451   4.742  14.148  0.00  0.00    +0.000 N 
ATOM      9  C   UNL     1       6.294   3.956  13.022  0.00  0.00    +0.000 A 
ATOM     10  C   UNL     1       7.380   4.185  12.211  0.00  0.00    +0.000 A 
ATOM     11  C   UNL     1       8.142   5.134  12.905  0.00  0.00    +0.000 A 
ATOM     12  N   UNL     1       7.584   5.490  14.062  0.00  0.00    +0.000 NA
ENDBRANCH   5   8
ENDBRANCH   1   2
BRANCH   1  15
ATOM     13  C   UNL     1       1.953   6.717  20.172  0.00  0.00    +0.000 C 
ATOM     14  O   UNL     1       1.830   5.952  21.123  0.00  0.00    +0.000 OA
ATOM     15  N   UNL     1       2.492   6.332  18.970  0.00  0.00    +0.000 N 
ATOM     16  H   UNL     1       2.638   6.999  18.223  0.00  0.00    +0.000 HD
BRANCH  13  21
ATOM     17  C   UNL     1       1.007  10.313  19.319  0.00  0.00    +0.000 A 
ATOM     18  C   UNL     1       0.697  10.792  20.593  0.00  0.00    +0.000 A 
ATOM     19  C   UNL     1       0.734   9.941  21.701  0.00  0.00    +0.000 A 
ATOM     20  C   UNL     1       1.131   8.612  21.547  0.00  0.00    +0.000 A 
ATOM     21  C   UNL     1       1.518   8.138  20.287  0.00  0.00    +0.000 A 
ATOM     22  C   UNL     1       1.463   8.998  19.180  0.00  0.00    +0.000 A 
BRANCH  17  23
ATOM     23  N   UNL     1       1.071  11.200  18.234  0.00  0.00    +0.000 N 
ATOM     24  H   UNL     1       2.009  11.527  18.027  0.00  0.00    +0.000 HD
ATOM     25  H   UNL     1       0.403  11.962  18.280  0.00  0.00    +0.000 HD
ENDBRANCH  17  23
ENDBRANCH  13  21
ENDBRANCH   1  15
BRANCH   1  26
ATOM     26  C   UNL     1       1.667   4.098  18.479  0.00  0.00    +0.000 C 
ATOM     27  O   UNL     1       1.031   4.089  17.421  0.00  0.00    +0.000 OA
ATOM     28  N   UNL     1       1.289   3.322  19.547  0.00  0.00    +0.000 N 
ATOM     29  H   UNL     1       1.721   3.331  20.465  0.00  0.00    +0.000 HD
BRANCH  28  30
ATOM     30  O   UNL     1       0.133   2.529  19.379  0.00  0.00    +0.000 OA
ATOM     31  H   UNL     1       0.165   2.308  18.422  0.00  0.00    +0.000 HD
ENDBRANCH  28  30
ENDBRANCH   1  26
TORSDOF 7
ENDMDL
MODEL 2
REMARK VINA RESULT:      -7.8      4.453      6.592
REMARK  Name = 
REMARK  7 active torsions:
REMARK  status: ('A' for Active; 'I' for Inactive)
REMARK    1  A    between atoms: N_1  and  C_2
REMARK    2  A    between atoms: C_6  and  C_7
REMARK    3  A    between atoms: N_9  and  C_10
REMARK    4  A    between atoms: C_10  and  C_11
REMARK    5  A    between atoms: C_10  and  C_15
REMARK    6  A    between atoms: N_13  and  O_14
REMARK    7  A    between atoms: C_18  and  N_19
REMARK                            x       y       z     vdW  Elec       q    Type
REMARK                         _______ _______ _______ _____ _____    ______ ____
ROOT
ATOM      1  C   UNL     1       6.814   4.742  17.124  0.00  0.00    +0.000 C 
ENDROOT
BRANCH   1   2
ATOM      2  C   UNL     1       7.311   6.110  17.558  0.00  0.00    +0.000 A 
ATOM      3  C   UNL     1       6.974   7.254  16.818  0.00  0.00    +0.000 A 
ATOM      4  C   UNL     1       7.426   8.521  17.206  0.00  0.00    +0.000 A 
ATOM      5  C   UNL     1       8.238   8.663  18.337  0.00  0.00    +0.000 A 
ATOM      6  C   UNL     1       8.570   7.527  19.088  0.00  0.00    +0.000 A 
ATOM      7  C   UNL     1       8.107   6.264  18.704  0.00  0.00    +0.000 A 
BRANCH   5   8
ATOM      8  N   UNL     1       8.754   9.933  18.722  0.00  0.00    +0.000 N 
ATOM      9  C   UNL     1       9.383  10.275  19.904  0.00  0.00    +0.000 A 
ATOM     10  C   UNL     1       9.652  11.622  19.848  0.00  0.00    +0.000 A 
ATOM     11  C   UNL     1       9.172  12.023  18.594  0.00  0.00    +0.000 A 
ATOM     12  N   UNL     1       8.647  11.011  17.901  0.00  0.00    +0.000 NA
ENDBRANCH   5   8
ENDBRANCH   1   2
BRANCH   1  15
ATOM     13  C   UNL     1       5.012   4.043  18.683  0.00  0.00    +0.000 C 
ATOM     14  O   UNL     1       5.802   3.746  19.573  0.00  0.00    +0.000 OA
ATOM     15  N   UNL     1       5.411   4.552  17.472  0.00  0.00    +0.000 N 
ATOM     16  H   UNL     1       4.735   4.846  16.778  0.00  0.00    +0.000 HD
BRANCH  13  21
ATOM     17  C   UNL     1       1.619   3.342  20.279  0.00  0.00    +0.000 A 
ATOM     18  C   UNL     1       0.784   3.557  19.181  0.00  0.00    +0.000 A 
ATOM     19  C   UNL     1       1.312   3.985  17.960  0.00  0.00    +0.000 A 
ATOM     20  C   UNL     1       2.690   4.153  17.815  0.00  0.00    +0.000 A 
ATOM     21  C   UNL     1       3.546   3.867  18.886  0.00  0.00    +0.000 A 
ATOM     22  C   UNL     1       3.003   3.452  20.112  0.00  0.00    +0.000 A 
BRANCH  17  23
ATOM     23  N   UNL     1       1.092   2.810  21.465  0.00  0.00    +0.000 N 
ATOM     24  H   UNL     1       1.417   3.279  22.304  0.00  0.00    +0.000 HD
ATOM     25  H   UNL     1       1.169   1.801  21.538  0.00  0.00    +0.000 HD
ENDBRANCH  17  23
ENDBRANCH  13  21
ENDBRANCH   1  15
BRANCH   1  26
ATOM     26  C   UNL     1       6.963   4.541  15.601  0.00  0.00    +0.000 C 
ATOM     27  O   UNL     1       7.725   5.212  14.899  0.00  0.00    +0.000 OA
ATOM     28  N   UNL     1       6.179   3.552  15.060  0.00  0.00    +0.000 N 
ATOM     29  H   UNL     1       5.483   3.010  15.563  0.00  0.00    +0.000 HD
BRANCH  28  30
ATOM     30  O   UNL     1       6.279   3.352  13.666  0.00  0.00    +0.000 OA
ATOM     31  H   UNL     1       5.886   4.177  13.306  0.00  0.00    +0.000 HD
ENDBRANCH  28  30
ENDBRANCH   1  26
TORSDOF 7
ENDMDL
MODEL 3
REMARK VINA RESULT:      -7.8      4.044      5.869
REMARK  Name = 
REMARK  7 active torsions:
REMARK  status: ('A' for Active; 'I' for Inactive)
REMARK    1  A    between atoms: N_1  and  C_2
REMARK    2  A    between atoms: C_6  and  C_7
REMARK    3  A    between atoms: N_9  and  C_10
REMARK    4  A    between atoms: C_10  and  C_11
REMARK    5  A    between atoms: C_10  and  C_15
REMARK    6  A    between atoms: N_13  and  O_14
REMARK    7  A    between atoms: C_18  and  N_19
REMARK                            x       y       z     vdW  Elec       q    Type
REMARK                         _______ _______ _______ _____ _____    ______ ____
ROOT
ATOM      1  C   UNL     1       1.189   9.165  20.344  0.00  0.00    +0.000 C 
ENDROOT
BRANCH   1   2
ATOM      2  C   UNL     1       1.711   7.782  19.993  0.00  0.00    +0.000 A 
ATOM      3  C   UNL     1       2.409   7.572  18.794  0.00  0.00    +0.000 A 
ATOM      4  C   UNL     1       2.895   6.302  18.458  0.00  0.00    +0.000 A 
ATOM      5  C   UNL     1       2.677   5.216  19.313  0.00  0.00    +0.000 A 
ATOM      6  C   UNL     1       1.991   5.420  20.518  0.00  0.00    +0.000 A 
ATOM      7  C   UNL     1       1.517   6.692  20.855  0.00  0.00    +0.000 A 
BRANCH   5   8
ATOM      8  N   UNL     1       3.115   3.905  18.969  0.00  0.00    +0.000 N 
ATOM      9  C   UNL     1       2.982   3.252  17.759  0.00  0.00    +0.000 A 
ATOM     10  C   UNL     1       3.503   1.990  17.918  0.00  0.00    +0.000 A 
ATOM     11  C   UNL     1       3.948   1.959  19.246  0.00  0.00    +0.000 A 
ATOM     12  N   UNL     1       3.737   3.111  19.882  0.00  0.00    +0.000 NA
ENDBRANCH   5   8
ENDBRANCH   1   2
BRANCH   1  15
ATOM     13  C   UNL     1      -0.228  10.507  18.810  0.00  0.00    +0.000 C 
ATOM     14  O   UNL     1       0.686  11.274  18.524  0.00  0.00    +0.000 OA
ATOM     15  N   UNL     1      -0.070   9.445  19.665  0.00  0.00    +0.000 N 
ATOM     16  H   UNL     1      -0.824   8.792  19.835  0.00  0.00    +0.000 HD
BRANCH  13  21
ATOM     17  C   UNL     1      -3.765  11.772  18.145  0.00  0.00    +0.000 A 
ATOM     18  C   UNL     1      -4.103  10.981  17.045  0.00  0.00    +0.000 A 
ATOM     19  C   UNL     1      -3.173  10.098  16.490  0.00  0.00    +0.000 A 
ATOM     20  C   UNL     1      -1.909   9.964  17.067  0.00  0.00    +0.000 A 
ATOM     21  C   UNL     1      -1.583  10.694  18.216  0.00  0.00    +0.000 A 
ATOM     22  C   UNL     1      -2.520  11.589  18.755  0.00  0.00    +0.000 A 
BRANCH  17  23
ATOM     23  N   UNL     1      -4.739  12.573  18.757  0.00  0.00    +0.000 N 
ATOM     24  H   UNL     1      -5.692  12.316  18.519  0.00  0.00    +0.000 HD
ATOM     25  H   UNL     1      -4.578  13.571  18.661  0.00  0.00    +0.000 HD
ENDBRANCH  17  23
ENDBRANCH  13  21
ENDBRANCH   1  15
BRANCH   1  26
ATOM     26  C   UNL     1       0.961   9.317  21.863  0.00  0.00    +0.000 C 
ATOM     27  O   UNL     1       1.877   9.476  22.674  0.00  0.00    +0.000 OA
ATOM     28  N   UNL     1      -0.350   9.261  22.267  0.00  0.00    +0.000 N 
ATOM     29  H   UNL     1      -1.145   9.065  21.667  0.00  0.00    +0.000 HD
BRANCH  28  30
ATOM     30  O   UNL     1      -0.594   9.381  23.653  0.00  0.00    +0.000 OA
ATOM     31  H   UNL     1      -0.855   8.467  23.902  0.00  0.00    +0.000 HD
ENDBRANCH  28  30
ENDBRANCH   1  26
TORSDOF 7
ENDMDL
MODEL 4
REMARK VINA RESULT:      -7.8      4.605      6.639
REMARK  Name = 
REMARK  7 active torsions:
REMARK  status: ('A' for Active; 'I' for Inactive)
REMARK    1  A    between atoms: N_1  and  C_2
REMARK    2  A    between atoms: C_6  and  C_7
REMARK    3  A    between atoms: N_9  and  C_10
REMARK    4  A    between atoms: C_10  and  C_11
REMARK    5  A    between atoms: C_10  and  C_15
REMARK    6  A    between atoms: N_13  and  O_14
REMARK    7  A    between atoms: C_18  and  N_19
REMARK                            x       y       z     vdW  Elec       q    Type
REMARK                         _______ _______ _______ _____ _____    ______ ____
ROOT
ATOM      1  C   UNL     1       6.571   5.301  17.068  0.00  0.00    +0.000 C 
ENDROOT
BRANCH   1   2
ATOM      2  C   UNL     1       7.210   6.582  17.576  0.00  0.00    +0.000 A 
ATOM      3  C   UNL     1       6.928   7.809  16.956  0.00  0.00    +0.000 A 
ATOM      4  C   UNL     1       7.510   8.997  17.414  0.00  0.00    +0.000 A 
ATOM      5  C   UNL     1       8.400   8.974  18.495  0.00  0.00    +0.000 A 
ATOM      6  C   UNL     1       8.678   7.754  19.126  0.00  0.00    +0.000 A 
ATOM      7  C   UNL     1       8.086   6.572  18.673  0.00  0.00    +0.000 A 
BRANCH   5   8
ATOM      8  N   UNL     1       9.046  10.161  18.945  0.00  0.00    +0.000 N 
ATOM      9  C   UNL     1       9.563  11.191  18.184  0.00  0.00    +0.000 A 
ATOM     10  C   UNL     1      10.138  12.089  19.051  0.00  0.00    +0.000 A 
ATOM     11  C   UNL     1       9.915  11.542  20.321  0.00  0.00    +0.000 A 
ATOM     12  N   UNL     1       9.243  10.392  20.271  0.00  0.00    +0.000 NA
ENDBRANCH   5   8
ENDBRANCH   1   2
BRANCH   1  15
ATOM     13  C   UNL     1       5.007   4.370  18.756  0.00  0.00    +0.000 C 
ATOM     14  O   UNL     1       5.907   3.838  19.398  0.00  0.00    +0.000 OA
ATOM     15  N   UNL     1       5.237   5.115  17.627  0.00  0.00    +0.000 N 
ATOM     16  H   UNL     1       4.482   5.593  17.152  0.00  0.00    +0.000 HD
BRANCH  13  21
ATOM     17  C   UNL     1       1.460   3.051  19.236  0.00  0.00    +0.000 A 
ATOM     18  C   UNL     1       0.936   4.054  20.053  0.00  0.00    +0.000 A 
ATOM     19  C   UNL     1       1.743   5.107  20.492  0.00  0.00    +0.000 A 
ATOM     20  C   UNL     1       3.071   5.191  20.074  0.00  0.00    +0.000 A 
ATOM     21  C   UNL     1       3.588   4.233  19.192  0.00  0.00    +0.000 A 
ATOM     22  C   UNL     1       2.773   3.171  18.770  0.00  0.00    +0.000 A 
BRANCH  17  23
ATOM     23  N   UNL     1       0.615   2.060  18.715  0.00  0.00    +0.000 N 
ATOM     24  H   UNL     1       0.195   1.466  19.422  0.00  0.00    +0.000 HD
ATOM     25  H   UNL     1       1.024   1.521  17.958  0.00  0.00    +0.000 HD
ENDBRANCH  17  23
ENDBRANCH  13  21
ENDBRANCH   1  15
BRANCH   1  26
ATOM     26  C   UNL     1       6.451   5.299  15.529  0.00  0.00    +0.000 C 
ATOM     27  O   UNL     1       5.371   5.288  14.932  0.00  0.00    +0.000 OA
ATOM     28  N   UNL     1       7.643   5.308  14.848  0.00  0.00    +0.000 N 
ATOM     29  H   UNL     1       8.565   5.248  15.270  0.00  0.00    +0.000 HD
BRANCH  28  30
ATOM     30  O   UNL     1       7.571   5.290  13.437  0.00  0.00    +0.000 OA
ATOM     31  H   UNL     1       8.516   5.237  13.177  0.00  0.00    +0.000 HD
ENDBRANCH  28  30
ENDBRANCH   1  26
TORSDOF 7
ENDMDL
MODEL 5
REMARK VINA RESULT:      -7.7      2.442      8.124
REMARK  Name = 
REMARK  7 active torsions:
REMARK  status: ('A' for Active; 'I' for Inactive)
REMARK    1  A    between atoms: N_1  and  C_2
REMARK    2  A    between atoms: C_6  and  C_7
REMARK    3  A    between atoms: N_9  and  C_10
REMARK    4  A    between atoms: C_10  and  C_11
REMARK    5  A    between atoms: C_10  and  C_15
REMARK    6  A    between atoms: N_13  and  O_14
REMARK    7  A    between atoms: C_18  and  N_19
REMARK                            x       y       z     vdW  Elec       q    Type
REMARK                         _______ _______ _______ _____ _____    ______ ____
ROOT
ATOM      1  C   UNL     1       4.359   4.841  17.982  0.00  0.00    +0.000 C 
ENDROOT
BRANCH   1   2
ATOM      2  C   UNL     1       3.542   6.080  18.309  0.00  0.00    +0.000 A 
ATOM      3  C   UNL     1       3.508   7.161  17.416  0.00  0.00    +0.000 A 
ATOM      4  C   UNL     1       2.759   8.309  17.705  0.00  0.00    +0.000 A 
ATOM      5  C   UNL     1       2.044   8.399  18.905  0.00  0.00    +0.000 A 
ATOM      6  C   UNL     1       2.065   7.319  19.797  0.00  0.00    +0.000 A 
ATOM      7  C   UNL     1       2.804   6.169  19.499  0.00  0.00    +0.000 A 
BRANCH   5   8
ATOM      8  N   UNL     1       1.318   9.576  19.246  0.00  0.00    +0.000 N 
ATOM      9  C   UNL     1       1.337  10.803  18.611  0.00  0.00    +0.000 A 
ATOM     10  C   UNL     1       0.525  11.647  19.330  0.00  0.00    +0.000 A 
ATOM     11  C   UNL     1       0.035  10.854  20.377  0.00  0.00    +0.000 A 
ATOM     12  N   UNL     1       0.492   9.602  20.326  0.00  0.00    +0.000 NA
ENDBRANCH   5   8
ENDBRANCH   1   2
BRANCH   1  15
ATOM     13  C   UNL     1       5.331   3.864  15.917  0.00  0.00    +0.000 C 
ATOM     14  O   UNL     1       5.079   2.713  16.260  0.00  0.00    +0.000 OA
ATOM     15  N   UNL     1       5.000   4.957  16.677  0.00  0.00    +0.000 N 
ATOM     16  H   UNL     1       5.164   5.898  16.342  0.00  0.00    +0.000 HD
BRANCH  13  21
ATOM     17  C   UNL     1       7.802   5.135  13.302  0.00  0.00    +0.000 A 
ATOM     18  C   UNL     1       7.240   4.584  12.149  0.00  0.00    +0.000 A 
ATOM     19  C   UNL     1       6.114   3.761  12.230  0.00  0.00    +0.000 A 
ATOM     20  C   UNL     1       5.510   3.523  13.465  0.00  0.00    +0.000 A 
ATOM     21  C   UNL     1       6.017   4.131  14.621  0.00  0.00    +0.000 A 
ATOM     22  C   UNL     1       7.157   4.944  14.530  0.00  0.00    +0.000 A 
BRANCH  17  23
ATOM     23  N   UNL     1       8.864   6.044  13.199  0.00  0.00    +0.000 N 
ATOM     24  H   UNL     1       9.770   5.643  13.416  0.00  0.00    +0.000 HD
ATOM     25  H   UNL     1       8.709   6.922  13.685  0.00  0.00    +0.000 HD
ENDBRANCH  17  23
ENDBRANCH  13  21
ENDBRANCH   1  15
BRANCH   1  26
ATOM     26  C   UNL     1       5.458   4.591  19.037  0.00  0.00    +0.000 C 
ATOM     27  O   UNL     1       5.504   3.578  19.741  0.00  0.00    +0.000 OA
ATOM     28  N   UNL     1       6.400   5.583  19.150  0.00  0.00    +0.000 N 
ATOM     29  H   UNL     1       6.386   6.469  18.654  0.00  0.00    +0.000 HD
BRANCH  28  30
ATOM     30  O   UNL     1       7.411   5.393  20.117  0.00  0.00    +0.000 OA
ATOM     31  H   UNL     1       7.016   5.802  20.918  0.00  0.00    +0.000 HD
ENDBRANCH  28  30
ENDBRANCH   1  26
TORSDOF 7
ENDMDL
MODEL 6
REMARK VINA RESULT:      -7.6      4.133      5.806
REMARK  Name = 
REMARK  7 active torsions:
REMARK  status: ('A' for Active; 'I' for Inactive)
REMARK    1  A    between atoms: N_1  and  C_2
REMARK    2  A    between atoms: C_6  and  C_7
REMARK    3  A    between atoms: N_9  and  C_10
REMARK    4  A    between atoms: C_10  and  C_11
REMARK    5  A    between atoms: C_10  and  C_15
REMARK    6  A    between atoms: N_13  and  O_14
REMARK    7  A    between atoms: C_18  and  N_19
REMARK                            x       y       z     vdW  Elec       q    Type
REMARK                         _______ _______ _______ _____ _____    ______ ____
ROOT
ATOM      1  C   UNL     1       1.204   9.153  20.325  0.00  0.00    +0.000 C 
ENDROOT
BRANCH   1   2
ATOM      2  C   UNL     1       1.708   7.760  19.984  0.00  0.00    +0.000 A 
ATOM      3  C   UNL     1       2.429   7.539  18.801  0.00  0.00    +0.000 A 
ATOM      4  C   UNL     1       2.899   6.261  18.474  0.00  0.00    +0.000 A 
ATOM      5  C   UNL     1       2.640   5.177  19.321  0.00  0.00    +0.000 A 
ATOM      6  C   UNL     1       1.929   5.393  20.510  0.00  0.00    +0.000 A 
ATOM      7  C   UNL     1       1.472   6.673  20.838  0.00  0.00    +0.000 A 
BRANCH   5   8
ATOM      8  N   UNL     1       3.061   3.859  18.985  0.00  0.00    +0.000 N 
ATOM      9  C   UNL     1       2.706   3.106  17.882  0.00  0.00    +0.000 A 
ATOM     10  C   UNL     1       3.312   1.880  18.013  0.00  0.00    +0.000 A 
ATOM     11  C   UNL     1       4.031   1.971  19.213  0.00  0.00    +0.000 A 
ATOM     12  N   UNL     1       3.902   3.163  19.796  0.00  0.00    +0.000 NA
ENDBRANCH   5   8
ENDBRANCH   1   2
BRANCH   1  15
ATOM     13  C   UNL     1      -0.170  10.554  18.805  0.00  0.00    +0.000 C 
ATOM     14  O   UNL     1       0.748  11.335  18.581  0.00  0.00    +0.000 OA
ATOM     15  N   UNL     1      -0.035   9.457  19.619  0.00  0.00    +0.000 N 
ATOM     16  H   UNL     1      -0.791   8.795  19.737  0.00  0.00    +0.000 HD
BRANCH  13  21
ATOM     17  C   UNL     1      -3.128  10.382  16.400  0.00  0.00    +0.000 A 
ATOM     18  C   UNL     1      -4.033  11.207  17.070  0.00  0.00    +0.000 A 
ATOM     19  C   UNL     1      -3.710  11.757  18.313  0.00  0.00    +0.000 A 
ATOM     20  C   UNL     1      -2.453  11.525  18.873  0.00  0.00    +0.000 A 
ATOM     21  C   UNL     1      -1.507  10.762  18.177  0.00  0.00    +0.000 A 
ATOM     22  C   UNL     1      -1.848  10.202  16.937  0.00  0.00    +0.000 A 
BRANCH  17  23
ATOM     23  N   UNL     1      -3.420   9.924  15.108  0.00  0.00    +0.000 N 
ATOM     24  H   UNL     1      -2.770   9.226  14.763  0.00  0.00    +0.000 HD
ATOM     25  H   UNL     1      -3.581  10.664  14.431  0.00  0.00    +0.000 HD
ENDBRANCH  17  23
ENDBRANCH  13  21
ENDBRANCH   1  15
BRANCH   1  26
ATOM     26  C   UNL     1       0.945   9.307  21.839  0.00  0.00    +0.000 C 
ATOM     27  O   UNL     1       1.845   9.460  22.669  0.00  0.00    +0.000 OA
ATOM     28  N   UNL     1      -0.375   9.261  22.216  0.00  0.00    +0.000 N 
ATOM     29  H   UNL     1      -1.158   9.070  21.599  0.00  0.00    +0.000 HD
BRANCH  28  30
ATOM     30  O   UNL     1      -0.646   9.383  23.596  0.00  0.00    +0.000 OA
ATOM     31  H   UNL     1      -1.279  10.133  23.622  0.00  0.00    +0.000 HD
ENDBRANCH  28  30
ENDBRANCH   1  26
TORSDOF 7
ENDMDL
MODEL 7
REMARK VINA RESULT:      -7.6      4.491      6.618
REMARK  Name = 
REMARK  7 active torsions:
REMARK  status: ('A' for Active; 'I' for Inactive)
REMARK    1  A    between atoms: N_1  and  C_2
REMARK    2  A    between atoms: C_6  and  C_7
REMARK    3  A    between atoms: N_9  and  C_10
REMARK    4  A    between atoms: C_10  and  C_11
REMARK    5  A    between atoms: C_10  and  C_15
REMARK    6  A    between atoms: N_13  and  O_14
REMARK    7  A    between atoms: C_18  and  N_19
REMARK                            x       y       z     vdW  Elec       q    Type
REMARK                         _______ _______ _______ _____ _____    ______ ____
ROOT
ATOM      1  C   UNL     1       6.821   4.742  17.142  0.00  0.00    +0.000 C 
ENDROOT
BRANCH   1   2
ATOM      2  C   UNL     1       7.334   6.109  17.564  0.00  0.00    +0.000 A 
ATOM      3  C   UNL     1       8.105   6.246  18.729  0.00  0.00    +0.000 A 
ATOM      4  C   UNL     1       8.584   7.499  19.130  0.00  0.00    +0.000 A 
ATOM      5  C   UNL     1       8.285   8.641  18.378  0.00  0.00    +0.000 A 
ATOM      6  C   UNL     1       7.525   8.510  17.208  0.00  0.00    +0.000 A 
ATOM      7  C   UNL     1       7.058   7.255  16.804  0.00  0.00    +0.000 A 
BRANCH   5   8
ATOM      8  N   UNL     1       8.716   9.934  18.794  0.00  0.00    +0.000 N 
ATOM      9  C   UNL     1       8.728  11.105  18.060  0.00  0.00    +0.000 A 
ATOM     10  C   UNL     1       9.281  12.078  18.857  0.00  0.00    +0.000 A 
ATOM     11  C   UNL     1       9.563  11.425  20.064  0.00  0.00    +0.000 A 
ATOM     12  N   UNL     1       9.211  10.140  20.043  0.00  0.00    +0.000 NA
ENDBRANCH   5   8
ENDBRANCH   1   2
BRANCH   1  15
ATOM     13  C   UNL     1       5.023   4.049  18.706  0.00  0.00    +0.000 C 
ATOM     14  O   UNL     1       5.815   3.729  19.586  0.00  0.00    +0.000 OA
ATOM     15  N   UNL     1       5.418   4.568  17.499  0.00  0.00    +0.000 N 
ATOM     16  H   UNL     1       4.741   4.880  16.815  0.00  0.00    +0.000 HD
BRANCH  13  21
ATOM     17  C   UNL     1       1.632   3.384  20.325  0.00  0.00    +0.000 A 
ATOM     18  C   UNL     1       0.793   3.616  19.234  0.00  0.00    +0.000 A 
ATOM     19  C   UNL     1       1.316   4.044  18.011  0.00  0.00    +0.000 A 
ATOM     20  C   UNL     1       2.695   4.195  17.857  0.00  0.00    +0.000 A 
ATOM     21  C   UNL     1       3.555   3.891  18.920  0.00  0.00    +0.000 A 
ATOM     22  C   UNL     1       3.017   3.477  20.148  0.00  0.00    +0.000 A 
BRANCH  17  23
ATOM     23  N   UNL     1       1.108   2.853  21.512  0.00  0.00    +0.000 N 
ATOM     24  H   UNL     1       0.860   3.555  22.202  0.00  0.00    +0.000 HD
ATOM     25  H   UNL     1       1.663   2.103  21.913  0.00  0.00    +0.000 HD
ENDBRANCH  17  23
ENDBRANCH  13  21
ENDBRANCH   1  15
BRANCH   1  26
ATOM     26  C   UNL     1       6.959   4.531  15.619  0.00  0.00    +0.000 C 
ATOM     27  O   UNL     1       7.731   5.183  14.910  0.00  0.00    +0.000 OA
ATOM     28  N   UNL     1       6.153   3.554  15.087  0.00  0.00    +0.000 N 
ATOM     29  H   UNL     1       5.449   3.028  15.596  0.00  0.00    +0.000 HD
BRANCH  28  30
ATOM     30  O   UNL     1       6.242   3.345  13.693  0.00  0.00    +0.000 OA
ATOM     31  H   UNL     1       6.942   2.660  13.627  0.00  0.00    +0.000 HD
ENDBRANCH  28  30
ENDBRANCH   1  26
TORSDOF 7
ENDMDL
MODEL 8
REMARK VINA RESULT:      -7.6      3.132      8.376
REMARK  Name = 
REMARK  7 active torsions:
REMARK  status: ('A' for Active; 'I' for Inactive)
REMARK    1  A    between atoms: N_1  and  C_2
REMARK    2  A    between atoms: C_6  and  C_7
REMARK    3  A    between atoms: N_9  and  C_10
REMARK    4  A    between atoms: C_10  and  C_11
REMARK    5  A    between atoms: C_10  and  C_15
REMARK    6  A    between atoms: N_13  and  O_14
REMARK    7  A    between atoms: C_18  and  N_19
REMARK                            x       y       z     vdW  Elec       q    Type
REMARK                         _______ _______ _______ _____ _____    ______ ____
ROOT
ATOM      1  C   UNL     1       5.414   5.313  17.947  0.00  0.00    +0.000 C 
ENDROOT
BRANCH   1   2
ATOM      2  C   UNL     1       4.270   6.275  18.218  0.00  0.00    +0.000 A 
ATOM      3  C   UNL     1       4.027   7.349  17.347  0.00  0.00    +0.000 A 
ATOM      4  C   UNL     1       2.977   8.244  17.585  0.00  0.00    +0.000 A 
ATOM      5  C   UNL     1       2.158   8.087  18.710  0.00  0.00    +0.000 A 
ATOM      6  C   UNL     1       2.387   7.010  19.577  0.00  0.00    +0.000 A 
ATOM      7  C   UNL     1       3.430   6.112  19.331  0.00  0.00    +0.000 A 
BRANCH   5   8
ATOM      8  N   UNL     1       1.117   9.013  19.001  0.00  0.00    +0.000 N 
ATOM      9  C   UNL     1       0.657   9.416  20.241  0.00  0.00    +0.000 A 
ATOM     10  C   UNL     1      -0.393  10.276  20.026  0.00  0.00    +0.000 A 
ATOM     11  C   UNL     1      -0.500  10.358  18.631  0.00  0.00    +0.000 A 
ATOM     12  N   UNL     1       0.416   9.617  18.005  0.00  0.00    +0.000 NA
ENDBRANCH   5   8
ENDBRANCH   1   2
BRANCH   1  15
ATOM     13  C   UNL     1       6.766   4.584  15.997  0.00  0.00    +0.000 C 
ATOM     14  O   UNL     1       7.703   4.215  16.697  0.00  0.00    +0.000 OA
ATOM     15  N   UNL     1       5.609   5.109  16.517  0.00  0.00    +0.000 N 
ATOM     16  H   UNL     1       4.828   5.349  15.920  0.00  0.00    +0.000 HD
BRANCH  13  21
ATOM     17  C   UNL     1       6.130   3.500  12.395  0.00  0.00    +0.000 A 
ATOM     18  C   UNL     1       7.050   4.312  11.730  0.00  0.00    +0.000 A 
ATOM     19  C   UNL     1       7.817   5.243  12.436  0.00  0.00    +0.000 A 
ATOM     20  C   UNL     1       7.705   5.331  13.824  0.00  0.00    +0.000 A 
ATOM     21  C   UNL     1       6.842   4.468  14.513  0.00  0.00    +0.000 A 
ATOM     22  C   UNL     1       6.065   3.548  13.792  0.00  0.00    +0.000 A 
BRANCH  17  23
ATOM     23  N   UNL     1       5.445   2.497  11.693  0.00  0.00    +0.000 N 
ATOM     24  H   UNL     1       6.033   1.964  11.061  0.00  0.00    +0.000 HD
ATOM     25  H   UNL     1       4.591   2.813  11.243  0.00  0.00    +0.000 HD
ENDBRANCH  17  23
ENDBRANCH  13  21
ENDBRANCH   1  15
BRANCH   1  26
ATOM     26  C   UNL     1       6.741   5.827  18.546  0.00  0.00    +0.000 C 
ATOM     27  O   UNL     1       7.307   6.853  18.159  0.00  0.00    +0.000 OA
ATOM     28  N   UNL     1       7.266   5.057  19.554  0.00  0.00    +0.000 N 
ATOM     29  H   UNL     1       6.893   4.169  19.875  0.00  0.00    +0.000 HD
BRANCH  28  30
ATOM     30  O   UNL     1       8.489   5.490  20.113  0.00  0.00    +0.000 OA
ATOM     31  H   UNL     1       8.301   6.428  20.332  0.00  0.00    +0.000 HD
ENDBRANCH  28  30
ENDBRANCH   1  26
TORSDOF 7
ENDMDL
MODEL 9
REMARK VINA RESULT:      -7.6      1.065      1.443
REMARK  Name = 
REMARK  7 active torsions:
REMARK  status: ('A' for Active; 'I' for Inactive)
REMARK    1  A    between atoms: N_1  and  C_2
REMARK    2  A    between atoms: C_6  and  C_7
REMARK    3  A    between atoms: N_9  and  C_10
REMARK    4  A    between atoms: C_10  and  C_11
REMARK    5  A    between atoms: C_10  and  C_15
REMARK    6  A    between atoms: N_13  and  O_14
REMARK    7  A    between atoms: C_18  and  N_19
REMARK                            x       y       z     vdW  Elec       q    Type
REMARK                         _______ _______ _______ _____ _____    ______ ____
ROOT
ATOM      1  C   UNL     1       3.086   5.595  19.108  0.00  0.00    +0.000 C 
ENDROOT
BRANCH   1   2
ATOM      2  C   UNL     1       3.944   5.373  17.874  0.00  0.00    +0.000 A 
ATOM      3  C   UNL     1       4.362   6.464  17.097  0.00  0.00    +0.000 A 
ATOM      4  C   UNL     1       5.153   6.274  15.957  0.00  0.00    +0.000 A 
ATOM      5  C   UNL     1       5.527   4.983  15.567  0.00  0.00    +0.000 A 
ATOM      6  C   UNL     1       5.123   3.889  16.345  0.00  0.00    +0.000 A 
ATOM      7  C   UNL     1       4.343   4.083  17.488  0.00  0.00    +0.000 A 
BRANCH   5   8
ATOM      8  N   UNL     1       6.287   4.759  14.383  0.00  0.00    +0.000 N 
ATOM      9  C   UNL     1       6.045   3.845  13.376  0.00  0.00    +0.000 A 
ATOM     10  C   UNL     1       7.074   3.954  12.471  0.00  0.00    +0.000 A 
ATOM     11  C   UNL     1       7.891   4.967  12.990  0.00  0.00    +0.000 A 
ATOM     12  N   UNL     1       7.417   5.471  14.130  0.00  0.00    +0.000 NA
ENDBRANCH   5   8
ENDBRANCH   1   2
BRANCH   1  15
ATOM     13  C   UNL     1       1.814   7.426  20.199  0.00  0.00    +0.000 C 
ATOM     14  O   UNL     1       1.622   6.777  21.222  0.00  0.00    +0.000 OA
ATOM     15  N   UNL     1       2.530   6.942  19.133  0.00  0.00    +0.000 N 
ATOM     16  H   UNL     1       2.725   7.521  18.326  0.00  0.00    +0.000 HD
BRANCH  13  21
ATOM     17  C   UNL     1       0.269  10.819  21.011  0.00  0.00    +0.000 A 
ATOM     18  C   UNL     1       0.272  11.397  19.741  0.00  0.00    +0.000 A 
ATOM     19  C   UNL     1       0.827  10.720  18.652  0.00  0.00    +0.000 A 
ATOM     20  C   UNL     1       1.338   9.432  18.818  0.00  0.00    +0.000 A 
ATOM     21  C   UNL     1       1.272   8.809  20.071  0.00  0.00    +0.000 A 
ATOM     22  C   UNL     1       0.727   9.505  21.160  0.00  0.00    +0.000 A 
BRANCH  17  23
ATOM     23  N   UNL     1      -0.385  11.461  22.072  0.00  0.00    +0.000 N 
ATOM     24  H   UNL     1      -0.298  10.979  22.960  0.00  0.00    +0.000 HD
ATOM     25  H   UNL     1      -1.346  11.721  21.872  0.00  0.00    +0.000 HD
ENDBRANCH  17  23
ENDBRANCH  13  21
ENDBRANCH   1  15
BRANCH   1  26
ATOM     26  C   UNL     1       1.915   4.590  19.173  0.00  0.00    +0.000 C 
ATOM     27  O   UNL     1       1.179   4.343  18.214  0.00  0.00    +0.000 OA
ATOM     28  N   UNL     1       1.737   3.976  20.388  0.00  0.00    +0.000 N 
ATOM     29  H   UNL     1       2.258   4.180  21.235  0.00  0.00    +0.000 HD
BRANCH  28  30
ATOM     30  O   UNL     1       0.664   3.062  20.487  0.00  0.00    +0.000 OA
ATOM     31  H   UNL     1       0.000   3.448  19.875  0.00  0.00    +0.000 HD
ENDBRANCH  28  30
ENDBRANCH   1  26
TORSDOF 7
ENDMDL
