MODEL 1
REMARK VINA RESULT:      -8.5      0.000      0.000
REMARK  Name = 
REMARK  5 active torsions:
REMARK  status: ('A' for Active; 'I' for Inactive)
REMARK    1  A    between atoms: C_1  and  C_2
REMARK    2  A    between atoms: N_4  and  C_5
REMARK    3  A    between atoms: C_20  and  C_22
REMARK    4  A    between atoms: C_31  and  C_32
REMARK    5  A    between atoms: C_31  and  C_33
REMARK                            x       y       z     vdW  Elec       q    Type
REMARK                         _______ _______ _______ _____ _____    ______ ____
ROOT
ATOM      1  C   UNL     1      -1.191  14.549  24.221  0.00  0.00    +0.000 C 
ATOM      2  C   UNL     1      -1.551  14.894  22.768  0.00  0.00    +0.000 C 
ATOM      3  C   UNL     1      -1.327  16.453  22.648  0.00  0.00    +0.000 C 
ATOM      4  N   UNL     1      -1.539  17.046  21.310  0.00  0.00    +0.000 NA
ATOM      5  C   UNL     1      -1.290  18.490  21.345  0.00  0.00    +0.000 C 
ATOM      6  C   UNL     1      -0.730  16.324  20.312  0.00  0.00    +0.000 C 
ATOM      7  C   UNL     1      -1.006  16.775  18.840  0.00  0.00    +0.000 C 
ATOM      8  C   UNL     1       0.291  17.402  18.336  0.00  0.00    +0.000 C 
ATOM      9  C   UNL     1       1.363  16.614  19.058  0.00  0.00    +0.000 C 
ATOM     10  C   UNL     1       0.808  16.528  20.477  0.00  0.00    +0.000 C 
ATOM     11  C   UNL     1      -1.117  14.819  20.403  0.00  0.00    +0.000 C 
ATOM     12  N   UNL     1      -0.853  14.150  21.661  0.00  0.00    +0.000 N 
ATOM     13  C   UNL     1      -0.570  12.779  21.754  0.00  0.00    +0.000 C 
ATOM     14  O   UNL     1      -0.758  12.191  22.825  0.00  0.00    +0.000 OA
ATOM     15  N   UNL     1      -0.028  12.023  20.697  0.00  0.00    +0.000 N 
ATOM     16  C   UNL     1       0.343  10.581  21.085  0.00  0.00    +0.000 C 
ATOM     17  C   UNL     1       1.067  10.095  19.897  0.00  0.00    +0.000 A 
ATOM     18  C   UNL     1       1.696   9.009  19.252  0.00  0.00    +0.000 A 
ATOM     19  N   UNL     1       1.838   7.719  19.686  0.00  0.00    +0.000 N 
ATOM     20  C   UNL     1       2.405   6.724  18.901  0.00  0.00    +0.000 C 
ATOM     21  O   UNL     1       2.781   6.802  17.732  0.00  0.00    +0.000 OA
ATOM     22  N   UNL     1       2.187   9.394  18.058  0.00  0.00    +0.000 NA
ATOM     23  N   UNL     1       1.869  10.674  17.925  0.00  0.00    +0.000 N 
ATOM     24  C   UNL     1       1.202  11.103  19.007  0.00  0.00    +0.000 A 
ATOM     25  C   UNL     1       0.612  12.392  19.354  0.00  0.00    +0.000 C 
ATOM     26  C   UNL     1      -0.344  12.671  18.148  0.00  0.00    +0.000 C 
ATOM     27  C   UNL     1       1.796  13.319  19.571  0.00  0.00    +0.000 C 
ATOM     28  H   UNL     1       1.541   7.459  20.621  0.00  0.00    +0.000 HD
ATOM     29  H   UNL     1       2.128  11.159  17.075  0.00  0.00    +0.000 HD
ENDROOT
BRANCH  20  30
ATOM     30  C   UNL     1       2.545   5.413  19.583  0.00  0.00    +0.000 A 
ATOM     31  C   UNL     1       1.665   5.099  20.616  0.00  0.00    +0.000 A 
ATOM     32  C   UNL     1       1.790   3.862  21.228  0.00  0.00    +0.000 A 
ATOM     33  C   UNL     1       2.781   2.990  20.792  0.00  0.00    +0.000 A 
ATOM     34  C   UNL     1       3.618   3.393  19.759  0.00  0.00    +0.000 A 
ATOM     35  N   UNL     1       3.530   4.587  19.137  0.00  0.00    +0.000 NA
ENDBRANCH  20  30
TORSDOF 1
ENDMDL
MODEL 2
REMARK VINA RESULT:      -7.8      1.151      1.289
REMARK  Name = 
REMARK  5 active torsions:
REMARK  status: ('A' for Active; 'I' for Inactive)
REMARK    1  A    between atoms: C_1  and  C_2
REMARK    2  A    between atoms: N_4  and  C_5
REMARK    3  A    between atoms: C_20  and  C_22
REMARK    4  A    between atoms: C_31  and  C_32
REMARK    5  A    between atoms: C_31  and  C_33
REMARK                            x       y       z     vdW  Elec       q    Type
REMARK                         _______ _______ _______ _____ _____    ______ ____
ROOT
ATOM      1  C   UNL     1      -2.840  13.455  24.130  0.00  0.00    +0.000 C 
ATOM      2  C   UNL     1      -2.867  14.133  22.752  0.00  0.00    +0.000 C 
ATOM      3  C   UNL     1      -2.739  15.678  23.050  0.00  0.00    +0.000 C 
ATOM      4  N   UNL     1      -2.668  16.571  21.873  0.00  0.00    +0.000 NA
ATOM      5  C   UNL     1      -2.544  17.969  22.298  0.00  0.00    +0.000 C 
ATOM      6  C   UNL     1      -1.592  16.123  20.972  0.00  0.00    +0.000 C 
ATOM      7  C   UNL     1      -1.542  16.908  19.621  0.00  0.00    +0.000 C 
ATOM      8  C   UNL     1      -0.212  17.659  19.614  0.00  0.00    +0.000 C 
ATOM      9  C   UNL     1       0.712  16.737  20.381  0.00  0.00    +0.000 C 
ATOM     10  C   UNL     1      -0.158  16.305  21.558  0.00  0.00    +0.000 C 
ATOM     11  C   UNL     1      -1.876  14.633  20.617  0.00  0.00    +0.000 C 
ATOM     12  N   UNL     1      -1.871  13.687  21.714  0.00  0.00    +0.000 N 
ATOM     13  C   UNL     1      -1.517  12.338  21.559  0.00  0.00    +0.000 C 
ATOM     14  O   UNL     1      -1.912  11.508  22.386  0.00  0.00    +0.000 OA
ATOM     15  N   UNL     1      -0.683  11.866  20.528  0.00  0.00    +0.000 N 
ATOM     16  C   UNL     1      -0.309  10.380  20.656  0.00  0.00    +0.000 C 
ATOM     17  C   UNL     1       0.712  10.203  19.608  0.00  0.00    +0.000 A 
ATOM     18  C   UNL     1       1.557   9.314  18.911  0.00  0.00    +0.000 A 
ATOM     19  N   UNL     1       1.687   7.960  19.060  0.00  0.00    +0.000 N 
ATOM     20  C   UNL     1       2.498   7.192  18.237  0.00  0.00    +0.000 C 
ATOM     21  O   UNL     1       3.136   7.554  17.249  0.00  0.00    +0.000 OA
ATOM     22  N   UNL     1       2.289   9.982  17.998  0.00  0.00    +0.000 NA
ATOM     23  N   UNL     1       1.917  11.251  18.086  0.00  0.00    +0.000 N 
ATOM     24  C   UNL     1       0.981  11.397  19.034  0.00  0.00    +0.000 A 
ATOM     25  C   UNL     1       0.230  12.557  19.508  0.00  0.00    +0.000 C 
ATOM     26  C   UNL     1      -0.428  13.101  18.198  0.00  0.00    +0.000 C 
ATOM     27  C   UNL     1       1.255  13.423  20.220  0.00  0.00    +0.000 C 
ATOM     28  H   UNL     1       1.195   7.479  19.807  0.00  0.00    +0.000 HD
ATOM     29  H   UNL     1       2.334  11.930  17.461  0.00  0.00    +0.000 HD
ENDROOT
BRANCH  20  30
ATOM     30  C   UNL     1       2.568   5.757  18.614  0.00  0.00    +0.000 A 
ATOM     31  C   UNL     1       1.867   4.830  17.848  0.00  0.00    +0.000 A 
ATOM     32  C   UNL     1       1.960   3.491  18.196  0.00  0.00    +0.000 A 
ATOM     33  C   UNL     1       2.743   3.129  19.287  0.00  0.00    +0.000 A 
ATOM     34  C   UNL     1       3.401   4.126  19.996  0.00  0.00    +0.000 A 
ATOM     35  N   UNL     1       3.336   5.440  19.692  0.00  0.00    +0.000 NA
ENDBRANCH  20  30
TORSDOF 1
ENDMDL
MODEL 3
REMARK VINA RESULT:      -7.6      2.074      3.692
REMARK  Name = 
REMARK  5 active torsions:
REMARK  status: ('A' for Active; 'I' for Inactive)
REMARK    1  A    between atoms: C_1  and  C_2
REMARK    2  A    between atoms: N_4  and  C_5
REMARK    3  A    between atoms: C_20  and  C_22
REMARK    4  A    between atoms: C_31  and  C_32
REMARK    5  A    between atoms: C_31  and  C_33
REMARK                            x       y       z     vdW  Elec       q    Type
REMARK                         _______ _______ _______ _____ _____    ______ ____
ROOT
ATOM      1  C   UNL     1      -0.417  16.768  18.195  0.00  0.00    +0.000 C 
ATOM      2  C   UNL     1      -0.756  16.568  19.680  0.00  0.00    +0.000 C 
ATOM      3  C   UNL     1      -2.089  17.383  19.912  0.00  0.00    +0.000 C 
ATOM      4  N   UNL     1      -2.682  17.301  21.264  0.00  0.00    +0.000 NA
ATOM      5  C   UNL     1      -3.912  18.096  21.332  0.00  0.00    +0.000 C 
ATOM      6  C   UNL     1      -2.861  15.889  21.645  0.00  0.00    +0.000 C 
ATOM      7  C   UNL     1      -3.335  15.696  23.122  0.00  0.00    +0.000 C 
ATOM      8  C   UNL     1      -4.727  15.074  23.045  0.00  0.00    +0.000 C 
ATOM      9  C   UNL     1      -4.658  14.220  21.796  0.00  0.00    +0.000 C 
ATOM     10  C   UNL     1      -3.946  15.141  20.809  0.00  0.00    +0.000 C 
ATOM     11  C   UNL     1      -1.472  15.197  21.523  0.00  0.00    +0.000 C 
ATOM     12  N   UNL     1      -0.871  15.161  20.205  0.00  0.00    +0.000 N 
ATOM     13  C   UNL     1      -0.004  14.141  19.787  0.00  0.00    +0.000 C 
ATOM     14  O   UNL     1       0.781  14.356  18.855  0.00  0.00    +0.000 OA
ATOM     15  N   UNL     1      -0.001  12.847  20.339  0.00  0.00    +0.000 N 
ATOM     16  C   UNL     1       0.927  11.858  19.613  0.00  0.00    +0.000 C 
ATOM     17  C   UNL     1       0.585  10.566  20.234  0.00  0.00    +0.000 A 
ATOM     18  C   UNL     1       0.867   9.187  20.337  0.00  0.00    +0.000 A 
ATOM     19  N   UNL     1       1.834   8.459  19.701  0.00  0.00    +0.000 N 
ATOM     20  C   UNL     1       2.057   7.115  19.970  0.00  0.00    +0.000 C 
ATOM     21  O   UNL     1       1.515   6.412  20.822  0.00  0.00    +0.000 OA
ATOM     22  N   UNL     1       0.017   8.600  21.204  0.00  0.00    +0.000 NA
ATOM     23  N   UNL     1      -0.769   9.565  21.659  0.00  0.00    +0.000 N 
ATOM     24  C   UNL     1      -0.442  10.737  21.095  0.00  0.00    +0.000 A 
ATOM     25  C   UNL     1      -0.963  12.090  21.263  0.00  0.00    +0.000 C 
ATOM     26  C   UNL     1      -0.826  12.326  22.802  0.00  0.00    +0.000 C 
ATOM     27  C   UNL     1      -2.356  12.052  20.655  0.00  0.00    +0.000 C 
ATOM     28  H   UNL     1       2.413   8.892  18.988  0.00  0.00    +0.000 HD
ATOM     29  H   UNL     1      -1.474   9.339  22.350  0.00  0.00    +0.000 HD
ENDROOT
BRANCH  20  30
ATOM     30  C   UNL     1       3.095   6.485  19.115  0.00  0.00    +0.000 A 
ATOM     31  C   UNL     1       3.388   7.063  17.883  0.00  0.00    +0.000 A 
ATOM     32  C   UNL     1       4.376   6.479  17.106  0.00  0.00    +0.000 A 
ATOM     33  C   UNL     1       5.030   5.348  17.582  0.00  0.00    +0.000 A 
ATOM     34  C   UNL     1       4.665   4.838  18.821  0.00  0.00    +0.000 A 
ATOM     35  N   UNL     1       3.709   5.375  19.608  0.00  0.00    +0.000 NA
ENDBRANCH  20  30
TORSDOF 1
ENDMDL
MODEL 4
REMARK VINA RESULT:      -7.0      5.544      8.653
REMARK  Name = 
REMARK  5 active torsions:
REMARK  status: ('A' for Active; 'I' for Inactive)
REMARK    1  A    between atoms: C_1  and  C_2
REMARK    2  A    between atoms: N_4  and  C_5
REMARK    3  A    between atoms: C_20  and  C_22
REMARK    4  A    between atoms: C_31  and  C_32
REMARK    5  A    between atoms: C_31  and  C_33
REMARK                            x       y       z     vdW  Elec       q    Type
REMARK                         _______ _______ _______ _____ _____    ______ ____
ROOT
ATOM      1  C   UNL     1       0.579  10.738  19.042  0.00  0.00    +0.000 C 
ATOM      2  C   UNL     1      -0.142  12.093  18.980  0.00  0.00    +0.000 C 
ATOM      3  C   UNL     1      -1.381  11.946  19.949  0.00  0.00    +0.000 C 
ATOM      4  N   UNL     1      -2.219  13.150  20.132  0.00  0.00    +0.000 NA
ATOM      5  C   UNL     1      -3.321  12.871  21.057  0.00  0.00    +0.000 C 
ATOM      6  C   UNL     1      -1.375  14.288  20.533  0.00  0.00    +0.000 C 
ATOM      7  C   UNL     1      -2.147  15.647  20.597  0.00  0.00    +0.000 C 
ATOM      8  C   UNL     1      -2.127  16.081  22.060  0.00  0.00    +0.000 C 
ATOM      9  C   UNL     1      -0.801  15.549  22.562  0.00  0.00    +0.000 C 
ATOM     10  C   UNL     1      -0.760  14.148  21.960  0.00  0.00    +0.000 C 
ATOM     11  C   UNL     1      -0.268  14.449  19.450  0.00  0.00    +0.000 C 
ATOM     12  N   UNL     1       0.648  13.339  19.280  0.00  0.00    +0.000 N 
ATOM     13  C   UNL     1       1.972  13.499  18.845  0.00  0.00    +0.000 C 
ATOM     14  O   UNL     1       2.563  12.541  18.332  0.00  0.00    +0.000 OA
ATOM     15  N   UNL     1       2.703  14.692  19.001  0.00  0.00    +0.000 N 
ATOM     16  C   UNL     1       4.181  14.578  18.591  0.00  0.00    +0.000 C 
ATOM     17  C   UNL     1       4.751  15.859  19.045  0.00  0.00    +0.000 A 
ATOM     18  C   UNL     1       5.878  16.707  19.091  0.00  0.00    +0.000 A 
ATOM     19  N   UNL     1       7.120  16.512  18.555  0.00  0.00    +0.000 N 
ATOM     20  C   UNL     1       8.115  17.481  18.600  0.00  0.00    +0.000 C 
ATOM     21  O   UNL     1       8.034  18.631  19.030  0.00  0.00    +0.000 OA
ATOM     22  N   UNL     1       5.588  17.833  19.774  0.00  0.00    +0.000 NA
ATOM     23  N   UNL     1       4.317  17.727  20.136  0.00  0.00    +0.000 N 
ATOM     24  C   UNL     1       3.807  16.563  19.708  0.00  0.00    +0.000 A 
ATOM     25  C   UNL     1       2.475  15.973  19.812  0.00  0.00    +0.000 C 
ATOM     26  C   UNL     1       1.559  17.074  19.186  0.00  0.00    +0.000 C 
ATOM     27  C   UNL     1       2.309  15.640  21.286  0.00  0.00    +0.000 C 
ATOM     28  H   UNL     1       7.355  15.627  18.117  0.00  0.00    +0.000 HD
ATOM     29  H   UNL     1       3.886  18.488  20.646  0.00  0.00    +0.000 HD
ENDROOT
BRANCH  20  30
ATOM     30  C   UNL     1       9.418  17.045  18.037  0.00  0.00    +0.000 A 
ATOM     31  C   UNL     1      10.414  17.999  17.842  0.00  0.00    +0.000 A 
ATOM     32  C   UNL     1      11.634  17.576  17.339  0.00  0.00    +0.000 A 
ATOM     33  C   UNL     1      11.815  16.228  17.050  0.00  0.00    +0.000 A 
ATOM     34  C   UNL     1      10.761  15.350  17.270  0.00  0.00    +0.000 A 
ATOM     35  N   UNL     1       9.558  15.721  17.758  0.00  0.00    +0.000 NA
ENDBRANCH  20  30
TORSDOF 1
ENDMDL
MODEL 5
REMARK VINA RESULT:      -7.0      8.477     10.323
REMARK  Name = 
REMARK  5 active torsions:
REMARK  status: ('A' for Active; 'I' for Inactive)
REMARK    1  A    between atoms: C_1  and  C_2
REMARK    2  A    between atoms: N_4  and  C_5
REMARK    3  A    between atoms: C_20  and  C_22
REMARK    4  A    between atoms: C_31  and  C_32
REMARK    5  A    between atoms: C_31  and  C_33
REMARK                            x       y       z     vdW  Elec       q    Type
REMARK                         _______ _______ _______ _____ _____    ______ ____
ROOT
ATOM      1  C   UNL     1      10.166  11.729  17.886  0.00  0.00    +0.000 C 
ATOM      2  C   UNL     1      10.722  12.986  18.572  0.00  0.00    +0.000 C 
ATOM      3  C   UNL     1      10.773  14.086  17.439  0.00  0.00    +0.000 C 
ATOM      4  N   UNL     1      11.212  15.436  17.852  0.00  0.00    +0.000 NA
ATOM      5  C   UNL     1      11.204  16.350  16.706  0.00  0.00    +0.000 C 
ATOM      6  C   UNL     1      10.399  15.898  18.990  0.00  0.00    +0.000 C 
ATOM      7  C   UNL     1      10.892  17.249  19.602  0.00  0.00    +0.000 C 
ATOM      8  C   UNL     1       9.774  18.260  19.359  0.00  0.00    +0.000 C 
ATOM      9  C   UNL     1       8.520  17.416  19.435  0.00  0.00    +0.000 C 
ATOM     10  C   UNL     1       8.908  16.179  18.630  0.00  0.00    +0.000 C 
ATOM     11  C   UNL     1      10.520  14.824  20.112  0.00  0.00    +0.000 C 
ATOM     12  N   UNL     1      10.025  13.498  19.805  0.00  0.00    +0.000 N 
ATOM     13  C   UNL     1       9.511  12.629  20.779  0.00  0.00    +0.000 C 
ATOM     14  O   UNL     1       9.491  11.412  20.558  0.00  0.00    +0.000 OA
ATOM     15  N   UNL     1       8.960  13.065  21.998  0.00  0.00    +0.000 N 
ATOM     16  C   UNL     1       8.318  11.943  22.833  0.00  0.00    +0.000 C 
ATOM     17  C   UNL     1       7.647  12.680  23.918  0.00  0.00    +0.000 A 
ATOM     18  C   UNL     1       6.914  12.614  25.122  0.00  0.00    +0.000 A 
ATOM     19  N   UNL     1       6.518  11.509  25.825  0.00  0.00    +0.000 N 
ATOM     20  C   UNL     1       5.875  11.595  27.052  0.00  0.00    +0.000 C 
ATOM     21  O   UNL     1       5.636  12.604  27.715  0.00  0.00    +0.000 OA
ATOM     22  N   UNL     1       6.615  13.854  25.557  0.00  0.00    +0.000 NA
ATOM     23  N   UNL     1       7.153  14.690  24.681  0.00  0.00    +0.000 N 
ATOM     24  C   UNL     1       7.770  14.009  23.705  0.00  0.00    +0.000 A 
ATOM     25  C   UNL     1       8.528  14.436  22.532  0.00  0.00    +0.000 C 
ATOM     26  C   UNL     1       9.632  15.354  23.149  0.00  0.00    +0.000 C 
ATOM     27  C   UNL     1       7.497  15.061  21.606  0.00  0.00    +0.000 C 
ATOM     28  H   UNL     1       6.673  10.580  25.446  0.00  0.00    +0.000 HD
ATOM     29  H   UNL     1       7.065  15.687  24.835  0.00  0.00    +0.000 HD
ENDROOT
BRANCH  20  30
ATOM     30  C   UNL     1       5.453  10.287  27.614  0.00  0.00    +0.000 A 
ATOM     31  C   UNL     1       4.121   9.902  27.482  0.00  0.00    +0.000 A 
ATOM     32  C   UNL     1       3.745   8.668  27.990  0.00  0.00    +0.000 A 
ATOM     33  C   UNL     1       4.703   7.869  28.605  0.00  0.00    +0.000 A 
ATOM     34  C   UNL     1       6.006   8.341  28.696  0.00  0.00    +0.000 A 
ATOM     35  N   UNL     1       6.414   9.535  28.217  0.00  0.00    +0.000 NA
ENDBRANCH  20  30
TORSDOF 1
ENDMDL
MODEL 6
REMARK VINA RESULT:      -7.0      4.572      7.438
REMARK  Name = 
REMARK  5 active torsions:
REMARK  status: ('A' for Active; 'I' for Inactive)
REMARK    1  A    between atoms: C_1  and  C_2
REMARK    2  A    between atoms: N_4  and  C_5
REMARK    3  A    between atoms: C_20  and  C_22
REMARK    4  A    between atoms: C_31  and  C_32
REMARK    5  A    between atoms: C_31  and  C_33
REMARK                            x       y       z     vdW  Elec       q    Type
REMARK                         _______ _______ _______ _____ _____    ______ ____
ROOT
ATOM      1  C   UNL     1      -0.789  10.720  22.804  0.00  0.00    +0.000 C 
ATOM      2  C   UNL     1      -1.531  11.876  22.117  0.00  0.00    +0.000 C 
ATOM      3  C   UNL     1      -2.719  12.241  23.092  0.00  0.00    +0.000 C 
ATOM      4  N   UNL     1      -3.564  13.388  22.697  0.00  0.00    +0.000 NA
ATOM      5  C   UNL     1      -4.615  13.616  23.693  0.00  0.00    +0.000 C 
ATOM      6  C   UNL     1      -2.717  14.566  22.442  0.00  0.00    +0.000 C 
ATOM      7  C   UNL     1      -3.505  15.788  21.864  0.00  0.00    +0.000 C 
ATOM      8  C   UNL     1      -3.419  16.888  22.919  0.00  0.00    +0.000 C 
ATOM      9  C   UNL     1      -2.063  16.658  23.552  0.00  0.00    +0.000 C 
ATOM     10  C   UNL     1      -2.031  15.142  23.719  0.00  0.00    +0.000 C 
ATOM     11  C   UNL     1      -1.667  14.158  21.367  0.00  0.00    +0.000 C 
ATOM     12  N   UNL     1      -0.745  13.098  21.722  0.00  0.00    +0.000 N 
ATOM     13  C   UNL     1       0.554  13.007  21.201  0.00  0.00    +0.000 C 
ATOM     14  O   UNL     1       1.132  11.914  21.199  0.00  0.00    +0.000 OA
ATOM     15  N   UNL     1       1.275  14.112  20.711  0.00  0.00    +0.000 N 
ATOM     16  C   UNL     1       2.733  13.793  20.338  0.00  0.00    +0.000 C 
ATOM     17  C   UNL     1       3.306  15.124  20.071  0.00  0.00    +0.000 A 
ATOM     18  C   UNL     1       4.421  15.871  19.637  0.00  0.00    +0.000 A 
ATOM     19  N   UNL     1       5.639  15.422  19.206  0.00  0.00    +0.000 N 
ATOM     20  C   UNL     1       6.620  16.274  18.719  0.00  0.00    +0.000 C 
ATOM     21  O   UNL     1       6.545  17.487  18.527  0.00  0.00    +0.000 OA
ATOM     22  N   UNL     1       4.149  17.190  19.688  0.00  0.00    +0.000 NA
ATOM     23  N   UNL     1       2.899  17.292  20.118  0.00  0.00    +0.000 N 
ATOM     24  C   UNL     1       2.385  16.075  20.347  0.00  0.00    +0.000 A 
ATOM     25  C   UNL     1       1.069  15.629  20.794  0.00  0.00    +0.000 C 
ATOM     26  C   UNL     1       0.108  16.288  19.752  0.00  0.00    +0.000 C 
ATOM     27  C   UNL     1       0.979  16.069  22.246  0.00  0.00    +0.000 C 
ATOM     28  H   UNL     1       5.865  14.433  19.252  0.00  0.00    +0.000 HD
ATOM     29  H   UNL     1       2.483  18.211  20.206  0.00  0.00    +0.000 HD
ENDROOT
BRANCH  20  30
ATOM     30  C   UNL     1       7.901  15.602  18.380  0.00  0.00    +0.000 A 
ATOM     31  C   UNL     1       7.931  14.212  18.324  0.00  0.00    +0.000 A 
ATOM     32  C   UNL     1       9.126  13.598  17.984  0.00  0.00    +0.000 A 
ATOM     33  C   UNL     1      10.239  14.387  17.715  0.00  0.00    +0.000 A 
ATOM     34  C   UNL     1      10.115  15.767  17.803  0.00  0.00    +0.000 A 
ATOM     35  N   UNL     1       8.971  16.405  18.131  0.00  0.00    +0.000 NA
ENDBRANCH  20  30
TORSDOF 1
ENDMDL
MODEL 7
REMARK VINA RESULT:      -6.9      2.335      4.054
REMARK  Name = 
REMARK  5 active torsions:
REMARK  status: ('A' for Active; 'I' for Inactive)
REMARK    1  A    between atoms: C_1  and  C_2
REMARK    2  A    between atoms: N_4  and  C_5
REMARK    3  A    between atoms: C_20  and  C_22
REMARK    4  A    between atoms: C_31  and  C_32
REMARK    5  A    between atoms: C_31  and  C_33
REMARK                            x       y       z     vdW  Elec       q    Type
REMARK                         _______ _______ _______ _____ _____    ______ ____
ROOT
ATOM      1  C   UNL     1       0.039  15.427  18.125  0.00  0.00    +0.000 C 
ATOM      2  C   UNL     1       0.065  15.074  19.620  0.00  0.00    +0.000 C 
ATOM      3  C   UNL     1      -1.221  15.760  20.228  0.00  0.00    +0.000 C 
ATOM      4  N   UNL     1      -1.479  15.516  21.664  0.00  0.00    +0.000 NA
ATOM      5  C   UNL     1      -2.702  16.203  22.088  0.00  0.00    +0.000 C 
ATOM      6  C   UNL     1      -1.485  14.067  21.930  0.00  0.00    +0.000 C 
ATOM      7  C   UNL     1      -1.592  13.711  23.449  0.00  0.00    +0.000 C 
ATOM      8  C   UNL     1      -2.926  12.991  23.625  0.00  0.00    +0.000 C 
ATOM      9  C   UNL     1      -3.101  12.256  22.312  0.00  0.00    +0.000 C 
ATOM     10  C   UNL     1      -2.690  13.311  21.289  0.00  0.00    +0.000 C 
ATOM     11  C   UNL     1      -0.125  13.498  21.428  0.00  0.00    +0.000 C 
ATOM     12  N   UNL     1       0.155  13.623  20.012  0.00  0.00    +0.000 N 
ATOM     13  C   UNL     1       0.957  12.713  19.307  0.00  0.00    +0.000 C 
ATOM     14  O   UNL     1       1.491  13.068  18.250  0.00  0.00    +0.000 OA
ATOM     15  N   UNL     1       1.160  11.380  19.711  0.00  0.00    +0.000 N 
ATOM     16  C   UNL     1       1.949  10.533  18.697  0.00  0.00    +0.000 C 
ATOM     17  C   UNL     1       1.834   9.170  19.245  0.00  0.00    +0.000 A 
ATOM     18  C   UNL     1       2.209   7.813  19.142  0.00  0.00    +0.000 A 
ATOM     19  N   UNL     1       3.042   7.221  18.233  0.00  0.00    +0.000 N 
ATOM     20  C   UNL     1       3.396   5.880  18.307  0.00  0.00    +0.000 C 
ATOM     21  O   UNL     1       3.107   5.066  19.183  0.00  0.00    +0.000 OA
ATOM     22  N   UNL     1       1.618   7.089  20.113  0.00  0.00    +0.000 NA
ATOM     23  N   UNL     1       0.906   7.947  20.830  0.00  0.00    +0.000 N 
ATOM     24  C   UNL     1       1.026   9.185  20.329  0.00  0.00    +0.000 A 
ATOM     25  C   UNL     1       0.483  10.475  20.746  0.00  0.00    +0.000 C 
ATOM     26  C   UNL     1       0.961  10.587  22.230  0.00  0.00    +0.000 C 
ATOM     27  C   UNL     1      -1.008  10.380  20.467  0.00  0.00    +0.000 C 
ATOM     28  H   UNL     1       3.415   7.757  17.456  0.00  0.00    +0.000 HD
ATOM     29  H   UNL     1       0.394   7.609  21.635  0.00  0.00    +0.000 HD
ENDROOT
BRANCH  20  30
ATOM     30  C   UNL     1       4.241   5.408  17.180  0.00  0.00    +0.000 A 
ATOM     31  C   UNL     1       4.787   6.352  16.314  0.00  0.00    +0.000 A 
ATOM     32  C   UNL     1       5.594   5.900  15.282  0.00  0.00    +0.000 A 
ATOM     33  C   UNL     1       5.824   4.535  15.151  0.00  0.00    +0.000 A 
ATOM     34  C   UNL     1       5.230   3.668  16.059  0.00  0.00    +0.000 A 
ATOM     35  N   UNL     1       4.439   4.066  17.077  0.00  0.00    +0.000 NA
ENDBRANCH  20  30
TORSDOF 1
ENDMDL
MODEL 8
REMARK VINA RESULT:      -6.8      5.354      8.019
REMARK  Name = 
REMARK  5 active torsions:
REMARK  status: ('A' for Active; 'I' for Inactive)
REMARK    1  A    between atoms: C_1  and  C_2
REMARK    2  A    between atoms: N_4  and  C_5
REMARK    3  A    between atoms: C_20  and  C_22
REMARK    4  A    between atoms: C_31  and  C_32
REMARK    5  A    between atoms: C_31  and  C_33
REMARK                            x       y       z     vdW  Elec       q    Type
REMARK                         _______ _______ _______ _____ _____    ______ ____
ROOT
ATOM      1  C   UNL     1      -0.107  10.744  19.860  0.00  0.00    +0.000 C 
ATOM      2  C   UNL     1      -0.711  12.121  19.541  0.00  0.00    +0.000 C 
ATOM      3  C   UNL     1      -1.957  12.257  20.502  0.00  0.00    +0.000 C 
ATOM      4  N   UNL     1      -2.690  13.539  20.450  0.00  0.00    +0.000 NA
ATOM      5  C   UNL     1      -3.811  13.527  21.394  0.00  0.00    +0.000 C 
ATOM      6  C   UNL     1      -1.753  14.658  20.650  0.00  0.00    +0.000 C 
ATOM      7  C   UNL     1      -2.407  16.064  20.453  0.00  0.00    +0.000 C 
ATOM      8  C   UNL     1      -2.350  16.755  21.813  0.00  0.00    +0.000 C 
ATOM      9  C   UNL     1      -1.073  16.216  22.424  0.00  0.00    +0.000 C 
ATOM     10  C   UNL     1      -1.151  14.730  22.088  0.00  0.00    +0.000 C 
ATOM     11  C   UNL     1      -0.637  14.526  19.572  0.00  0.00    +0.000 C 
ATOM     12  N   UNL     1       0.182  13.331  19.621  0.00  0.00    +0.000 N 
ATOM     13  C   UNL     1       1.515  13.298  19.184  0.00  0.00    +0.000 C 
ATOM     14  O   UNL     1       2.022  12.217  18.864  0.00  0.00    +0.000 OA
ATOM     15  N   UNL     1       2.345  14.434  19.132  0.00  0.00    +0.000 N 
ATOM     16  C   UNL     1       3.807  14.124  18.772  0.00  0.00    +0.000 C 
ATOM     17  C   UNL     1       4.484  15.415  18.993  0.00  0.00    +0.000 A 
ATOM     18  C   UNL     1       5.678  16.160  18.902  0.00  0.00    +0.000 A 
ATOM     19  N   UNL     1       6.900  15.768  18.429  0.00  0.00    +0.000 N 
ATOM     20  C   UNL     1       7.972  16.642  18.312  0.00  0.00    +0.000 C 
ATOM     21  O   UNL     1       7.989  17.854  18.524  0.00  0.00    +0.000 OA
ATOM     22  N   UNL     1       5.485  17.412  19.363  0.00  0.00    +0.000 NA
ATOM     23  N   UNL     1       4.210  17.480  19.720  0.00  0.00    +0.000 N 
ATOM     24  C   UNL     1       3.603  16.304  19.503  0.00  0.00    +0.000 A 
ATOM     25  C   UNL     1       2.226  15.856  19.693  0.00  0.00    +0.000 C 
ATOM     26  C   UNL     1       1.406  16.896  18.863  0.00  0.00    +0.000 C 
ATOM     27  C   UNL     1       2.032  15.812  21.200  0.00  0.00    +0.000 C 
ATOM     28  H   UNL     1       7.059  14.801  18.163  0.00  0.00    +0.000 HD
ATOM     29  H   UNL     1       3.845  18.354  20.076  0.00  0.00    +0.000 HD
ENDROOT
BRANCH  20  30
ATOM     30  C   UNL     1       9.234  16.004  17.857  0.00  0.00    +0.000 A 
ATOM     31  C   UNL     1       9.469  14.674  18.194  0.00  0.00    +0.000 A 
ATOM     32  C   UNL     1      10.639  14.084  17.743  0.00  0.00    +0.000 A 
ATOM     33  C   UNL     1      11.525  14.835  16.980  0.00  0.00    +0.000 A 
ATOM     34  C   UNL     1      11.208  16.158  16.700  0.00  0.00    +0.000 A 
ATOM     35  N   UNL     1      10.082  16.771  17.119  0.00  0.00    +0.000 NA
ENDBRANCH  20  30
TORSDOF 1
ENDMDL
