MODEL 1
REMARK VINA RESULT:      -6.9      0.000      0.000
REMARK  Name = 
REMARK  4 active torsions:
REMARK  status: ('A' for Active; 'I' for Inactive)
REMARK    1  A    between atoms: C_1  and  C_2
REMARK    2  A    between atoms: C_8  and  N_9
REMARK    3  A    between atoms: C_10  and  C_12
REMARK    4  A    between atoms: C_12  and  N_13
REMARK                            x       y       z     vdW  Elec       q    Type
REMARK                         _______ _______ _______ _____ _____    ______ ____
ROOT
ATOM      1  N   UNL     1       2.809   6.390  19.940  0.00  0.00    +0.000 N 
ATOM      2  C   UNL     1       2.394   5.061  19.995  0.00  0.00    +0.000 C 
ATOM      3  O   UNL     1       1.231   4.670  20.052  0.00  0.00    +0.000 OA
ATOM      4  H   UNL     1       3.806   6.560  19.865  0.00  0.00    +0.000 HD
ENDROOT
BRANCH   1  12
ATOM      5  C   UNL     1       2.623   8.218  17.626  0.00  0.00    +0.000 C 
ATOM      6  C   UNL     1       1.889   8.428  18.924  0.00  0.00    +0.000 A 
ATOM      7  C   UNL     1       1.080   9.580  19.029  0.00  0.00    +0.000 A 
ATOM      8  C   UNL     1       0.382   9.858  20.201  0.00  0.00    +0.000 A 
ATOM      9 BR   UNL     1      -0.655  11.431  20.339  0.00  0.00    +0.000 Br
ATOM     10  C   UNL     1       0.453   8.983  21.275  0.00  0.00    +0.000 A 
ATOM     11  C   UNL     1       1.240   7.833  21.179  0.00  0.00    +0.000 A 
ATOM     12  C   UNL     1       1.978   7.540  20.022  0.00  0.00    +0.000 A 
ENDBRANCH   1  12
BRANCH   2  13
ATOM     13  C   UNL     1       3.537   4.046  19.943  0.00  0.00    +0.000 C 
BRANCH  13  14
ATOM     14  N   UNL     1       4.288   4.206  18.713  0.00  0.00    +0.000 N 
ATOM     15  C   UNL     1       3.861   3.785  17.488  0.00  0.00    +0.000 C 
ATOM     16  O   UNL     1       2.798   3.244  17.228  0.00  0.00    +0.000 OA
ATOM     17  C   UNL     1       4.973   3.982  16.496  0.00  0.00    +0.000 C 
ATOM     18  C   UNL     1       6.034   4.742  17.269  0.00  0.00    +0.000 C 
ATOM     19  C   UNL     1       5.572   4.658  18.695  0.00  0.00    +0.000 C 
ATOM     20  O   UNL     1       6.233   4.963  19.677  0.00  0.00    +0.000 OA
ENDBRANCH  13  14
ENDBRANCH   2  13
TORSDOF 3
ENDMDL
MODEL 2
REMARK VINA RESULT:      -6.9      0.257      1.740
REMARK  Name = 
REMARK  4 active torsions:
REMARK  status: ('A' for Active; 'I' for Inactive)
REMARK    1  A    between atoms: C_1  and  C_2
REMARK    2  A    between atoms: C_8  and  N_9
REMARK    3  A    between atoms: C_10  and  C_12
REMARK    4  A    between atoms: C_12  and  N_13
REMARK                            x       y       z     vdW  Elec       q    Type
REMARK                         _______ _______ _______ _____ _____    ______ ____
ROOT
ATOM      1  N   UNL     1       2.926   6.151  19.905  0.00  0.00    +0.000 N 
ATOM      2  C   UNL     1       2.475   4.833  19.866  0.00  0.00    +0.000 C 
ATOM      3  O   UNL     1       1.301   4.473  19.808  0.00  0.00    +0.000 OA
ATOM      4  H   UNL     1       3.930   6.294  19.922  0.00  0.00    +0.000 HD
ENDROOT
BRANCH   1  12
ATOM      5  C   UNL     1       2.828   7.972  17.580  0.00  0.00    +0.000 C 
ATOM      6  C   UNL     1       2.073   8.205  18.862  0.00  0.00    +0.000 A 
ATOM      7  C   UNL     1       1.289   9.376  18.947  0.00  0.00    +0.000 A 
ATOM      8  C   UNL     1       0.575   9.675  20.104  0.00  0.00    +0.000 A 
ATOM      9 BR   UNL     1      -0.428  11.272  20.215  0.00  0.00    +0.000 Br
ATOM     10  C   UNL     1       0.604   8.803  21.182  0.00  0.00    +0.000 A 
ATOM     11  C   UNL     1       1.367   7.635  21.106  0.00  0.00    +0.000 A 
ATOM     12  C   UNL     1       2.120   7.320  19.965  0.00  0.00    +0.000 A 
ENDBRANCH   1  12
BRANCH   2  13
ATOM     13  C   UNL     1       3.592   3.788  19.867  0.00  0.00    +0.000 C 
BRANCH  13  14
ATOM     14  N   UNL     1       4.442   3.970  18.707  0.00  0.00    +0.000 N 
ATOM     15  C   UNL     1       5.638   4.626  18.723  0.00  0.00    +0.000 C 
ATOM     16  O   UNL     1       6.186   5.131  19.690  0.00  0.00    +0.000 OA
ATOM     17  C   UNL     1       6.141   4.744  17.311  0.00  0.00    +0.000 C 
ATOM     18  C   UNL     1       5.170   3.909  16.497  0.00  0.00    +0.000 C 
ATOM     19  C   UNL     1       4.045   3.631  17.450  0.00  0.00    +0.000 C 
ATOM     20  O   UNL     1       2.957   3.161  17.150  0.00  0.00    +0.000 OA
ENDBRANCH  13  14
ENDBRANCH   2  13
TORSDOF 3
ENDMDL
MODEL 3
REMARK VINA RESULT:      -6.8      1.204      2.065
REMARK  Name = 
REMARK  4 active torsions:
REMARK  status: ('A' for Active; 'I' for Inactive)
REMARK    1  A    between atoms: C_1  and  C_2
REMARK    2  A    between atoms: C_8  and  N_9
REMARK    3  A    between atoms: C_10  and  C_12
REMARK    4  A    between atoms: C_12  and  N_13
REMARK                            x       y       z     vdW  Elec       q    Type
REMARK                         _______ _______ _______ _____ _____    ______ ____
ROOT
ATOM      1  N   UNL     1       2.475   6.385  20.445  0.00  0.00    +0.000 N 
ATOM      2  C   UNL     1       1.866   5.141  20.593  0.00  0.00    +0.000 C 
ATOM      3  O   UNL     1       0.663   4.910  20.495  0.00  0.00    +0.000 OA
ATOM      4  H   UNL     1       3.486   6.416  20.524  0.00  0.00    +0.000 HD
ENDROOT
BRANCH   1  12
ATOM      5  C   UNL     1       2.727   7.739  17.831  0.00  0.00    +0.000 C 
ATOM      6  C   UNL     1       1.942   8.291  18.991  0.00  0.00    +0.000 A 
ATOM      7  C   UNL     1       1.308   9.539  18.805  0.00  0.00    +0.000 A 
ATOM      8  C   UNL     1       0.577  10.128  19.834  0.00  0.00    +0.000 A 
ATOM      9 BR   UNL     1      -0.222  11.822  19.582  0.00  0.00    +0.000 Br
ATOM     10  C   UNL     1       0.441   9.476  21.050  0.00  0.00    +0.000 A 
ATOM     11  C   UNL     1       1.054   8.235  21.242  0.00  0.00    +0.000 A 
ATOM     12  C   UNL     1       1.820   7.628  20.235  0.00  0.00    +0.000 A 
ENDBRANCH   1  12
BRANCH   2  13
ATOM     13  C   UNL     1       2.841   3.995  20.868  0.00  0.00    +0.000 C 
BRANCH  13  14
ATOM     14  N   UNL     1       3.315   3.434  19.619  0.00  0.00    +0.000 N 
ATOM     15  C   UNL     1       4.303   3.983  18.853  0.00  0.00    +0.000 C 
ATOM     16  O   UNL     1       4.948   4.990  19.098  0.00  0.00    +0.000 OA
ATOM     17  C   UNL     1       4.401   3.209  17.567  0.00  0.00    +0.000 C 
ATOM     18  C   UNL     1       3.467   2.030  17.769  0.00  0.00    +0.000 C 
ATOM     19  C   UNL     1       2.703   2.381  19.012  0.00  0.00    +0.000 C 
ATOM     20  O   UNL     1       1.706   1.804  19.423  0.00  0.00    +0.000 OA
ENDBRANCH  13  14
ENDBRANCH   2  13
TORSDOF 3
ENDMDL
MODEL 4
REMARK VINA RESULT:      -6.8      1.486      2.671
REMARK  Name = 
REMARK  4 active torsions:
REMARK  status: ('A' for Active; 'I' for Inactive)
REMARK    1  A    between atoms: C_1  and  C_2
REMARK    2  A    between atoms: C_8  and  N_9
REMARK    3  A    between atoms: C_10  and  C_12
REMARK    4  A    between atoms: C_12  and  N_13
REMARK                            x       y       z     vdW  Elec       q    Type
REMARK                         _______ _______ _______ _____ _____    ______ ____
ROOT
ATOM      1  N   UNL     1       2.928   6.312  17.939  0.00  0.00    +0.000 N 
ATOM      2  C   UNL     1       4.232   6.174  17.465  0.00  0.00    +0.000 C 
ATOM      3  O   UNL     1       5.102   7.041  17.488  0.00  0.00    +0.000 OA
ATOM      4  H   UNL     1       2.328   5.496  17.880  0.00  0.00    +0.000 HD
ENDROOT
BRANCH   1  12
ATOM      5  C   UNL     1       1.924   6.336  20.717  0.00  0.00    +0.000 C 
ATOM      6  C   UNL     1       1.843   7.515  19.784  0.00  0.00    +0.000 A 
ATOM      7  C   UNL     1       1.234   8.689  20.279  0.00  0.00    +0.000 A 
ATOM      8  C   UNL     1       1.103   9.818  19.474  0.00  0.00    +0.000 A 
ATOM      9 BR   UNL     1       0.239  11.363  20.138  0.00  0.00    +0.000 Br
ATOM     10  C   UNL     1       1.599   9.809  18.179  0.00  0.00    +0.000 A 
ATOM     11  C   UNL     1       2.215   8.658  17.683  0.00  0.00    +0.000 A 
ATOM     12  C   UNL     1       2.337   7.495  18.459  0.00  0.00    +0.000 A 
ENDBRANCH   1  12
BRANCH   2  13
ATOM     13  C   UNL     1       4.553   4.786  16.911  0.00  0.00    +0.000 C 
BRANCH  13  14
ATOM     14  N   UNL     1       4.145   3.766  17.857  0.00  0.00    +0.000 N 
ATOM     15  C   UNL     1       2.955   3.101  17.809  0.00  0.00    +0.000 C 
ATOM     16  O   UNL     1       2.075   3.232  16.973  0.00  0.00    +0.000 OA
ATOM     17  C   UNL     1       2.831   2.245  19.039  0.00  0.00    +0.000 C 
ATOM     18  C   UNL     1       4.186   2.362  19.713  0.00  0.00    +0.000 C 
ATOM     19  C   UNL     1       4.858   3.488  18.983  0.00  0.00    +0.000 C 
ATOM     20  O   UNL     1       5.886   4.050  19.331  0.00  0.00    +0.000 OA
ENDBRANCH  13  14
ENDBRANCH   2  13
TORSDOF 3
ENDMDL
MODEL 5
REMARK VINA RESULT:      -6.8      4.317      6.476
REMARK  Name = 
REMARK  4 active torsions:
REMARK  status: ('A' for Active; 'I' for Inactive)
REMARK    1  A    between atoms: C_1  and  C_2
REMARK    2  A    between atoms: C_8  and  N_9
REMARK    3  A    between atoms: C_10  and  C_12
REMARK    4  A    between atoms: C_12  and  N_13
REMARK                            x       y       z     vdW  Elec       q    Type
REMARK                         _______ _______ _______ _____ _____    ______ ____
ROOT
ATOM      1  N   UNL     1       5.101   3.676  17.871  0.00  0.00    +0.000 N 
ATOM      2  C   UNL     1       4.520   4.542  18.796  0.00  0.00    +0.000 C 
ATOM      3  O   UNL     1       4.395   5.758  18.666  0.00  0.00    +0.000 OA
ATOM      4  H   UNL     1       5.107   2.689  18.103  0.00  0.00    +0.000 HD
ENDROOT
BRANCH   1  12
ATOM      5  C   UNL     1       7.833   4.799  17.914  0.00  0.00    +0.000 C 
ATOM      6  C   UNL     1       7.031   4.588  16.657  0.00  0.00    +0.000 A 
ATOM      7  C   UNL     1       7.631   4.970  15.437  0.00  0.00    +0.000 A 
ATOM      8  C   UNL     1       6.950   4.825  14.231  0.00  0.00    +0.000 A 
ATOM      9 BR   UNL     1       7.750   5.389  12.615  0.00  0.00    +0.000 Br
ATOM     10  C   UNL     1       5.677   4.274  14.215  0.00  0.00    +0.000 A 
ATOM     11  C   UNL     1       5.078   3.881  15.414  0.00  0.00    +0.000 A 
ATOM     12  C   UNL     1       5.727   4.040  16.648  0.00  0.00    +0.000 A 
ENDBRANCH   1  12
BRANCH   2  13
ATOM     13  C   UNL     1       3.980   3.850  20.048  0.00  0.00    +0.000 C 
BRANCH  13  14
ATOM     14  N   UNL     1       2.631   3.376  19.812  0.00  0.00    +0.000 N 
ATOM     15  C   UNL     1       2.320   2.260  19.090  0.00  0.00    +0.000 C 
ATOM     16  O   UNL     1       3.104   1.486  18.563  0.00  0.00    +0.000 OA
ATOM     17  C   UNL     1       0.827   2.188  18.934  0.00  0.00    +0.000 C 
ATOM     18  C   UNL     1       0.304   3.307  19.816  0.00  0.00    +0.000 C 
ATOM     19  C   UNL     1       1.532   4.098  20.162  0.00  0.00    +0.000 C 
ATOM     20  O   UNL     1       1.543   5.201  20.690  0.00  0.00    +0.000 OA
ENDBRANCH  13  14
ENDBRANCH   2  13
TORSDOF 3
ENDMDL
MODEL 6
REMARK VINA RESULT:      -6.7      1.448      2.403
REMARK  Name = 
REMARK  4 active torsions:
REMARK  status: ('A' for Active; 'I' for Inactive)
REMARK    1  A    between atoms: C_1  and  C_2
REMARK    2  A    between atoms: C_8  and  N_9
REMARK    3  A    between atoms: C_10  and  C_12
REMARK    4  A    between atoms: C_12  and  N_13
REMARK                            x       y       z     vdW  Elec       q    Type
REMARK                         _______ _______ _______ _____ _____    ______ ____
ROOT
ATOM      1  N   UNL     1       3.264   5.705  18.125  0.00  0.00    +0.000 N 
ATOM      2  C   UNL     1       2.671   4.557  17.605  0.00  0.00    +0.000 C 
ATOM      3  O   UNL     1       1.465   4.376  17.447  0.00  0.00    +0.000 OA
ATOM      4  H   UNL     1       4.277   5.722  18.168  0.00  0.00    +0.000 HD
ENDROOT
BRANCH   1  12
ATOM      5  C   UNL     1       2.220   5.645  20.889  0.00  0.00    +0.000 C 
ATOM      6  C   UNL     1       2.079   6.823  19.963  0.00  0.00    +0.000 A 
ATOM      7  C   UNL     1       1.390   7.953  20.456  0.00  0.00    +0.000 A 
ATOM      8  C   UNL     1       1.200   9.078  19.657  0.00  0.00    +0.000 A 
ATOM      9 BR   UNL     1       0.232  10.560  20.319  0.00  0.00    +0.000 Br
ATOM     10  C   UNL     1       1.715   9.110  18.370  0.00  0.00    +0.000 A 
ATOM     11  C   UNL     1       2.409   8.003  17.875  0.00  0.00    +0.000 A 
ATOM     12  C   UNL     1       2.592   6.844  18.644  0.00  0.00    +0.000 A 
ENDBRANCH   1  12
BRANCH   2  13
ATOM     13  C   UNL     1       3.665   3.475  17.180  0.00  0.00    +0.000 C 
BRANCH  13  14
ATOM     14  N   UNL     1       5.005   4.026  17.125  0.00  0.00    +0.000 N 
ATOM     15  C   UNL     1       5.662   4.341  15.971  0.00  0.00    +0.000 C 
ATOM     16  O   UNL     1       5.235   4.238  14.832  0.00  0.00    +0.000 OA
ATOM     17  C   UNL     1       7.074   4.730  16.312  0.00  0.00    +0.000 C 
ATOM     18  C   UNL     1       7.093   4.778  17.829  0.00  0.00    +0.000 C 
ATOM     19  C   UNL     1       5.796   4.134  18.227  0.00  0.00    +0.000 C 
ATOM     20  O   UNL     1       5.493   3.783  19.358  0.00  0.00    +0.000 OA
ENDBRANCH  13  14
ENDBRANCH   2  13
TORSDOF 3
ENDMDL
MODEL 7
REMARK VINA RESULT:      -6.7      1.505      3.150
REMARK  Name = 
REMARK  4 active torsions:
REMARK  status: ('A' for Active; 'I' for Inactive)
REMARK    1  A    between atoms: C_1  and  C_2
REMARK    2  A    between atoms: C_8  and  N_9
REMARK    3  A    between atoms: C_10  and  C_12
REMARK    4  A    between atoms: C_12  and  N_13
REMARK                            x       y       z     vdW  Elec       q    Type
REMARK                         _______ _______ _______ _____ _____    ______ ____
ROOT
ATOM      1  N   UNL     1       2.822   6.411  18.003  0.00  0.00    +0.000 N 
ATOM      2  C   UNL     1       4.109   6.252  17.493  0.00  0.00    +0.000 C 
ATOM      3  O   UNL     1       4.985   7.112  17.465  0.00  0.00    +0.000 OA
ATOM      4  H   UNL     1       2.214   5.599  17.986  0.00  0.00    +0.000 HD
ENDROOT
BRANCH   1  12
ATOM      5  C   UNL     1       1.843   6.495  20.790  0.00  0.00    +0.000 C 
ATOM      6  C   UNL     1       1.774   7.661  19.840  0.00  0.00    +0.000 A 
ATOM      7  C   UNL     1       1.189   8.852  20.321  0.00  0.00    +0.000 A 
ATOM      8  C   UNL     1       1.069   9.971  19.501  0.00  0.00    +0.000 A 
ATOM      9 BR   UNL     1       0.238  11.540  20.148  0.00  0.00    +0.000 Br
ATOM     10  C   UNL     1       1.554   9.934  18.202  0.00  0.00    +0.000 A 
ATOM     11  C   UNL     1       2.146   8.764  17.718  0.00  0.00    +0.000 A 
ATOM     12  C   UNL     1       2.255   7.611  18.510  0.00  0.00    +0.000 A 
ENDBRANCH   1  12
BRANCH   2  13
ATOM     13  C   UNL     1       4.403   4.847  16.965  0.00  0.00    +0.000 C 
BRANCH  13  14
ATOM     14  N   UNL     1       4.048   3.857  17.963  0.00  0.00    +0.000 N 
ATOM     15  C   UNL     1       4.818   3.539  19.044  0.00  0.00    +0.000 C 
ATOM     16  O   UNL     1       5.887   4.039  19.354  0.00  0.00    +0.000 OA
ATOM     17  C   UNL     1       4.196   2.367  19.750  0.00  0.00    +0.000 C 
ATOM     18  C   UNL     1       2.868   2.165  19.044  0.00  0.00    +0.000 C 
ATOM     19  C   UNL     1       2.973   3.033  17.824  0.00  0.00    +0.000 C 
ATOM     20  O   UNL     1       2.207   3.018  16.870  0.00  0.00    +0.000 OA
ENDBRANCH  13  14
ENDBRANCH   2  13
TORSDOF 3
ENDMDL
MODEL 8
REMARK VINA RESULT:      -6.7      1.716      2.561
REMARK  Name = 
REMARK  4 active torsions:
REMARK  status: ('A' for Active; 'I' for Inactive)
REMARK    1  A    between atoms: C_1  and  C_2
REMARK    2  A    between atoms: C_8  and  N_9
REMARK    3  A    between atoms: C_10  and  C_12
REMARK    4  A    between atoms: C_12  and  N_13
REMARK                            x       y       z     vdW  Elec       q    Type
REMARK                         _______ _______ _______ _____ _____    ______ ____
ROOT
ATOM      1  N   UNL     1       2.238   7.598  19.330  0.00  0.00    +0.000 N 
ATOM      2  C   UNL     1       2.594   6.284  19.628  0.00  0.00    +0.000 C 
ATOM      3  O   UNL     1       2.213   5.635  20.599  0.00  0.00    +0.000 OA
ATOM      4  H   UNL     1       2.608   7.994  18.474  0.00  0.00    +0.000 HD
ENDROOT
BRANCH   1  12
ATOM      5  C   UNL     1       0.698   9.766  18.042  0.00  0.00    +0.000 C 
ATOM      6  C   UNL     1       0.704   9.507  19.525  0.00  0.00    +0.000 A 
ATOM      7  C   UNL     1      -0.065  10.371  20.334  0.00  0.00    +0.000 A 
ATOM      8  C   UNL     1      -0.099  10.212  21.717  0.00  0.00    +0.000 A 
ATOM      9 BR   UNL     1      -1.094  11.410  22.787  0.00  0.00    +0.000 Br
ATOM     10  C   UNL     1       0.605   9.177  22.314  0.00  0.00    +0.000 A 
ATOM     11  C   UNL     1       1.360   8.307  21.522  0.00  0.00    +0.000 A 
ATOM     12  C   UNL     1       1.438   8.459  20.129  0.00  0.00    +0.000 A 
ENDBRANCH   1  12
BRANCH   2  13
ATOM     13  C   UNL     1       3.518   5.638  18.594  0.00  0.00    +0.000 C 
BRANCH  13  14
ATOM     14  N   UNL     1       3.262   4.213  18.520  0.00  0.00    +0.000 N 
ATOM     15  C   UNL     1       4.136   3.249  18.930  0.00  0.00    +0.000 C 
ATOM     16  O   UNL     1       5.234   3.422  19.436  0.00  0.00    +0.000 OA
ATOM     17  C   UNL     1       3.585   1.904  18.547  0.00  0.00    +0.000 C 
ATOM     18  C   UNL     1       2.191   2.205  18.028  0.00  0.00    +0.000 C 
ATOM     19  C   UNL     1       2.175   3.699  17.883  0.00  0.00    +0.000 C 
ATOM     20  O   UNL     1       1.316   4.349  17.304  0.00  0.00    +0.000 OA
ENDBRANCH  13  14
ENDBRANCH   2  13
TORSDOF 3
ENDMDL
MODEL 9
REMARK VINA RESULT:      -6.7      1.711      2.042
REMARK  Name = 
REMARK  4 active torsions:
REMARK  status: ('A' for Active; 'I' for Inactive)
REMARK    1  A    between atoms: C_1  and  C_2
REMARK    2  A    between atoms: C_8  and  N_9
REMARK    3  A    between atoms: C_10  and  C_12
REMARK    4  A    between atoms: C_12  and  N_13
REMARK                            x       y       z     vdW  Elec       q    Type
REMARK                         _______ _______ _______ _____ _____    ______ ____
ROOT
ATOM      1  N   UNL     1       2.266   7.636  19.282  0.00  0.00    +0.000 N 
ATOM      2  C   UNL     1       2.580   6.298  19.510  0.00  0.00    +0.000 C 
ATOM      3  O   UNL     1       2.145   5.600  20.422  0.00  0.00    +0.000 OA
ATOM      4  H   UNL     1       2.682   8.075  18.468  0.00  0.00    +0.000 HD
ENDROOT
BRANCH   1  12
ATOM      5  C   UNL     1       0.630   9.756  18.033  0.00  0.00    +0.000 C 
ATOM      6  C   UNL     1       0.673   9.491  19.514  0.00  0.00    +0.000 A 
ATOM      7  C   UNL     1      -0.110  10.325  20.342  0.00  0.00    +0.000 A 
ATOM      8  C   UNL     1      -0.113  10.158  21.725  0.00  0.00    +0.000 A 
ATOM      9 BR   UNL     1      -1.128  11.316  22.819  0.00  0.00    +0.000 Br
ATOM     10  C   UNL     1       0.637   9.144  22.303  0.00  0.00    +0.000 A 
ATOM     11  C   UNL     1       1.406   8.305  21.493  0.00  0.00    +0.000 A 
ATOM     12  C   UNL     1       1.453   8.466  20.100  0.00  0.00    +0.000 A 
ENDBRANCH   1  12
BRANCH   2  13
ATOM     13  C   UNL     1       3.533   5.694  18.477  0.00  0.00    +0.000 C 
BRANCH  13  14
ATOM     14  N   UNL     1       3.277   4.274  18.335  0.00  0.00    +0.000 N 
ATOM     15  C   UNL     1       2.143   3.744  17.792  0.00  0.00    +0.000 C 
ATOM     16  O   UNL     1       1.197   4.359  17.326  0.00  0.00    +0.000 OA
ATOM     17  C   UNL     1       2.178   2.251  17.965  0.00  0.00    +0.000 C 
ATOM     18  C   UNL     1       3.565   1.971  18.514  0.00  0.00    +0.000 C 
ATOM     19  C   UNL     1       4.090   3.328  18.881  0.00  0.00    +0.000 C 
ATOM     20  O   UNL     1       5.093   3.548  19.545  0.00  0.00    +0.000 OA
ENDBRANCH  13  14
ENDBRANCH   2  13
TORSDOF 3
ENDMDL
