MODEL 1
REMARK VINA RESULT:      -7.3      0.000      0.000
REMARK  Name = 
REMARK  9 active torsions:
REMARK  status: ('A' for Active; 'I' for Inactive)
REMARK    1  A    between atoms: C_1  and  C_2
REMARK    2  A    between atoms: C_2  and  C_3
REMARK    3  A    between atoms: C_2  and  C_4
REMARK    4  A    between atoms: C_2  and  O_5
REMARK    5  A    between atoms: O_5  and  C_6
REMARK    6  A    between atoms: N_8  and  C_9
REMARK    7  A    between atoms: C_9  and  C_10
REMARK    8  A    between atoms: N_18  and  C_19
REMARK    9  A    between atoms: C_19  and  C_20
REMARK                            x       y       z     vdW  Elec       q    Type
REMARK                         _______ _______ _______ _____ _____    ______ ____
ROOT
ATOM      1  C   UNL     1       0.510   9.994  19.868  0.00  0.00    +0.000 C 
ATOM      2  C   UNL     1       0.980  10.647  21.159  0.00  0.00    +0.000 C 
ATOM      3  C   UNL     1       0.821   9.756  22.157  0.00  0.00    +0.000 C 
ATOM      4  C   UNL     1       0.370   8.488  21.489  0.00  0.00    +0.000 C 
ATOM      5  O   UNL     1      -0.550   9.192  20.521  0.00  0.00    +0.000 OA
ATOM      6  C   UNL     1       1.577   8.059  20.639  0.00  0.00    +0.000 C 
ATOM      7  C   UNL     1       2.073   6.774  20.048  0.00  0.00    +0.000 C 
ATOM      8  O   UNL     1       2.120   5.690  20.601  0.00  0.00    +0.000 OA
ATOM      9  N   UNL     1       2.613   7.133  18.805  0.00  0.00    +0.000 N 
ATOM     10  C   UNL     1       2.220   8.403  18.405  0.00  0.00    +0.000 C 
ATOM     11  O   UNL     1       2.451   8.995  17.369  0.00  0.00    +0.000 OA
ATOM     12  C   UNL     1       1.147   8.730  19.362  0.00  0.00    +0.000 C 
ENDROOT
BRANCH   1  13
ATOM     13  C   UNL     1       0.178  10.950  18.728  0.00  0.00    +0.000 C 
BRANCH  13  16
ATOM     14  C   UNL     1       1.254  13.146  18.301  0.00  0.00    +0.000 C 
ATOM     15  O   UNL     1       0.260  13.780  18.580  0.00  0.00    +0.000 OA
ATOM     16  N   UNL     1       1.335  11.789  18.390  0.00  0.00    +0.000 N 
ATOM     17  H   UNL     1       2.225  11.365  18.142  0.00  0.00    +0.000 HD
BRANCH  14  18
ATOM     18  O   UNL     1       2.431  13.659  17.841  0.00  0.00    +0.000 OA
BRANCH  18  20
ATOM     19  C   UNL     1       3.215  14.144  20.129  0.00  0.00    +0.000 C 
ATOM     20  C   UNL     1       3.159  14.611  18.670  0.00  0.00    +0.000 C 
ATOM     21  C   UNL     1       2.545  16.013  18.547  0.00  0.00    +0.000 C 
ATOM     22  C   UNL     1       4.606  14.658  18.142  0.00  0.00    +0.000 C 
ENDBRANCH  18  20
ENDBRANCH  14  18
ENDBRANCH  13  16
ENDBRANCH   1  13
BRANCH   9  23
ATOM     23  C   UNL     1       3.235   6.220  17.876  0.00  0.00    +0.000 C 
BRANCH  23  24
ATOM     24  C   UNL     1       4.737   6.140  17.994  0.00  0.00    +0.000 A 
ATOM     25  C   UNL     1       5.557   6.871  17.130  0.00  0.00    +0.000 A 
ATOM     26  C   UNL     1       6.943   6.897  17.320  0.00  0.00    +0.000 A 
ATOM     27  C   UNL     1       7.519   6.182  18.363  0.00  0.00    +0.000 A 
ATOM     28  C   UNL     1       6.715   5.421  19.210  0.00  0.00    +0.000 A 
ATOM     29  C   UNL     1       5.336   5.382  19.019  0.00  0.00    +0.000 A 
ENDBRANCH  23  24
ENDBRANCH   9  23
TORSDOF 6
ENDMDL
MODEL 2
REMARK VINA RESULT:      -7.3      3.477      5.333
REMARK  Name = 
REMARK  9 active torsions:
REMARK  status: ('A' for Active; 'I' for Inactive)
REMARK    1  A    between atoms: C_1  and  C_2
REMARK    2  A    between atoms: C_2  and  C_3
REMARK    3  A    between atoms: C_2  and  C_4
REMARK    4  A    between atoms: C_2  and  O_5
REMARK    5  A    between atoms: O_5  and  C_6
REMARK    6  A    between atoms: N_8  and  C_9
REMARK    7  A    between atoms: C_9  and  C_10
REMARK    8  A    between atoms: N_18  and  C_19
REMARK    9  A    between atoms: C_19  and  C_20
REMARK                            x       y       z     vdW  Elec       q    Type
REMARK                         _______ _______ _______ _____ _____    ______ ____
ROOT
ATOM      1  C   UNL     1      -0.114  11.072  20.624  0.00  0.00    +0.000 C 
ATOM      2  C   UNL     1      -1.421  11.280  19.874  0.00  0.00    +0.000 C 
ATOM      3  C   UNL     1      -1.123  11.582  18.596  0.00  0.00    +0.000 C 
ATOM      4  C   UNL     1       0.369  11.442  18.492  0.00  0.00    +0.000 C 
ATOM      5  O   UNL     1       0.635  12.077  19.835  0.00  0.00    +0.000 OA
ATOM      6  C   UNL     1       0.625   9.941  18.712  0.00  0.00    +0.000 C 
ATOM      7  C   UNL     1       1.716   8.975  18.367  0.00  0.00    +0.000 C 
ATOM      8  O   UNL     1       2.293   8.881  17.298  0.00  0.00    +0.000 OA
ATOM      9  N   UNL     1       1.801   8.115  19.470  0.00  0.00    +0.000 N 
ATOM     10  C   UNL     1       1.144   8.620  20.585  0.00  0.00    +0.000 C 
ATOM     11  O   UNL     1       1.071   8.169  21.711  0.00  0.00    +0.000 OA
ATOM     12  C   UNL     1       0.866  10.015  20.196  0.00  0.00    +0.000 C 
ENDROOT
BRANCH   1  13
ATOM     13  C   UNL     1      -0.201  11.175  22.143  0.00  0.00    +0.000 C 
BRANCH  13  16
ATOM     14  C   UNL     1      -1.893  12.619  23.244  0.00  0.00    +0.000 C 
ATOM     15  O   UNL     1      -1.107  13.515  23.461  0.00  0.00    +0.000 OA
ATOM     16  N   UNL     1      -1.571  11.477  22.573  0.00  0.00    +0.000 N 
ATOM     17  H   UNL     1      -2.316  10.798  22.439  0.00  0.00    +0.000 HD
BRANCH  14  18
ATOM     18  O   UNL     1      -3.197  12.581  23.640  0.00  0.00    +0.000 OA
BRANCH  18  20
ATOM     19  C   UNL     1      -3.961  13.603  21.529  0.00  0.00    +0.000 C 
ATOM     20  C   UNL     1      -4.142  13.519  23.049  0.00  0.00    +0.000 C 
ATOM     21  C   UNL     1      -4.019  14.900  23.711  0.00  0.00    +0.000 C 
ATOM     22  C   UNL     1      -5.557  12.968  23.317  0.00  0.00    +0.000 C 
ENDBRANCH  18  20
ENDBRANCH  14  18
ENDBRANCH  13  16
ENDBRANCH   1  13
BRANCH   9  23
ATOM     23  C   UNL     1       2.708   6.998  19.584  0.00  0.00    +0.000 C 
BRANCH  23  24
ATOM     24  C   UNL     1       2.063   5.651  19.377  0.00  0.00    +0.000 A 
ATOM     25  C   UNL     1       2.025   5.070  18.106  0.00  0.00    +0.000 A 
ATOM     26  C   UNL     1       1.542   3.767  17.936  0.00  0.00    +0.000 A 
ATOM     27  C   UNL     1       1.082   3.043  19.029  0.00  0.00    +0.000 A 
ATOM     28  C   UNL     1       1.083   3.625  20.296  0.00  0.00    +0.000 A 
ATOM     29  C   UNL     1       1.551   4.925  20.470  0.00  0.00    +0.000 A 
ENDBRANCH  23  24
ENDBRANCH   9  23
TORSDOF 6
ENDMDL
MODEL 3
REMARK VINA RESULT:      -7.2      3.365      5.356
REMARK  Name = 
REMARK  9 active torsions:
REMARK  status: ('A' for Active; 'I' for Inactive)
REMARK    1  A    between atoms: C_1  and  C_2
REMARK    2  A    between atoms: C_2  and  C_3
REMARK    3  A    between atoms: C_2  and  C_4
REMARK    4  A    between atoms: C_2  and  O_5
REMARK    5  A    between atoms: O_5  and  C_6
REMARK    6  A    between atoms: N_8  and  C_9
REMARK    7  A    between atoms: C_9  and  C_10
REMARK    8  A    between atoms: N_18  and  C_19
REMARK    9  A    between atoms: C_19  and  C_20
REMARK                            x       y       z     vdW  Elec       q    Type
REMARK                         _______ _______ _______ _____ _____    ______ ____
ROOT
ATOM      1  C   UNL     1       0.089  10.816  20.515  0.00  0.00    +0.000 C 
ATOM      2  C   UNL     1      -1.217  11.009  19.759  0.00  0.00    +0.000 C 
ATOM      3  C   UNL     1      -0.917  11.291  18.477  0.00  0.00    +0.000 C 
ATOM      4  C   UNL     1       0.575  11.153  18.379  0.00  0.00    +0.000 C 
ATOM      5  O   UNL     1       0.838  11.810  19.711  0.00  0.00    +0.000 OA
ATOM      6  C   UNL     1       0.834   9.657  18.623  0.00  0.00    +0.000 C 
ATOM      7  C   UNL     1       1.928   8.687  18.295  0.00  0.00    +0.000 C 
ATOM      8  O   UNL     1       2.507   8.578  17.229  0.00  0.00    +0.000 OA
ATOM      9  N   UNL     1       2.012   7.846  19.412  0.00  0.00    +0.000 N 
ATOM     10  C   UNL     1       1.352   8.367  20.517  0.00  0.00    +0.000 C 
ATOM     11  O   UNL     1       1.278   7.934  21.650  0.00  0.00    +0.000 OA
ATOM     12  C   UNL     1       1.072   9.754  20.106  0.00  0.00    +0.000 C 
ENDROOT
BRANCH   1  13
ATOM     13  C   UNL     1      -0.001  10.943  22.032  0.00  0.00    +0.000 C 
BRANCH  13  16
ATOM     14  C   UNL     1      -1.744  12.260  23.210  0.00  0.00    +0.000 C 
ATOM     15  O   UNL     1      -0.983  13.154  23.509  0.00  0.00    +0.000 OA
ATOM     16  N   UNL     1      -1.385  11.181  22.459  0.00  0.00    +0.000 N 
ATOM     17  H   UNL     1      -2.111  10.498  22.260  0.00  0.00    +0.000 HD
BRANCH  14  18
ATOM     18  O   UNL     1      -3.053  12.163  23.578  0.00  0.00    +0.000 OA
BRANCH  18  20
ATOM     19  C   UNL     1      -4.323  12.752  21.547  0.00  0.00    +0.000 C 
ATOM     20  C   UNL     1      -4.018  13.095  23.010  0.00  0.00    +0.000 C 
ATOM     21  C   UNL     1      -3.525  14.542  23.162  0.00  0.00    +0.000 C 
ATOM     22  C   UNL     1      -5.328  12.934  23.806  0.00  0.00    +0.000 C 
ENDBRANCH  18  20
ENDBRANCH  14  18
ENDBRANCH  13  16
ENDBRANCH   1  13
BRANCH   9  23
ATOM     23  C   UNL     1       2.922   6.733  19.546  0.00  0.00    +0.000 C 
BRANCH  23  24
ATOM     24  C   UNL     1       2.268   5.378  19.430  0.00  0.00    +0.000 A 
ATOM     25  C   UNL     1       1.807   4.712  20.568  0.00  0.00    +0.000 A 
ATOM     26  C   UNL     1       1.088   3.517  20.449  0.00  0.00    +0.000 A 
ATOM     27  C   UNL     1       0.838   2.974  19.195  0.00  0.00    +0.000 A 
ATOM     28  C   UNL     1       1.323   3.611  18.054  0.00  0.00    +0.000 A 
ATOM     29  C   UNL     1       2.049   4.794  18.166  0.00  0.00    +0.000 A 
ENDBRANCH  23  24
ENDBRANCH   9  23
TORSDOF 6
ENDMDL
MODEL 4
REMARK VINA RESULT:      -7.1      4.742      8.692
REMARK  Name = 
REMARK  9 active torsions:
REMARK  status: ('A' for Active; 'I' for Inactive)
REMARK    1  A    between atoms: C_1  and  C_2
REMARK    2  A    between atoms: C_2  and  C_3
REMARK    3  A    between atoms: C_2  and  C_4
REMARK    4  A    between atoms: C_2  and  O_5
REMARK    5  A    between atoms: O_5  and  C_6
REMARK    6  A    between atoms: N_8  and  C_9
REMARK    7  A    between atoms: C_9  and  C_10
REMARK    8  A    between atoms: N_18  and  C_19
REMARK    9  A    between atoms: C_19  and  C_20
REMARK                            x       y       z     vdW  Elec       q    Type
REMARK                         _______ _______ _______ _____ _____    ______ ____
ROOT
ATOM      1  C   UNL     1       6.859   5.580  16.868  0.00  0.00    +0.000 C 
ATOM      2  C   UNL     1       7.804   6.247  17.855  0.00  0.00    +0.000 C 
ATOM      3  C   UNL     1       7.508   7.561  17.890  0.00  0.00    +0.000 C 
ATOM      4  C   UNL     1       6.291   7.716  17.024  0.00  0.00    +0.000 C 
ATOM      5  O   UNL     1       6.779   6.755  15.969  0.00  0.00    +0.000 OA
ATOM      6  C   UNL     1       5.191   6.948  17.775  0.00  0.00    +0.000 C 
ATOM      7  C   UNL     1       3.693   6.971  17.807  0.00  0.00    +0.000 C 
ATOM      8  O   UNL     1       2.982   7.960  17.848  0.00  0.00    +0.000 OA
ATOM      9  N   UNL     1       3.313   5.630  17.947  0.00  0.00    +0.000 N 
ATOM     10  C   UNL     1       4.355   4.754  17.671  0.00  0.00    +0.000 C 
ATOM     11  O   UNL     1       4.357   3.539  17.636  0.00  0.00    +0.000 OA
ATOM     12  C   UNL     1       5.369   5.634  17.062  0.00  0.00    +0.000 C 
ENDROOT
BRANCH   1  13
ATOM     13  C   UNL     1       7.306   4.220  16.342  0.00  0.00    +0.000 C 
BRANCH  13  16
ATOM     14  C   UNL     1       6.452   4.091  14.015  0.00  0.00    +0.000 C 
ATOM     15  O   UNL     1       7.336   4.787  13.565  0.00  0.00    +0.000 OA
ATOM     16  N   UNL     1       6.377   3.717  15.323  0.00  0.00    +0.000 N 
ATOM     17  H   UNL     1       5.597   3.120  15.586  0.00  0.00    +0.000 HD
BRANCH  14  18
ATOM     18  O   UNL     1       5.393   3.587  13.320  0.00  0.00    +0.000 OA
BRANCH  18  20
ATOM     19  C   UNL     1       6.696   4.109  11.291  0.00  0.00    +0.000 C 
ATOM     20  C   UNL     1       5.555   3.288  11.903  0.00  0.00    +0.000 C 
ATOM     21  C   UNL     1       4.234   3.504  11.150  0.00  0.00    +0.000 C 
ATOM     22  C   UNL     1       5.945   1.800  11.796  0.00  0.00    +0.000 C 
ENDBRANCH  18  20
ENDBRANCH  14  18
ENDBRANCH  13  16
ENDBRANCH   1  13
BRANCH   9  23
ATOM     23  C   UNL     1       1.952   5.159  18.045  0.00  0.00    +0.000 C 
BRANCH  23  24
ATOM     24  C   UNL     1       1.682   4.285  19.245  0.00  0.00    +0.000 A 
ATOM     25  C   UNL     1       1.072   3.037  19.091  0.00  0.00    +0.000 A 
ATOM     26  C   UNL     1       0.938   2.174  20.185  0.00  0.00    +0.000 A 
ATOM     27  C   UNL     1       1.397   2.558  21.439  0.00  0.00    +0.000 A 
ATOM     28  C   UNL     1       1.976   3.815  21.611  0.00  0.00    +0.000 A 
ATOM     29  C   UNL     1       2.102   4.682  20.530  0.00  0.00    +0.000 A 
ENDBRANCH  23  24
ENDBRANCH   9  23
TORSDOF 6
ENDMDL
MODEL 5
REMARK VINA RESULT:      -7.1      0.138      1.228
REMARK  Name = 
REMARK  9 active torsions:
REMARK  status: ('A' for Active; 'I' for Inactive)
REMARK    1  A    between atoms: C_1  and  C_2
REMARK    2  A    between atoms: C_2  and  C_3
REMARK    3  A    between atoms: C_2  and  C_4
REMARK    4  A    between atoms: C_2  and  O_5
REMARK    5  A    between atoms: O_5  and  C_6
REMARK    6  A    between atoms: N_8  and  C_9
REMARK    7  A    between atoms: C_9  and  C_10
REMARK    8  A    between atoms: N_18  and  C_19
REMARK    9  A    between atoms: C_19  and  C_20
REMARK                            x       y       z     vdW  Elec       q    Type
REMARK                         _______ _______ _______ _____ _____    ______ ____
ROOT
ATOM      1  C   UNL     1       0.457  10.077  19.852  0.00  0.00    +0.000 C 
ATOM      2  C   UNL     1       0.914  10.748  21.138  0.00  0.00    +0.000 C 
ATOM      3  C   UNL     1       0.732   9.877  22.149  0.00  0.00    +0.000 C 
ATOM      4  C   UNL     1       0.279   8.601  21.497  0.00  0.00    +0.000 C 
ATOM      5  O   UNL     1      -0.620   9.296  20.504  0.00  0.00    +0.000 OA
ATOM      6  C   UNL     1       1.494   8.146  20.672  0.00  0.00    +0.000 C 
ATOM      7  C   UNL     1       1.987   6.847  20.111  0.00  0.00    +0.000 C 
ATOM      8  O   UNL     1       2.016   5.772  20.684  0.00  0.00    +0.000 OA
ATOM      9  N   UNL     1       2.548   7.179  18.870  0.00  0.00    +0.000 N 
ATOM     10  C   UNL     1       2.173   8.445  18.442  0.00  0.00    +0.000 C 
ATOM     11  O   UNL     1       2.424   9.017  17.399  0.00  0.00    +0.000 OA
ATOM     12  C   UNL     1       1.089   8.799  19.377  0.00  0.00    +0.000 C 
ENDROOT
BRANCH   1  13
ATOM     13  C   UNL     1       0.150  11.016  18.691  0.00  0.00    +0.000 C 
BRANCH  13  16
ATOM     14  C   UNL     1       1.288  13.190  18.317  0.00  0.00    +0.000 C 
ATOM     15  O   UNL     1       0.327  13.845  18.658  0.00  0.00    +0.000 OA
ATOM     16  N   UNL     1       1.323  11.828  18.346  0.00  0.00    +0.000 N 
ATOM     17  H   UNL     1       2.189  11.385  18.048  0.00  0.00    +0.000 HD
BRANCH  14  18
ATOM     18  O   UNL     1       2.466  13.681  17.836  0.00  0.00    +0.000 OA
BRANCH  18  20
ATOM     19  C   UNL     1       2.513  16.015  18.634  0.00  0.00    +0.000 C 
ATOM     20  C   UNL     1       3.206  14.648  18.636  0.00  0.00    +0.000 C 
ATOM     21  C   UNL     1       4.660  14.750  18.150  0.00  0.00    +0.000 C 
ATOM     22  C   UNL     1       3.208  14.130  20.088  0.00  0.00    +0.000 C 
ENDBRANCH  18  20
ENDBRANCH  14  18
ENDBRANCH  13  16
ENDBRANCH   1  13
BRANCH   9  23
ATOM     23  C   UNL     1       3.175   6.244  17.967  0.00  0.00    +0.000 C 
BRANCH  23  24
ATOM     24  C   UNL     1       4.678   6.180  18.082  0.00  0.00    +0.000 A 
ATOM     25  C   UNL     1       5.281   5.416  19.085  0.00  0.00    +0.000 A 
ATOM     26  C   UNL     1       6.671   5.255  19.115  0.00  0.00    +0.000 A 
ATOM     27  C   UNL     1       7.467   5.866  18.153  0.00  0.00    +0.000 A 
ATOM     28  C   UNL     1       6.878   6.659  17.169  0.00  0.00    +0.000 A 
ATOM     29  C   UNL     1       5.497   6.833  17.141  0.00  0.00    +0.000 A 
ENDBRANCH  23  24
ENDBRANCH   9  23
TORSDOF 6
ENDMDL
MODEL 6
REMARK VINA RESULT:      -7.1      2.025      3.411
REMARK  Name = 
REMARK  9 active torsions:
REMARK  status: ('A' for Active; 'I' for Inactive)
REMARK    1  A    between atoms: C_1  and  C_2
REMARK    2  A    between atoms: C_2  and  C_3
REMARK    3  A    between atoms: C_2  and  C_4
REMARK    4  A    between atoms: C_2  and  O_5
REMARK    5  A    between atoms: O_5  and  C_6
REMARK    6  A    between atoms: N_8  and  C_9
REMARK    7  A    between atoms: C_9  and  C_10
REMARK    8  A    between atoms: N_18  and  C_19
REMARK    9  A    between atoms: C_19  and  C_20
REMARK                            x       y       z     vdW  Elec       q    Type
REMARK                         _______ _______ _______ _____ _____    ______ ____
ROOT
ATOM      1  C   UNL     1       0.788  10.015  20.106  0.00  0.00    +0.000 C 
ATOM      2  C   UNL     1       1.166  10.454  21.513  0.00  0.00    +0.000 C 
ATOM      3  C   UNL     1       0.727   9.515  22.373  0.00  0.00    +0.000 C 
ATOM      4  C   UNL     1       0.183   8.411  21.512  0.00  0.00    +0.000 C 
ATOM      5  O   UNL     1      -0.467   9.348  20.524  0.00  0.00    +0.000 OA
ATOM      6  C   UNL     1       1.417   7.862  20.776  0.00  0.00    +0.000 C 
ATOM      7  C   UNL     1       1.785   6.572  20.108  0.00  0.00    +0.000 C 
ATOM      8  O   UNL     1       1.581   5.449  20.534  0.00  0.00    +0.000 OA
ATOM      9  N   UNL     1       2.546   6.947  18.993  0.00  0.00    +0.000 N 
ATOM     10  C   UNL     1       2.419   8.297  18.696  0.00  0.00    +0.000 C 
ATOM     11  O   UNL     1       2.886   8.934  17.772  0.00  0.00    +0.000 OA
ATOM     12  C   UNL     1       1.285   8.713  19.541  0.00  0.00    +0.000 C 
ENDROOT
BRANCH   1  13
ATOM     13  C   UNL     1       0.777  11.115  19.051  0.00  0.00    +0.000 C 
BRANCH  13  16
ATOM     14  C   UNL     1      -1.156  11.983  17.759  0.00  0.00    +0.000 C 
ATOM     15  O   UNL     1      -0.962  13.134  18.084  0.00  0.00    +0.000 OA
ATOM     16  N   UNL     1      -0.350  10.947  18.126  0.00  0.00    +0.000 N 
ATOM     17  H   UNL     1      -0.604  10.024  17.784  0.00  0.00    +0.000 HD
BRANCH  14  18
ATOM     18  O   UNL     1      -2.198  11.526  17.007  0.00  0.00    +0.000 OA
BRANCH  18  20
ATOM     19  C   UNL     1      -3.582  11.841  19.024  0.00  0.00    +0.000 C 
ATOM     20  C   UNL     1      -3.430  11.130  17.675  0.00  0.00    +0.000 C 
ATOM     21  C   UNL     1      -3.495   9.603  17.829  0.00  0.00    +0.000 C 
ATOM     22  C   UNL     1      -4.599  11.584  16.778  0.00  0.00    +0.000 C 
ENDBRANCH  18  20
ENDBRANCH  14  18
ENDBRANCH  13  16
ENDBRANCH   1  13
BRANCH   9  23
ATOM     23  C   UNL     1       3.143   6.031  18.050  0.00  0.00    +0.000 C 
BRANCH  23  24
ATOM     24  C   UNL     1       4.650   5.982  18.101  0.00  0.00    +0.000 A 
ATOM     25  C   UNL     1       5.415   6.616  17.119  0.00  0.00    +0.000 A 
ATOM     26  C   UNL     1       6.808   6.678  17.235  0.00  0.00    +0.000 A 
ATOM     27  C   UNL     1       7.446   6.095  18.323  0.00  0.00    +0.000 A 
ATOM     28  C   UNL     1       6.696   5.429  19.291  0.00  0.00    +0.000 A 
ATOM     29  C   UNL     1       5.310   5.353  19.175  0.00  0.00    +0.000 A 
ENDBRANCH  23  24
ENDBRANCH   9  23
TORSDOF 6
ENDMDL
MODEL 7
REMARK VINA RESULT:      -7.0      3.243      5.015
REMARK  Name = 
REMARK  9 active torsions:
REMARK  status: ('A' for Active; 'I' for Inactive)
REMARK    1  A    between atoms: C_1  and  C_2
REMARK    2  A    between atoms: C_2  and  C_3
REMARK    3  A    between atoms: C_2  and  C_4
REMARK    4  A    between atoms: C_2  and  O_5
REMARK    5  A    between atoms: O_5  and  C_6
REMARK    6  A    between atoms: N_8  and  C_9
REMARK    7  A    between atoms: C_9  and  C_10
REMARK    8  A    between atoms: N_18  and  C_19
REMARK    9  A    between atoms: C_19  and  C_20
REMARK                            x       y       z     vdW  Elec       q    Type
REMARK                         _______ _______ _______ _____ _____    ______ ____
ROOT
ATOM      1  C   UNL     1       0.024  10.795  20.466  0.00  0.00    +0.000 C 
ATOM      2  C   UNL     1      -1.269  10.984  19.689  0.00  0.00    +0.000 C 
ATOM      3  C   UNL     1      -0.949  11.288  18.417  0.00  0.00    +0.000 C 
ATOM      4  C   UNL     1       0.547  11.167  18.344  0.00  0.00    +0.000 C 
ATOM      5  O   UNL     1       0.777  11.809  19.691  0.00  0.00    +0.000 OA
ATOM      6  C   UNL     1       0.817   9.671  18.573  0.00  0.00    +0.000 C 
ATOM      7  C   UNL     1       1.928   8.718  18.252  0.00  0.00    +0.000 C 
ATOM      8  O   UNL     1       2.528   8.630  17.195  0.00  0.00    +0.000 OA
ATOM      9  N   UNL     1       2.001   7.861  19.359  0.00  0.00    +0.000 N 
ATOM     10  C   UNL     1       1.315   8.360  20.458  0.00  0.00    +0.000 C 
ATOM     11  O   UNL     1       1.225   7.910  21.584  0.00  0.00    +0.000 OA
ATOM     12  C   UNL     1       1.026   9.750  20.061  0.00  0.00    +0.000 C 
ENDROOT
BRANCH   1  13
ATOM     13  C   UNL     1      -0.095  10.899  21.983  0.00  0.00    +0.000 C 
BRANCH  13  16
ATOM     14  C   UNL     1      -1.736  12.424  23.052  0.00  0.00    +0.000 C 
ATOM     15  O   UNL     1      -2.440  11.521  23.449  0.00  0.00    +0.000 OA
ATOM     16  N   UNL     1      -0.564  12.231  22.384  0.00  0.00    +0.000 N 
ATOM     17  H   UNL     1      -0.050  13.064  22.109  0.00  0.00    +0.000 HD
BRANCH  14  18
ATOM     18  O   UNL     1      -1.993  13.757  23.177  0.00  0.00    +0.000 OA
BRANCH  18  20
ATOM     19  C   UNL     1      -4.421  14.168  23.309  0.00  0.00    +0.000 C 
ATOM     20  C   UNL     1      -3.140  14.324  22.482  0.00  0.00    +0.000 C 
ATOM     21  C   UNL     1      -3.288  13.701  21.085  0.00  0.00    +0.000 C 
ATOM     22  C   UNL     1      -2.873  15.834  22.321  0.00  0.00    +0.000 C 
ENDBRANCH  18  20
ENDBRANCH  14  18
ENDBRANCH  13  16
ENDBRANCH   1  13
BRANCH   9  23
ATOM     23  C   UNL     1       2.920   6.757  19.494  0.00  0.00    +0.000 C 
BRANCH  23  24
ATOM     24  C   UNL     1       2.279   5.396  19.377  0.00  0.00    +0.000 A 
ATOM     25  C   UNL     1       1.815   4.730  20.514  0.00  0.00    +0.000 A 
ATOM     26  C   UNL     1       1.107   3.528  20.392  0.00  0.00    +0.000 A 
ATOM     27  C   UNL     1       0.871   2.979  19.138  0.00  0.00    +0.000 A 
ATOM     28  C   UNL     1       1.359   3.618  17.999  0.00  0.00    +0.000 A 
ATOM     29  C   UNL     1       2.075   4.807  18.114  0.00  0.00    +0.000 A 
ENDBRANCH  23  24
ENDBRANCH   9  23
TORSDOF 6
ENDMDL
MODEL 8
REMARK VINA RESULT:      -7.0      2.552      4.371
REMARK  Name = 
REMARK  9 active torsions:
REMARK  status: ('A' for Active; 'I' for Inactive)
REMARK    1  A    between atoms: C_1  and  C_2
REMARK    2  A    between atoms: C_2  and  C_3
REMARK    3  A    between atoms: C_2  and  C_4
REMARK    4  A    between atoms: C_2  and  O_5
REMARK    5  A    between atoms: O_5  and  C_6
REMARK    6  A    between atoms: N_8  and  C_9
REMARK    7  A    between atoms: C_9  and  C_10
REMARK    8  A    between atoms: N_18  and  C_19
REMARK    9  A    between atoms: C_19  and  C_20
REMARK                            x       y       z     vdW  Elec       q    Type
REMARK                         _______ _______ _______ _____ _____    ______ ____
ROOT
ATOM      1  C   UNL     1       2.588   6.930  18.592  0.00  0.00    +0.000 C 
ATOM      2  C   UNL     1       2.220   7.183  20.046  0.00  0.00    +0.000 C 
ATOM      3  C   UNL     1       1.960   5.993  20.621  0.00  0.00    +0.000 C 
ATOM      4  C   UNL     1       2.287   4.966  19.575  0.00  0.00    +0.000 C 
ATOM      5  O   UNL     1       1.687   5.763  18.443  0.00  0.00    +0.000 OA
ATOM      6  C   UNL     1       3.807   5.093  19.381  0.00  0.00    +0.000 C 
ATOM      7  C   UNL     1       4.904   4.209  18.873  0.00  0.00    +0.000 C 
ATOM      8  O   UNL     1       5.071   3.032  19.140  0.00  0.00    +0.000 OA
ATOM      9  N   UNL     1       5.765   5.065  18.174  0.00  0.00    +0.000 N 
ATOM     10  C   UNL     1       5.179   6.294  17.899  0.00  0.00    +0.000 C 
ATOM     11  O   UNL     1       5.615   7.235  17.266  0.00  0.00    +0.000 OA
ATOM     12  C   UNL     1       3.761   6.062  18.229  0.00  0.00    +0.000 C 
ENDROOT
BRANCH   1  13
ATOM     13  C   UNL     1       2.473   8.132  17.662  0.00  0.00    +0.000 C 
BRANCH  13  16
ATOM     14  C   UNL     1       1.338  10.274  18.199  0.00  0.00    +0.000 C 
ATOM     15  O   UNL     1       2.345  10.935  18.066  0.00  0.00    +0.000 OA
ATOM     16  N   UNL     1       1.282   8.930  17.978  0.00  0.00    +0.000 N 
ATOM     17  H   UNL     1       0.379   8.481  18.109  0.00  0.00    +0.000 HD
BRANCH  14  18
ATOM     18  O   UNL     1       0.121  10.736  18.604  0.00  0.00    +0.000 OA
BRANCH  18  20
ATOM     19  C   UNL     1       1.028  11.894  20.583  0.00  0.00    +0.000 C 
ATOM     20  C   UNL     1      -0.094  11.016  20.017  0.00  0.00    +0.000 C 
ATOM     21  C   UNL     1      -0.246   9.710  20.810  0.00  0.00    +0.000 C 
ATOM     22  C   UNL     1      -1.408  11.815  20.126  0.00  0.00    +0.000 C 
ENDBRANCH  18  20
ENDBRANCH  14  18
ENDBRANCH  13  16
ENDBRANCH   1  13
BRANCH   9  23
ATOM     23  C   UNL     1       6.987   4.661  17.521  0.00  0.00    +0.000 C 
BRANCH  23  24
ATOM     24  C   UNL     1       6.857   4.456  16.032  0.00  0.00    +0.000 A 
ATOM     25  C   UNL     1       5.870   3.613  15.515  0.00  0.00    +0.000 A 
ATOM     26  C   UNL     1       5.668   3.522  14.132  0.00  0.00    +0.000 A 
ATOM     27  C   UNL     1       6.459   4.259  13.260  0.00  0.00    +0.000 A 
ATOM     28  C   UNL     1       7.470   5.076  13.763  0.00  0.00    +0.000 A 
ATOM     29  C   UNL     1       7.684   5.162  15.136  0.00  0.00    +0.000 A 
ENDBRANCH  23  24
ENDBRANCH   9  23
TORSDOF 6
ENDMDL
MODEL 9
REMARK VINA RESULT:      -7.0      2.588      4.286
REMARK  Name = 
REMARK  9 active torsions:
REMARK  status: ('A' for Active; 'I' for Inactive)
REMARK    1  A    between atoms: C_1  and  C_2
REMARK    2  A    between atoms: C_2  and  C_3
REMARK    3  A    between atoms: C_2  and  C_4
REMARK    4  A    between atoms: C_2  and  O_5
REMARK    5  A    between atoms: O_5  and  C_6
REMARK    6  A    between atoms: N_8  and  C_9
REMARK    7  A    between atoms: C_9  and  C_10
REMARK    8  A    between atoms: N_18  and  C_19
REMARK    9  A    between atoms: C_19  and  C_20
REMARK                            x       y       z     vdW  Elec       q    Type
REMARK                         _______ _______ _______ _____ _____    ______ ____
ROOT
ATOM      1  C   UNL     1       2.462   6.822  18.648  0.00  0.00    +0.000 C 
ATOM      2  C   UNL     1       2.153   7.092  20.113  0.00  0.00    +0.000 C 
ATOM      3  C   UNL     1       1.945   5.907  20.718  0.00  0.00    +0.000 C 
ATOM      4  C   UNL     1       2.247   4.869  19.675  0.00  0.00    +0.000 C 
ATOM      5  O   UNL     1       1.580   5.635  18.558  0.00  0.00    +0.000 OA
ATOM      6  C   UNL     1       3.754   5.026  19.410  0.00  0.00    +0.000 C 
ATOM      7  C   UNL     1       4.847   4.156  18.866  0.00  0.00    +0.000 C 
ATOM      8  O   UNL     1       5.051   2.988  19.144  0.00  0.00    +0.000 OA
ATOM      9  N   UNL     1       5.656   5.019  18.116  0.00  0.00    +0.000 N 
ATOM     10  C   UNL     1       5.032   6.230  17.849  0.00  0.00    +0.000 C 
ATOM     11  O   UNL     1       5.419   7.170  17.182  0.00  0.00    +0.000 OA
ATOM     12  C   UNL     1       3.636   5.974  18.247  0.00  0.00    +0.000 C 
ENDROOT
BRANCH   1  13
ATOM     13  C   UNL     1       2.278   8.007  17.706  0.00  0.00    +0.000 C 
BRANCH  13  16
ATOM     14  C   UNL     1       0.757   9.879  18.292  0.00  0.00    +0.000 C 
ATOM     15  O   UNL     1      -0.149   9.467  17.602  0.00  0.00    +0.000 OA
ATOM     16  N   UNL     1       1.943   9.226  18.451  0.00  0.00    +0.000 N 
ATOM     17  H   UNL     1       2.627   9.660  19.065  0.00  0.00    +0.000 HD
BRANCH  14  18
ATOM     18  O   UNL     1       0.764  11.046  18.997  0.00  0.00    +0.000 OA
BRANCH  18  20
ATOM     19  C   UNL     1      -0.209   9.868  20.934  0.00  0.00    +0.000 C 
ATOM     20  C   UNL     1      -0.118  11.181  20.148  0.00  0.00    +0.000 C 
ATOM     21  C   UNL     1      -1.505  11.676  19.710  0.00  0.00    +0.000 C 
ATOM     22  C   UNL     1       0.509  12.237  21.080  0.00  0.00    +0.000 C 
ENDBRANCH  18  20
ENDBRANCH  14  18
ENDBRANCH  13  16
ENDBRANCH   1  13
BRANCH   9  23
ATOM     23  C   UNL     1       6.856   4.630  17.415  0.00  0.00    +0.000 C 
BRANCH  23  24
ATOM     24  C   UNL     1       6.703   4.552  15.916  0.00  0.00    +0.000 A 
ATOM     25  C   UNL     1       7.588   5.232  15.075  0.00  0.00    +0.000 A 
ATOM     26  C   UNL     1       7.523   5.058  13.688  0.00  0.00    +0.000 A 
ATOM     27  C   UNL     1       6.567   4.217  13.132  0.00  0.00    +0.000 A 
ATOM     28  C   UNL     1       5.656   3.562  13.959  0.00  0.00    +0.000 A 
ATOM     29  C   UNL     1       5.707   3.740  15.339  0.00  0.00    +0.000 A 
ENDBRANCH  23  24
ENDBRANCH   9  23
TORSDOF 6
ENDMDL
