MODEL 1
REMARK VINA RESULT:      -6.8      0.000      0.000
REMARK  Name = 
REMARK  7 active torsions:
REMARK  status: ('A' for Active; 'I' for Inactive)
REMARK    1  A    between atoms: C_5  and  C_6
REMARK    2  A    between atoms: C_6  and  C_7
REMARK    3  A    between atoms: C_7  and  N_8
REMARK    4  A    between atoms: N_8  and  S_9
REMARK    5  A    between atoms: S_9  and  C_12
REMARK    6  A    between atoms: N_20  and  C_21
REMARK    7  A    between atoms: C_21  and  C_22
REMARK                            x       y       z     vdW  Elec       q    Type
REMARK                         _______ _______ _______ _____ _____    ______ ____
ROOT
ATOM      1  C   UNL     1       1.816   5.637  18.115  0.00  0.00    +0.000 C 
ENDROOT
BRANCH   1   6
ATOM      2  O   UNL     1       0.269  10.366  18.360  0.00  0.00    +0.000 OA
ATOM      3  C   UNL     1       1.031   9.459  18.705  0.00  0.00    +0.000 C 
ATOM      4  C   UNL     1       1.732   8.648  17.632  0.00  0.00    +0.000 C 
ATOM      5  C   UNL     1       3.006   7.910  18.024  0.00  0.00    +0.000 C 
ATOM      6  C   UNL     1       2.787   6.615  18.820  0.00  0.00    +0.000 C 
ATOM      7  C   UNL     1       2.420   6.946  20.277  0.00  0.00    +0.000 C 
ATOM      8  C   UNL     1       1.140   7.753  20.455  0.00  0.00    +0.000 C 
ATOM      9  N   UNL     1       1.258   9.152  20.049  0.00  0.00    +0.000 N 
BRANCH   9  10
ATOM     10  C   UNL     1       0.752  10.167  20.977  0.00  0.00    +0.000 C 
BRANCH  10  11
ATOM     11  C   UNL     1      -0.271   9.657  21.954  0.00  0.00    +0.000 C 
ATOM     12  C   UNL     1       0.004   9.479  23.428  0.00  0.00    +0.000 C 
ATOM     13  C   UNL     1      -0.855  10.620  22.964  0.00  0.00    +0.000 C 
ENDBRANCH  10  11
ENDBRANCH   9  10
ENDBRANCH   1   6
BRANCH   1  14
ATOM     14  C   UNL     1       1.599   4.336  18.890  0.00  0.00    +0.000 C 
BRANCH  14  15
ATOM     15  N   UNL     1       2.137   3.205  18.131  0.00  0.00    +0.000 NA
ATOM     16  H   UNL     1       2.066   3.237  17.113  0.00  0.00    +0.000 HD
BRANCH  15  17
ATOM     17  S   UNL     1       3.665   2.637  18.599  0.00  0.00    +0.000 S 
ATOM     18  O   UNL     1       3.724   2.770  20.040  0.00  0.00    +0.000 OA
ATOM     19  O   UNL     1       3.858   1.358  17.950  0.00  0.00    +0.000 OA
BRANCH  17  20
ATOM     20  C   UNL     1       4.760   3.829  17.887  0.00  0.00    +0.000 A 
ATOM     21  C   UNL     1       5.671   4.502  18.705  0.00  0.00    +0.000 A 
ATOM     22  C   UNL     1       6.512   5.467  18.146  0.00  0.00    +0.000 A 
ATOM     23  C   UNL     1       6.441   5.750  16.780  0.00  0.00    +0.000 A 
ATOM     24  C   UNL     1       5.532   5.071  15.966  0.00  0.00    +0.000 A 
ATOM     25  C   UNL     1       4.688   4.104  16.517  0.00  0.00    +0.000 A 
ENDBRANCH  17  20
ENDBRANCH  15  17
ENDBRANCH  14  15
ENDBRANCH   1  14
TORSDOF 7
ENDMDL
MODEL 2
REMARK VINA RESULT:      -6.7      3.517      6.738
REMARK  Name = 
REMARK  7 active torsions:
REMARK  status: ('A' for Active; 'I' for Inactive)
REMARK    1  A    between atoms: C_5  and  C_6
REMARK    2  A    between atoms: C_6  and  C_7
REMARK    3  A    between atoms: C_7  and  N_8
REMARK    4  A    between atoms: N_8  and  S_9
REMARK    5  A    between atoms: S_9  and  C_12
REMARK    6  A    between atoms: N_20  and  C_21
REMARK    7  A    between atoms: C_21  and  C_22
REMARK                            x       y       z     vdW  Elec       q    Type
REMARK                         _______ _______ _______ _____ _____    ______ ____
ROOT
ATOM      1  C   UNL     1       3.834   5.700  19.234  0.00  0.00    +0.000 C 
ENDROOT
BRANCH   1   6
ATOM      2  O   UNL     1       7.805   6.666  16.386  0.00  0.00    +0.000 OA
ATOM      3  C   UNL     1       6.620   6.344  16.516  0.00  0.00    +0.000 C 
ATOM      4  C   UNL     1       5.719   7.212  17.373  0.00  0.00    +0.000 C 
ATOM      5  C   UNL     1       4.217   7.123  17.132  0.00  0.00    +0.000 C 
ATOM      6  C   UNL     1       3.537   5.881  17.725  0.00  0.00    +0.000 C 
ATOM      7  C   UNL     1       3.842   4.647  16.858  0.00  0.00    +0.000 C 
ATOM      8  C   UNL     1       5.317   4.285  16.742  0.00  0.00    +0.000 C 
ATOM      9  N   UNL     1       6.091   5.204  15.907  0.00  0.00    +0.000 N 
BRANCH   9  10
ATOM     10  C   UNL     1       6.973   4.612  14.897  0.00  0.00    +0.000 C 
BRANCH  10  11
ATOM     11  C   UNL     1       6.296   3.629  13.983  0.00  0.00    +0.000 C 
ATOM     12  C   UNL     1       5.191   4.010  13.027  0.00  0.00    +0.000 C 
ATOM     13  C   UNL     1       6.564   3.715  12.497  0.00  0.00    +0.000 C 
ENDBRANCH  10  11
ENDBRANCH   9  10
ENDBRANCH   1   6
BRANCH   1  14
ATOM     14  C   UNL     1       2.634   6.018  20.129  0.00  0.00    +0.000 C 
BRANCH  14  15
ATOM     15  N   UNL     1       2.602   5.100  21.269  0.00  0.00    +0.000 NA
ATOM     16  H   UNL     1       2.483   5.500  22.201  0.00  0.00    +0.000 HD
BRANCH  15  17
ATOM     17  S   UNL     1       1.643   3.711  21.098  0.00  0.00    +0.000 S 
ATOM     18  O   UNL     1       1.681   3.031  22.376  0.00  0.00    +0.000 OA
ATOM     19  O   UNL     1       0.392   4.132  20.503  0.00  0.00    +0.000 OA
BRANCH  17  20
ATOM     20  C   UNL     1       2.555   2.748  19.930  0.00  0.00    +0.000 A 
ATOM     21  C   UNL     1       1.968   2.409  18.708  0.00  0.00    +0.000 A 
ATOM     22  C   UNL     1       2.679   1.620  17.801  0.00  0.00    +0.000 A 
ATOM     23  C   UNL     1       3.966   1.180  18.115  0.00  0.00    +0.000 A 
ATOM     24  C   UNL     1       4.551   1.526  19.336  0.00  0.00    +0.000 A 
ATOM     25  C   UNL     1       3.847   2.314  20.248  0.00  0.00    +0.000 A 
ENDBRANCH  17  20
ENDBRANCH  15  17
ENDBRANCH  14  15
ENDBRANCH   1  14
TORSDOF 7
ENDMDL
MODEL 3
REMARK VINA RESULT:      -6.6      3.454      6.601
REMARK  Name = 
REMARK  7 active torsions:
REMARK  status: ('A' for Active; 'I' for Inactive)
REMARK    1  A    between atoms: C_5  and  C_6
REMARK    2  A    between atoms: C_6  and  C_7
REMARK    3  A    between atoms: C_7  and  N_8
REMARK    4  A    between atoms: N_8  and  S_9
REMARK    5  A    between atoms: S_9  and  C_12
REMARK    6  A    between atoms: N_20  and  C_21
REMARK    7  A    between atoms: C_21  and  C_22
REMARK                            x       y       z     vdW  Elec       q    Type
REMARK                         _______ _______ _______ _____ _____    ______ ____
ROOT
ATOM      1  C   UNL     1       3.836   6.114  19.289  0.00  0.00    +0.000 C 
ENDROOT
BRANCH   1   6
ATOM      2  O   UNL     1       7.873   6.744  16.439  0.00  0.00    +0.000 OA
ATOM      3  C   UNL     1       6.680   6.460  16.575  0.00  0.00    +0.000 C 
ATOM      4  C   UNL     1       5.785   7.419  17.338  0.00  0.00    +0.000 C 
ATOM      5  C   UNL     1       4.286   7.343  17.080  0.00  0.00    +0.000 C 
ATOM      6  C   UNL     1       3.567   6.171  17.764  0.00  0.00    +0.000 C 
ATOM      7  C   UNL     1       3.857   4.862  17.011  0.00  0.00    +0.000 C 
ATOM      8  C   UNL     1       5.325   4.458  16.953  0.00  0.00    +0.000 C 
ATOM      9  N   UNL     1       6.133   5.284  16.057  0.00  0.00    +0.000 N 
BRANCH   9  10
ATOM     10  C   UNL     1       7.016   4.589  15.116  0.00  0.00    +0.000 C 
BRANCH  10  11
ATOM     11  C   UNL     1       6.309   3.647  14.182  0.00  0.00    +0.000 C 
ATOM     12  C   UNL     1       5.184   4.072  13.270  0.00  0.00    +0.000 C 
ATOM     13  C   UNL     1       6.541   3.788  12.695  0.00  0.00    +0.000 C 
ENDBRANCH  10  11
ENDBRANCH   9  10
ENDBRANCH   1   6
BRANCH   1  14
ATOM     14  C   UNL     1       2.558   6.153  20.130  0.00  0.00    +0.000 C 
BRANCH  14  15
ATOM     15  N   UNL     1       2.640   5.167  21.210  0.00  0.00    +0.000 NA
ATOM     16  H   UNL     1       2.636   5.512  22.171  0.00  0.00    +0.000 HD
BRANCH  15  17
ATOM     17  S   UNL     1       1.640   3.804  21.069  0.00  0.00    +0.000 S 
ATOM     18  O   UNL     1       1.676   3.140  22.356  0.00  0.00    +0.000 OA
ATOM     19  O   UNL     1       0.395   4.251  20.484  0.00  0.00    +0.000 OA
BRANCH  17  20
ATOM     20  C   UNL     1       2.512   2.800  19.903  0.00  0.00    +0.000 A 
ATOM     21  C   UNL     1       3.833   2.429  20.167  0.00  0.00    +0.000 A 
ATOM     22  C   UNL     1       4.530   1.663  19.229  0.00  0.00    +0.000 A 
ATOM     23  C   UNL     1       3.906   1.272  18.042  0.00  0.00    +0.000 A 
ATOM     24  C   UNL     1       2.584   1.642  17.786  0.00  0.00    +0.000 A 
ATOM     25  C   UNL     1       1.880   2.406  18.719  0.00  0.00    +0.000 A 
ENDBRANCH  17  20
ENDBRANCH  15  17
ENDBRANCH  14  15
ENDBRANCH   1  14
TORSDOF 7
ENDMDL
MODEL 4
REMARK VINA RESULT:      -6.6      3.001      4.747
REMARK  Name = 
REMARK  7 active torsions:
REMARK  status: ('A' for Active; 'I' for Inactive)
REMARK    1  A    between atoms: C_5  and  C_6
REMARK    2  A    between atoms: C_6  and  C_7
REMARK    3  A    between atoms: C_7  and  N_8
REMARK    4  A    between atoms: N_8  and  S_9
REMARK    5  A    between atoms: S_9  and  C_12
REMARK    6  A    between atoms: N_20  and  C_21
REMARK    7  A    between atoms: C_21  and  C_22
REMARK                            x       y       z     vdW  Elec       q    Type
REMARK                         _______ _______ _______ _____ _____    ______ ____
ROOT
ATOM      1  C   UNL     1       3.972   2.781  17.604  0.00  0.00    +0.000 C 
ENDROOT
BRANCH   1   6
ATOM      2  O   UNL     1       2.086   3.830  22.094  0.00  0.00    +0.000 OA
ATOM      3  C   UNL     1       2.000   3.813  20.863  0.00  0.00    +0.000 C 
ATOM      4  C   UNL     1       2.283   2.515  20.131  0.00  0.00    +0.000 C 
ATOM      5  C   UNL     1       1.704   2.353  18.730  0.00  0.00    +0.000 C 
ATOM      6  C   UNL     1       2.458   3.108  17.626  0.00  0.00    +0.000 C 
ATOM      7  C   UNL     1       2.126   4.608  17.690  0.00  0.00    +0.000 C 
ATOM      8  C   UNL     1       2.512   5.302  18.990  0.00  0.00    +0.000 C 
ATOM      9  N   UNL     1       1.662   4.950  20.127  0.00  0.00    +0.000 N 
BRANCH   9  10
ATOM     10  C   UNL     1       1.148   6.050  20.948  0.00  0.00    +0.000 C 
BRANCH  10  11
ATOM     11  C   UNL     1       1.885   7.349  20.774  0.00  0.00    +0.000 C 
ATOM     12  C   UNL     1       1.301   8.547  20.065  0.00  0.00    +0.000 C 
ATOM     13  C   UNL     1       1.425   8.556  21.561  0.00  0.00    +0.000 C 
ENDBRANCH  10  11
ENDBRANCH   9  10
ENDBRANCH   1   6
BRANCH   1  14
ATOM     14  C   UNL     1       4.857   3.996  17.888  0.00  0.00    +0.000 C 
BRANCH  14  15
ATOM     15  N   UNL     1       5.996   4.012  16.969  0.00  0.00    +0.000 NA
ATOM     16  H   UNL     1       6.137   3.197  16.370  0.00  0.00    +0.000 HD
BRANCH  15  17
ATOM     17  S   UNL     1       6.240   5.440  16.088  0.00  0.00    +0.000 S 
ATOM     18  O   UNL     1       4.974   6.143  16.095  0.00  0.00    +0.000 OA
ATOM     19  O   UNL     1       7.447   6.053  16.600  0.00  0.00    +0.000 OA
BRANCH  17  20
ATOM     20  C   UNL     1       6.533   4.843  14.449  0.00  0.00    +0.000 A 
ATOM     21  C   UNL     1       7.542   5.422  13.676  0.00  0.00    +0.000 A 
ATOM     22  C   UNL     1       7.750   4.971  12.371  0.00  0.00    +0.000 A 
ATOM     23  C   UNL     1       6.955   3.948  11.849  0.00  0.00    +0.000 A 
ATOM     24  C   UNL     1       5.951   3.369  12.629  0.00  0.00    +0.000 A 
ATOM     25  C   UNL     1       5.737   3.814  13.935  0.00  0.00    +0.000 A 
ENDBRANCH  17  20
ENDBRANCH  15  17
ENDBRANCH  14  15
ENDBRANCH   1  14
TORSDOF 7
ENDMDL
MODEL 5
REMARK VINA RESULT:      -6.5      3.076      7.810
REMARK  Name = 
REMARK  7 active torsions:
REMARK  status: ('A' for Active; 'I' for Inactive)
REMARK    1  A    between atoms: C_5  and  C_6
REMARK    2  A    between atoms: C_6  and  C_7
REMARK    3  A    between atoms: C_7  and  N_8
REMARK    4  A    between atoms: N_8  and  S_9
REMARK    5  A    between atoms: S_9  and  C_12
REMARK    6  A    between atoms: N_20  and  C_21
REMARK    7  A    between atoms: C_21  and  C_22
REMARK                            x       y       z     vdW  Elec       q    Type
REMARK                         _______ _______ _______ _____ _____    ______ ____
ROOT
ATOM      1  C   UNL     1       5.667   4.565  18.334  0.00  0.00    +0.000 C 
ENDROOT
BRANCH   1   6
ATOM      2  O   UNL     1       8.168   5.416  14.111  0.00  0.00    +0.000 OA
ATOM      3  C   UNL     1       7.111   5.257  14.728  0.00  0.00    +0.000 C 
ATOM      4  C   UNL     1       6.864   6.084  15.975  0.00  0.00    +0.000 C 
ATOM      5  C   UNL     1       5.420   6.266  16.427  0.00  0.00    +0.000 C 
ATOM      6  C   UNL     1       4.806   5.054  17.143  0.00  0.00    +0.000 C 
ATOM      7  C   UNL     1       4.446   3.963  16.120  0.00  0.00    +0.000 C 
ATOM      8  C   UNL     1       5.620   3.410  15.321  0.00  0.00    +0.000 C 
ATOM      9  N   UNL     1       6.145   4.336  14.318  0.00  0.00    +0.000 N 
BRANCH   9  10
ATOM     10  C   UNL     1       6.370   3.808  12.970  0.00  0.00    +0.000 C 
BRANCH  10  11
ATOM     11  C   UNL     1       5.288   2.889  12.476  0.00  0.00    +0.000 C 
ATOM     12  C   UNL     1       4.490   3.144  11.220  0.00  0.00    +0.000 C 
ATOM     13  C   UNL     1       5.541   2.073  11.228  0.00  0.00    +0.000 C 
ENDBRANCH  10  11
ENDBRANCH   9  10
ENDBRANCH   1   6
BRANCH   1  14
ATOM     14  C   UNL     1       4.855   4.333  19.611  0.00  0.00    +0.000 C 
BRANCH  14  15
ATOM     15  N   UNL     1       4.151   5.561  19.986  0.00  0.00    +0.000 NA
ATOM     16  H   UNL     1       4.479   6.441  19.585  0.00  0.00    +0.000 HD
BRANCH  15  17
ATOM     17  S   UNL     1       2.456   5.500  19.964  0.00  0.00    +0.000 S 
ATOM     18  O   UNL     1       2.095   4.641  18.854  0.00  0.00    +0.000 OA
ATOM     19  O   UNL     1       2.025   5.209  21.315  0.00  0.00    +0.000 OA
BRANCH  17  20
ATOM     20  C   UNL     1       2.010   7.159  19.548  0.00  0.00    +0.000 A 
ATOM     21  C   UNL     1       1.412   7.974  20.513  0.00  0.00    +0.000 A 
ATOM     22  C   UNL     1       1.032   9.274  20.173  0.00  0.00    +0.000 A 
ATOM     23  C   UNL     1       1.252   9.752  18.879  0.00  0.00    +0.000 A 
ATOM     24  C   UNL     1       1.855   8.935  17.919  0.00  0.00    +0.000 A 
ATOM     25  C   UNL     1       2.239   7.634  18.252  0.00  0.00    +0.000 A 
ENDBRANCH  17  20
ENDBRANCH  15  17
ENDBRANCH  14  15
ENDBRANCH   1  14
TORSDOF 7
ENDMDL
MODEL 6
REMARK VINA RESULT:      -6.5      2.318      3.575
REMARK  Name = 
REMARK  7 active torsions:
REMARK  status: ('A' for Active; 'I' for Inactive)
REMARK    1  A    between atoms: C_5  and  C_6
REMARK    2  A    between atoms: C_6  and  C_7
REMARK    3  A    between atoms: C_7  and  N_8
REMARK    4  A    between atoms: N_8  and  S_9
REMARK    5  A    between atoms: S_9  and  C_12
REMARK    6  A    between atoms: N_20  and  C_21
REMARK    7  A    between atoms: C_21  and  C_22
REMARK                            x       y       z     vdW  Elec       q    Type
REMARK                         _______ _______ _______ _____ _____    ______ ____
ROOT
ATOM      1  C   UNL     1       4.319   6.983  18.339  0.00  0.00    +0.000 C 
ENDROOT
BRANCH   1   6
ATOM      2  O   UNL     1       1.165   8.573  21.851  0.00  0.00    +0.000 OA
ATOM      3  C   UNL     1       1.404   8.221  20.692  0.00  0.00    +0.000 C 
ATOM      4  C   UNL     1       2.133   6.910  20.465  0.00  0.00    +0.000 C 
ATOM      5  C   UNL     1       1.982   6.245  19.103  0.00  0.00    +0.000 C 
ATOM      6  C   UNL     1       2.817   6.873  17.978  0.00  0.00    +0.000 C 
ATOM      7  C   UNL     1       2.171   8.187  17.510  0.00  0.00    +0.000 C 
ATOM      8  C   UNL     1       2.054   9.268  18.578  0.00  0.00    +0.000 C 
ATOM      9  N   UNL     1       1.034   8.995  19.590  0.00  0.00    +0.000 N 
BRANCH   9  10
ATOM     10  C   UNL     1       0.106  10.080  19.919  0.00  0.00    +0.000 C 
BRANCH  10  11
ATOM     11  C   UNL     1      -0.476  10.781  18.723  0.00  0.00    +0.000 C 
ATOM     12  C   UNL     1      -1.393  10.107  17.730  0.00  0.00    +0.000 C 
ATOM     13  C   UNL     1      -1.956  11.093  18.712  0.00  0.00    +0.000 C 
ENDBRANCH  10  11
ENDBRANCH   9  10
ENDBRANCH   1   6
BRANCH   1  14
ATOM     14  C   UNL     1       5.242   6.902  17.120  0.00  0.00    +0.000 C 
BRANCH  14  15
ATOM     15  N   UNL     1       4.927   5.708  16.333  0.00  0.00    +0.000 NA
ATOM     16  H   UNL     1       4.988   5.777  15.316  0.00  0.00    +0.000 HD
BRANCH  15  17
ATOM     17  S   UNL     1       5.606   4.247  16.866  0.00  0.00    +0.000 S 
ATOM     18  O   UNL     1       5.776   3.425  15.686  0.00  0.00    +0.000 OA
ATOM     19  O   UNL     1       6.726   4.587  17.717  0.00  0.00    +0.000 OA
BRANCH  17  20
ATOM     20  C   UNL     1       4.311   3.549  17.846  0.00  0.00    +0.000 A 
ATOM     21  C   UNL     1       4.523   3.328  19.209  0.00  0.00    +0.000 A 
ATOM     22  C   UNL     1       3.510   2.746  19.975  0.00  0.00    +0.000 A 
ATOM     23  C   UNL     1       2.297   2.393  19.379  0.00  0.00    +0.000 A 
ATOM     24  C   UNL     1       2.089   2.621  18.016  0.00  0.00    +0.000 A 
ATOM     25  C   UNL     1       3.096   3.203  17.244  0.00  0.00    +0.000 A 
ENDBRANCH  17  20
ENDBRANCH  15  17
ENDBRANCH  14  15
ENDBRANCH   1  14
TORSDOF 7
ENDMDL
MODEL 7
REMARK VINA RESULT:      -6.4      0.773      1.318
REMARK  Name = 
REMARK  7 active torsions:
REMARK  status: ('A' for Active; 'I' for Inactive)
REMARK    1  A    between atoms: C_5  and  C_6
REMARK    2  A    between atoms: C_6  and  C_7
REMARK    3  A    between atoms: C_7  and  N_8
REMARK    4  A    between atoms: N_8  and  S_9
REMARK    5  A    between atoms: S_9  and  C_12
REMARK    6  A    between atoms: N_20  and  C_21
REMARK    7  A    between atoms: C_21  and  C_22
REMARK                            x       y       z     vdW  Elec       q    Type
REMARK                         _______ _______ _______ _____ _____    ______ ____
ROOT
ATOM      1  C   UNL     1       1.430   5.061  18.692  0.00  0.00    +0.000 C 
ENDROOT
BRANCH   1   6
ATOM      2  O   UNL     1       0.904   9.999  18.296  0.00  0.00    +0.000 OA
ATOM      3  C   UNL     1       1.398   9.005  18.835  0.00  0.00    +0.000 C 
ATOM      4  C   UNL     1       2.059   7.955  17.961  0.00  0.00    +0.000 C 
ATOM      5  C   UNL     1       3.076   7.030  18.617  0.00  0.00    +0.000 C 
ATOM      6  C   UNL     1       2.474   5.902  19.468  0.00  0.00    +0.000 C 
ATOM      7  C   UNL     1       1.979   6.461  20.812  0.00  0.00    +0.000 C 
ATOM      8  C   UNL     1       0.887   7.520  20.711  0.00  0.00    +0.000 C 
ATOM      9  N   UNL     1       1.358   8.813  20.217  0.00  0.00    +0.000 N 
BRANCH   9  10
ATOM     10  C   UNL     1       0.949  10.006  20.965  0.00  0.00    +0.000 C 
BRANCH  10  11
ATOM     11  C   UNL     1      -0.284   9.819  21.805  0.00  0.00    +0.000 C 
ATOM     12  C   UNL     1      -0.252   9.694  23.309  0.00  0.00    +0.000 C 
ATOM     13  C   UNL     1      -0.748  10.962  22.678  0.00  0.00    +0.000 C 
ENDBRANCH  10  11
ENDBRANCH   9  10
ENDBRANCH   1   6
BRANCH   1  14
ATOM     14  C   UNL     1       1.196   3.677  19.301  0.00  0.00    +0.000 C 
BRANCH  14  15
ATOM     15  N   UNL     1       2.479   3.024  19.568  0.00  0.00    +0.000 NA
ATOM     16  H   UNL     1       2.542   2.410  20.382  0.00  0.00    +0.000 HD
BRANCH  15  17
ATOM     17  S   UNL     1       3.264   2.323  18.238  0.00  0.00    +0.000 S 
ATOM     18  O   UNL     1       3.997   1.184  18.753  0.00  0.00    +0.000 OA
ATOM     19  O   UNL     1       2.275   2.174  17.193  0.00  0.00    +0.000 OA
BRANCH  17  20
ATOM     20  C   UNL     1       4.430   3.567  17.772  0.00  0.00    +0.000 A 
ATOM     21  C   UNL     1       4.422   4.064  16.466  0.00  0.00    +0.000 A 
ATOM     22  C   UNL     1       5.365   5.024  16.092  0.00  0.00    +0.000 A 
ATOM     23  C   UNL     1       6.304   5.481  17.019  0.00  0.00    +0.000 A 
ATOM     24  C   UNL     1       6.305   4.985  18.324  0.00  0.00    +0.000 A 
ATOM     25  C   UNL     1       5.365   4.026  18.707  0.00  0.00    +0.000 A 
ENDBRANCH  17  20
ENDBRANCH  15  17
ENDBRANCH  14  15
ENDBRANCH   1  14
TORSDOF 7
ENDMDL
MODEL 8
REMARK VINA RESULT:      -6.4      2.532      3.649
REMARK  Name = 
REMARK  7 active torsions:
REMARK  status: ('A' for Active; 'I' for Inactive)
REMARK    1  A    between atoms: C_5  and  C_6
REMARK    2  A    between atoms: C_6  and  C_7
REMARK    3  A    between atoms: C_7  and  N_8
REMARK    4  A    between atoms: N_8  and  S_9
REMARK    5  A    between atoms: S_9  and  C_12
REMARK    6  A    between atoms: N_20  and  C_21
REMARK    7  A    between atoms: C_21  and  C_22
REMARK                            x       y       z     vdW  Elec       q    Type
REMARK                         _______ _______ _______ _____ _____    ______ ____
ROOT
ATOM      1  C   UNL     1       4.151   7.384  18.036  0.00  0.00    +0.000 C 
ENDROOT
BRANCH   1   6
ATOM      2  O   UNL     1       1.276   8.574  21.926  0.00  0.00    +0.000 OA
ATOM      3  C   UNL     1       1.419   8.304  20.731  0.00  0.00    +0.000 C 
ATOM      4  C   UNL     1       2.194   7.056  20.354  0.00  0.00    +0.000 C 
ATOM      5  C   UNL     1       1.946   6.460  18.973  0.00  0.00    +0.000 C 
ATOM      6  C   UNL     1       2.628   7.201  17.814  0.00  0.00    +0.000 C 
ATOM      7  C   UNL     1       1.866   8.498  17.494  0.00  0.00    +0.000 C 
ATOM      8  C   UNL     1       1.795   9.507  18.634  0.00  0.00    +0.000 C 
ATOM      9  N   UNL     1       0.898   9.114  19.720  0.00  0.00    +0.000 N 
BRANCH   9  10
ATOM     10  C   UNL     1      -0.052  10.120  20.203  0.00  0.00    +0.000 C 
BRANCH  10  11
ATOM     11  C   UNL     1      -0.594  11.025  19.132  0.00  0.00    +0.000 C 
ATOM     12  C   UNL     1      -1.776  10.669  18.263  0.00  0.00    +0.000 C 
ATOM     13  C   UNL     1      -1.934  11.690  19.352  0.00  0.00    +0.000 C 
ENDBRANCH  10  11
ENDBRANCH   9  10
ENDBRANCH   1   6
BRANCH   1  14
ATOM     14  C   UNL     1       4.998   6.866  16.871  0.00  0.00    +0.000 C 
BRANCH  14  15
ATOM     15  N   UNL     1       6.291   6.389  17.365  0.00  0.00    +0.000 NA
ATOM     16  H   UNL     1       6.612   6.736  18.271  0.00  0.00    +0.000 HD
BRANCH  15  17
ATOM     17  S   UNL     1       6.586   4.724  17.232  0.00  0.00    +0.000 S 
ATOM     18  O   UNL     1       6.678   4.441  15.814  0.00  0.00    +0.000 OA
ATOM     19  O   UNL     1       7.673   4.414  18.136  0.00  0.00    +0.000 OA
BRANCH  17  20
ATOM     20  C   UNL     1       5.089   4.012  17.844  0.00  0.00    +0.000 A 
ATOM     21  C   UNL     1       4.100   3.608  16.943  0.00  0.00    +0.000 A 
ATOM     22  C   UNL     1       2.905   3.075  17.430  0.00  0.00    +0.000 A 
ATOM     23  C   UNL     1       2.705   2.946  18.807  0.00  0.00    +0.000 A 
ATOM     24  C   UNL     1       3.699   3.346  19.703  0.00  0.00    +0.000 A 
ATOM     25  C   UNL     1       4.898   3.879  19.224  0.00  0.00    +0.000 A 
ENDBRANCH  17  20
ENDBRANCH  15  17
ENDBRANCH  14  15
ENDBRANCH   1  14
TORSDOF 7
ENDMDL
MODEL 9
REMARK VINA RESULT:      -6.4      2.944      7.461
REMARK  Name = 
REMARK  7 active torsions:
REMARK  status: ('A' for Active; 'I' for Inactive)
REMARK    1  A    between atoms: C_5  and  C_6
REMARK    2  A    between atoms: C_6  and  C_7
REMARK    3  A    between atoms: C_7  and  N_8
REMARK    4  A    between atoms: N_8  and  S_9
REMARK    5  A    between atoms: S_9  and  C_12
REMARK    6  A    between atoms: N_20  and  C_21
REMARK    7  A    between atoms: C_21  and  C_22
REMARK                            x       y       z     vdW  Elec       q    Type
REMARK                         _______ _______ _______ _____ _____    ______ ____
ROOT
ATOM      1  C   UNL     1       2.550   5.620  20.396  0.00  0.00    +0.000 C 
ENDROOT
BRANCH   1   6
ATOM      2  O   UNL     1       6.007   7.186  17.169  0.00  0.00    +0.000 OA
ATOM      3  C   UNL     1       5.130   6.388  17.511  0.00  0.00    +0.000 C 
ATOM      4  C   UNL     1       3.775   6.928  17.928  0.00  0.00    +0.000 C 
ATOM      5  C   UNL     1       2.584   5.981  17.855  0.00  0.00    +0.000 C 
ATOM      6  C   UNL     1       2.497   4.958  18.996  0.00  0.00    +0.000 C 
ATOM      7  C   UNL     1       3.523   3.834  18.778  0.00  0.00    +0.000 C 
ATOM      8  C   UNL     1       4.979   4.281  18.746  0.00  0.00    +0.000 C 
ATOM      9  N   UNL     1       5.350   5.009  17.533  0.00  0.00    +0.000 N 
BRANCH   9  10
ATOM     10  C   UNL     1       6.582   4.599  16.854  0.00  0.00    +0.000 C 
BRANCH  10  11
ATOM     11  C   UNL     1       6.366   3.957  15.512  0.00  0.00    +0.000 C 
ATOM     12  C   UNL     1       5.360   4.459  14.504  0.00  0.00    +0.000 C 
ATOM     13  C   UNL     1       6.824   4.693  14.272  0.00  0.00    +0.000 C 
ENDBRANCH  10  11
ENDBRANCH   9  10
ENDBRANCH   1   6
BRANCH   1  14
ATOM     14  C   UNL     1       1.373   6.560  20.666  0.00  0.00    +0.000 C 
BRANCH  14  15
ATOM     15  N   UNL     1       1.849   7.787  21.307  0.00  0.00    +0.000 NA
ATOM     16  H   UNL     1       2.655   8.260  20.894  0.00  0.00    +0.000 HD
BRANCH  15  17
ATOM     17  S   UNL     1       0.666   8.919  21.751  0.00  0.00    +0.000 S 
ATOM     18  O   UNL     1      -0.613   8.283  21.512  0.00  0.00    +0.000 OA
ATOM     19  O   UNL     1       1.029   9.418  23.060  0.00  0.00    +0.000 OA
BRANCH  17  20
ATOM     20  C   UNL     1       0.881  10.200  20.552  0.00  0.00    +0.000 A 
ATOM     21  C   UNL     1       0.747  11.536  20.941  0.00  0.00    +0.000 A 
ATOM     22  C   UNL     1       0.886  12.544  19.985  0.00  0.00    +0.000 A 
ATOM     23  C   UNL     1       1.159  12.216  18.655  0.00  0.00    +0.000 A 
ATOM     24  C   UNL     1       1.297  10.880  18.274  0.00  0.00    +0.000 A 
ATOM     25  C   UNL     1       1.161   9.865  19.223  0.00  0.00    +0.000 A 
ENDBRANCH  17  20
ENDBRANCH  15  17
ENDBRANCH  14  15
ENDBRANCH   1  14
TORSDOF 7
ENDMDL
