MODEL 1
REMARK VINA RESULT:      -8.4      0.000      0.000
REMARK  Name = 
REMARK  5 active torsions:
REMARK  status: ('A' for Active; 'I' for Inactive)
REMARK    1  A    between atoms: C_1  and  C_2
REMARK    2  A    between atoms: C_4  and  N_5
REMARK    3  A    between atoms: C_6  and  C_8
REMARK    4  A    between atoms: N_11  and  S_12
REMARK    5  A    between atoms: S_12  and  C_15
REMARK                            x       y       z     vdW  Elec       q    Type
REMARK                         _______ _______ _______ _____ _____    ______ ____
ROOT
ATOM      1  C   UNL     1       8.092   5.952  18.513  0.00  0.00    +0.000 C 
ATOM      2  C   UNL     1       7.760   5.101  17.277  0.00  0.00    +0.000 C 
ATOM      3  C   UNL     1       6.286   5.207  16.883  0.00  0.00    +0.000 C 
ATOM      4  N   UNL     1       5.400   4.859  18.031  0.00  0.00    +0.000 NA
ATOM      5  C   UNL     1       5.695   5.654  19.256  0.00  0.00    +0.000 C 
ATOM      6  C   UNL     1       7.163   5.528  19.650  0.00  0.00    +0.000 C 
ENDROOT
BRANCH   1   8
ATOM      7  N   UNL     1       8.803   8.261  18.970  0.00  0.00    +0.000 N 
ATOM      8  C   UNL     1       8.013   7.446  18.175  0.00  0.00    +0.000 C 
ATOM      9  O   UNL     1       7.304   7.833  17.251  0.00  0.00    +0.000 OA
ATOM     10  H   UNL     1       9.330   7.828  19.718  0.00  0.00    +0.000 HD
BRANCH   7  14
ATOM     11  C   UNL     1      10.182  12.628  20.909  0.00  0.00    +0.000 C 
ATOM     12  C   UNL     1       9.530  11.860  19.791  0.00  0.00    +0.000 A 
ATOM     13  C   UNL     1       9.428  10.463  19.912  0.00  0.00    +0.000 A 
ATOM     14  C   UNL     1       8.861   9.672  18.908  0.00  0.00    +0.000 A 
ATOM     15  C   UNL     1       8.341  10.306  17.774  0.00  0.00    +0.000 A 
ATOM     16  C   UNL     1       8.432  11.695  17.636  0.00  0.00    +0.000 A 
ATOM     17  C   UNL     1       9.030  12.468  18.636  0.00  0.00    +0.000 A 
ATOM     18 BR   UNL     1       9.139  14.343  18.364  0.00  0.00    +0.000 Br
ENDBRANCH   7  14
ENDBRANCH   1   8
BRANCH   4  19
ATOM     19  S   UNL     1       3.718   4.913  17.650  0.00  0.00    +0.000 S 
ATOM     20  O   UNL     1       3.311   6.292  17.506  0.00  0.00    +0.000 OA
ATOM     21  O   UNL     1       3.507   3.978  16.563  0.00  0.00    +0.000 OA
BRANCH  19  22
ATOM     22  C   UNL     1       2.918   4.267  19.070  0.00  0.00    +0.000 A 
ATOM     23  C   UNL     1       1.664   4.773  19.481  0.00  0.00    +0.000 A 
ATOM     24  C   UNL     1       0.980   4.292  20.621  0.00  0.00    +0.000 A 
ATOM     25  C   UNL     1       1.489   3.274  21.443  0.00  0.00    +0.000 A 
ATOM     26  C   UNL     1       2.747   2.736  21.074  0.00  0.00    +0.000 A 
ATOM     27  N   UNL     1       3.397   1.761  21.725  0.00  0.00    +0.000 NA
ATOM     28  S   UNL     1       4.812   1.505  20.897  0.00  0.00    +0.000 S 
ATOM     29  N   UNL     1       4.651   2.599  19.666  0.00  0.00    +0.000 NA
ATOM     30  C   UNL     1       3.486   3.242  19.855  0.00  0.00    +0.000 A 
ENDBRANCH  19  22
ENDBRANCH   4  19
TORSDOF 4
ENDMDL
MODEL 2
REMARK VINA RESULT:      -8.4      7.434     10.017
REMARK  Name = 
REMARK  5 active torsions:
REMARK  status: ('A' for Active; 'I' for Inactive)
REMARK    1  A    between atoms: C_1  and  C_2
REMARK    2  A    between atoms: C_4  and  N_5
REMARK    3  A    between atoms: C_6  and  C_8
REMARK    4  A    between atoms: N_11  and  S_12
REMARK    5  A    between atoms: S_12  and  C_15
REMARK                            x       y       z     vdW  Elec       q    Type
REMARK                         _______ _______ _______ _____ _____    ______ ____
ROOT
ATOM      1  C   UNL     1       0.635   9.723  22.510  0.00  0.00    +0.000 C 
ATOM      2  C   UNL     1      -0.737  10.383  22.718  0.00  0.00    +0.000 C 
ATOM      3  C   UNL     1      -1.253  11.055  21.444  0.00  0.00    +0.000 C 
ATOM      4  N   UNL     1      -0.258  12.032  20.916  0.00  0.00    +0.000 NA
ATOM      5  C   UNL     1       1.091  11.437  20.710  0.00  0.00    +0.000 C 
ATOM      6  C   UNL     1       1.603  10.785  21.990  0.00  0.00    +0.000 C 
ENDROOT
BRANCH   1   8
ATOM      7  N   UNL     1       1.713   7.876  21.297  0.00  0.00    +0.000 N 
ATOM      8  C   UNL     1       0.512   8.499  21.594  0.00  0.00    +0.000 C 
ATOM      9  O   UNL     1      -0.592   8.133  21.199  0.00  0.00    +0.000 OA
ATOM     10  H   UNL     1       2.563   8.284  21.664  0.00  0.00    +0.000 HD
BRANCH   7  14
ATOM     11  C   UNL     1       1.166   3.039  20.281  0.00  0.00    +0.000 C 
ATOM     12  C   UNL     1       1.624   4.405  19.848  0.00  0.00    +0.000 A 
ATOM     13  C   UNL     1       1.504   5.469  20.758  0.00  0.00    +0.000 A 
ATOM     14  C   UNL     1       1.881   6.774  20.428  0.00  0.00    +0.000 A 
ATOM     15  C   UNL     1       2.436   7.007  19.164  0.00  0.00    +0.000 A 
ATOM     16  C   UNL     1       2.565   5.961  18.245  0.00  0.00    +0.000 A 
ATOM     17  C   UNL     1       2.154   4.667  18.581  0.00  0.00    +0.000 A 
ATOM     18 BR   UNL     1       2.337   3.308  17.270  0.00  0.00    +0.000 Br
ENDBRANCH   7  14
ENDBRANCH   1   8
BRANCH   4  19
ATOM     19  S   UNL     1      -0.789  12.866  19.501  0.00  0.00    +0.000 S 
ATOM     20  O   UNL     1      -1.626  13.976  19.894  0.00  0.00    +0.000 OA
ATOM     21  O   UNL     1       0.389  13.097  18.688  0.00  0.00    +0.000 OA
BRANCH  19  22
ATOM     22  C   UNL     1      -1.800  11.711  18.655  0.00  0.00    +0.000 A 
ATOM     23  C   UNL     1      -1.225  10.738  17.806  0.00  0.00    +0.000 A 
ATOM     24  C   UNL     1      -1.996   9.788  17.097  0.00  0.00    +0.000 A 
ATOM     25  C   UNL     1      -3.397   9.733  17.173  0.00  0.00    +0.000 A 
ATOM     26  C   UNL     1      -4.021  10.691  18.009  0.00  0.00    +0.000 A 
ATOM     27  N   UNL     1      -5.342  10.801  18.215  0.00  0.00    +0.000 NA
ATOM     28  S   UNL     1      -5.550  12.071  19.263  0.00  0.00    +0.000 S 
ATOM     29  N   UNL     1      -3.977  12.521  19.519  0.00  0.00    +0.000 NA
ATOM     30  C   UNL     1      -3.206  11.710  18.774  0.00  0.00    +0.000 A 
ENDBRANCH  19  22
ENDBRANCH   4  19
TORSDOF 4
ENDMDL
MODEL 3
REMARK VINA RESULT:      -8.3      8.009     10.057
REMARK  Name = 
REMARK  5 active torsions:
REMARK  status: ('A' for Active; 'I' for Inactive)
REMARK    1  A    between atoms: C_1  and  C_2
REMARK    2  A    between atoms: C_4  and  N_5
REMARK    3  A    between atoms: C_6  and  C_8
REMARK    4  A    between atoms: N_11  and  S_12
REMARK    5  A    between atoms: S_12  and  C_15
REMARK                            x       y       z     vdW  Elec       q    Type
REMARK                         _______ _______ _______ _____ _____    ______ ____
ROOT
ATOM      1  C   UNL     1       1.079   9.902  18.130  0.00  0.00    +0.000 C 
ATOM      2  C   UNL     1       1.729  11.214  18.600  0.00  0.00    +0.000 C 
ATOM      3  C   UNL     1       1.287  11.604  20.011  0.00  0.00    +0.000 C 
ATOM      4  N   UNL     1      -0.199  11.675  20.104  0.00  0.00    +0.000 NA
ATOM      5  C   UNL     1      -0.872  10.427  19.649  0.00  0.00    +0.000 C 
ATOM      6  C   UNL     1      -0.438  10.056  18.234  0.00  0.00    +0.000 C 
ENDROOT
BRANCH   1   8
ATOM      7  N   UNL     1       2.157   7.693  18.144  0.00  0.00    +0.000 N 
ATOM      8  C   UNL     1       1.635   8.712  18.923  0.00  0.00    +0.000 C 
ATOM      9  O   UNL     1       1.609   8.722  20.150  0.00  0.00    +0.000 OA
ATOM     10  H   UNL     1       2.102   7.787  17.138  0.00  0.00    +0.000 HD
BRANCH   7  14
ATOM     11  C   UNL     1       2.048   3.921  21.383  0.00  0.00    +0.000 C 
ATOM     12  C   UNL     1       2.661   4.561  20.167  0.00  0.00    +0.000 A 
ATOM     13  C   UNL     1       2.174   5.814  19.755  0.00  0.00    +0.000 A 
ATOM     14  C   UNL     1       2.669   6.465  18.622  0.00  0.00    +0.000 A 
ATOM     15  C   UNL     1       3.713   5.862  17.910  0.00  0.00    +0.000 A 
ATOM     16  C   UNL     1       4.212   4.617  18.305  0.00  0.00    +0.000 A 
ATOM     17  C   UNL     1       3.684   3.965  19.424  0.00  0.00    +0.000 A 
ATOM     18 BR   UNL     1       4.395   2.266  19.880  0.00  0.00    +0.000 Br
ENDBRANCH   7  14
ENDBRANCH   1   8
BRANCH   4  19
ATOM     19  S   UNL     1      -0.774  12.154  21.659  0.00  0.00    +0.000 S 
ATOM     20  O   UNL     1      -0.628  11.048  22.577  0.00  0.00    +0.000 OA
ATOM     21  O   UNL     1      -0.156  13.431  21.957  0.00  0.00    +0.000 OA
BRANCH  19  22
ATOM     22  C   UNL     1      -2.490  12.435  21.434  0.00  0.00    +0.000 A 
ATOM     23  C   UNL     1      -3.021  12.642  20.140  0.00  0.00    +0.000 A 
ATOM     24  C   UNL     1      -4.395  12.879  19.904  0.00  0.00    +0.000 A 
ATOM     25  C   UNL     1      -5.347  12.933  20.935  0.00  0.00    +0.000 A 
ATOM     26  C   UNL     1      -4.863  12.735  22.251  0.00  0.00    +0.000 A 
ATOM     27  N   UNL     1      -5.610  12.748  23.365  0.00  0.00    +0.000 NA
ATOM     28  S   UNL     1      -4.572  12.475  24.631  0.00  0.00    +0.000 S 
ATOM     29  N   UNL     1      -3.138  12.306  23.822  0.00  0.00    +0.000 NA
ATOM     30  C   UNL     1      -3.396  12.480  22.514  0.00  0.00    +0.000 A 
ENDBRANCH  19  22
ENDBRANCH   4  19
TORSDOF 4
ENDMDL
MODEL 4
REMARK VINA RESULT:      -8.2      7.661     10.043
REMARK  Name = 
REMARK  5 active torsions:
REMARK  status: ('A' for Active; 'I' for Inactive)
REMARK    1  A    between atoms: C_1  and  C_2
REMARK    2  A    between atoms: C_4  and  N_5
REMARK    3  A    between atoms: C_6  and  C_8
REMARK    4  A    between atoms: N_11  and  S_12
REMARK    5  A    between atoms: S_12  and  C_15
REMARK                            x       y       z     vdW  Elec       q    Type
REMARK                         _______ _______ _______ _____ _____    ______ ____
ROOT
ATOM      1  C   UNL     1       1.066   9.239  21.379  0.00  0.00    +0.000 C 
ATOM      2  C   UNL     1      -0.466   9.188  21.500  0.00  0.00    +0.000 C 
ATOM      3  C   UNL     1      -1.162   9.603  20.202  0.00  0.00    +0.000 C 
ATOM      4  N   UNL     1      -0.700  10.950  19.757  0.00  0.00    +0.000 NA
ATOM      5  C   UNL     1       0.781  11.048  19.636  0.00  0.00    +0.000 C 
ATOM      6  C   UNL     1       1.464  10.648  20.940  0.00  0.00    +0.000 C 
ENDROOT
BRANCH   1   8
ATOM      7  N   UNL     1       1.589   6.868  20.999  0.00  0.00    +0.000 N 
ATOM      8  C   UNL     1       1.569   8.135  20.441  0.00  0.00    +0.000 C 
ATOM      9  O   UNL     1       1.899   8.406  19.290  0.00  0.00    +0.000 OA
ATOM     10  H   UNL     1       1.314   6.771  21.968  0.00  0.00    +0.000 HD
BRANCH   7  14
ATOM     11  C   UNL     1       5.250   4.308  18.814  0.00  0.00    +0.000 C 
ATOM     12  C   UNL     1       3.830   4.364  19.307  0.00  0.00    +0.000 A 
ATOM     13  C   UNL     1       3.363   5.566  19.866  0.00  0.00    +0.000 A 
ATOM     14  C   UNL     1       2.067   5.694  20.372  0.00  0.00    +0.000 A 
ATOM     15  C   UNL     1       1.201   4.599  20.272  0.00  0.00    +0.000 A 
ATOM     16  C   UNL     1       1.646   3.395  19.718  0.00  0.00    +0.000 A 
ATOM     17  C   UNL     1       2.956   3.274  19.244  0.00  0.00    +0.000 A 
ATOM     18 BR   UNL     1       3.493   1.599  18.531  0.00  0.00    +0.000 Br
ENDBRANCH   7  14
ENDBRANCH   1   8
BRANCH   4  19
ATOM     19  S   UNL     1      -1.476  11.507  18.319  0.00  0.00    +0.000 S 
ATOM     20  O   UNL     1      -0.965  12.817  17.986  0.00  0.00    +0.000 OA
ATOM     21  O   UNL     1      -1.391  10.429  17.355  0.00  0.00    +0.000 OA
BRANCH  19  22
ATOM     22  C   UNL     1      -3.162  11.691  18.764  0.00  0.00    +0.000 A 
ATOM     23  C   UNL     1      -4.175  11.037  18.026  0.00  0.00    +0.000 A 
ATOM     24  C   UNL     1      -5.549  11.157  18.338  0.00  0.00    +0.000 A 
ATOM     25  C   UNL     1      -6.023  11.938  19.405  0.00  0.00    +0.000 A 
ATOM     26  C   UNL     1      -5.045  12.616  20.174  0.00  0.00    +0.000 A 
ATOM     27  N   UNL     1      -5.294  13.406  21.228  0.00  0.00    +0.000 NA
ATOM     28  S   UNL     1      -3.822  13.956  21.762  0.00  0.00    +0.000 S 
ATOM     29  N   UNL     1      -2.805  13.200  20.697  0.00  0.00    +0.000 NA
ATOM     30  C   UNL     1      -3.573  12.494  19.849  0.00  0.00    +0.000 A 
ENDBRANCH  19  22
ENDBRANCH   4  19
TORSDOF 4
ENDMDL
MODEL 5
REMARK VINA RESULT:      -8.2      7.629     10.188
REMARK  Name = 
REMARK  5 active torsions:
REMARK  status: ('A' for Active; 'I' for Inactive)
REMARK    1  A    between atoms: C_1  and  C_2
REMARK    2  A    between atoms: C_4  and  N_5
REMARK    3  A    between atoms: C_6  and  C_8
REMARK    4  A    between atoms: N_11  and  S_12
REMARK    5  A    between atoms: S_12  and  C_15
REMARK                            x       y       z     vdW  Elec       q    Type
REMARK                         _______ _______ _______ _____ _____    ______ ____
ROOT
ATOM      1  C   UNL     1       1.142   9.254  21.306  0.00  0.00    +0.000 C 
ATOM      2  C   UNL     1      -0.385   9.235  21.482  0.00  0.00    +0.000 C 
ATOM      3  C   UNL     1      -1.118   9.633  20.199  0.00  0.00    +0.000 C 
ATOM      4  N   UNL     1      -0.649  10.960  19.707  0.00  0.00    +0.000 NA
ATOM      5  C   UNL     1       0.828  11.027  19.532  0.00  0.00    +0.000 C 
ATOM      6  C   UNL     1       1.550  10.645  20.821  0.00  0.00    +0.000 C 
ENDROOT
BRANCH   1   8
ATOM      7  N   UNL     1       1.582   6.862  20.956  0.00  0.00    +0.000 N 
ATOM      8  C   UNL     1       1.593   8.120  20.378  0.00  0.00    +0.000 C 
ATOM      9  O   UNL     1       1.909   8.361  19.216  0.00  0.00    +0.000 OA
ATOM     10  H   UNL     1       1.322   6.789  21.932  0.00  0.00    +0.000 HD
BRANCH   7  14
ATOM     11  C   UNL     1       0.608   2.336  19.138  0.00  0.00    +0.000 C 
ATOM     12  C   UNL     1       1.602   3.434  19.404  0.00  0.00    +0.000 A 
ATOM     13  C   UNL     1       1.160   4.586  20.077  0.00  0.00    +0.000 A 
ATOM     14  C   UNL     1       2.011   5.663  20.340  0.00  0.00    +0.000 A 
ATOM     15  C   UNL     1       3.353   5.560  19.957  0.00  0.00    +0.000 A 
ATOM     16  C   UNL     1       3.812   4.422  19.288  0.00  0.00    +0.000 A 
ATOM     17  C   UNL     1       2.940   3.366  19.006  0.00  0.00    +0.000 A 
ATOM     18 BR   UNL     1       3.632   1.867  18.070  0.00  0.00    +0.000 Br
ENDBRANCH   7  14
ENDBRANCH   1   8
BRANCH   4  19
ATOM     19  S   UNL     1      -1.464  11.498  18.284  0.00  0.00    +0.000 S 
ATOM     20  O   UNL     1      -0.963  12.804  17.919  0.00  0.00    +0.000 OA
ATOM     21  O   UNL     1      -1.406  10.407  17.332  0.00  0.00    +0.000 OA
BRANCH  19  22
ATOM     22  C   UNL     1      -3.137  11.689  18.773  0.00  0.00    +0.000 A 
ATOM     23  C   UNL     1      -4.172  11.041  18.061  0.00  0.00    +0.000 A 
ATOM     24  C   UNL     1      -5.537  11.167  18.410  0.00  0.00    +0.000 A 
ATOM     25  C   UNL     1      -5.979  11.947  19.490  0.00  0.00    +0.000 A 
ATOM     26  C   UNL     1      -4.978  12.620  20.234  0.00  0.00    +0.000 A 
ATOM     27  N   UNL     1      -5.196  13.408  21.296  0.00  0.00    +0.000 NA
ATOM     28  S   UNL     1      -3.708  13.951  21.792  0.00  0.00    +0.000 S 
ATOM     29  N   UNL     1      -2.723  13.192  20.699  0.00  0.00    +0.000 NA
ATOM     30  C   UNL     1      -3.516  12.491  19.870  0.00  0.00    +0.000 A 
ENDBRANCH  19  22
ENDBRANCH   4  19
TORSDOF 4
ENDMDL
MODEL 6
REMARK VINA RESULT:      -8.2      8.207     10.151
REMARK  Name = 
REMARK  5 active torsions:
REMARK  status: ('A' for Active; 'I' for Inactive)
REMARK    1  A    between atoms: C_1  and  C_2
REMARK    2  A    between atoms: C_4  and  N_5
REMARK    3  A    between atoms: C_6  and  C_8
REMARK    4  A    between atoms: N_11  and  S_12
REMARK    5  A    between atoms: S_12  and  C_15
REMARK                            x       y       z     vdW  Elec       q    Type
REMARK                         _______ _______ _______ _____ _____    ______ ____
ROOT
ATOM      1  C   UNL     1      -0.869  12.737  18.540  0.00  0.00    +0.000 C 
ATOM      2  C   UNL     1      -1.367  11.350  18.100  0.00  0.00    +0.000 C 
ATOM      3  C   UNL     1      -1.021  10.264  19.120  0.00  0.00    +0.000 C 
ATOM      4  N   UNL     1       0.442  10.247  19.406  0.00  0.00    +0.000 NA
ATOM      5  C   UNL     1       0.970  11.575  19.826  0.00  0.00    +0.000 C 
ATOM      6  C   UNL     1       0.635  12.647  18.794  0.00  0.00    +0.000 C 
ENDROOT
BRANCH   1   8
ATOM      7  N   UNL     1      -2.943  12.704  19.859  0.00  0.00    +0.000 N 
ATOM      8  C   UNL     1      -1.671  13.240  19.747  0.00  0.00    +0.000 C 
ATOM      9  O   UNL     1      -1.169  14.040  20.531  0.00  0.00    +0.000 OA
ATOM     10  H   UNL     1      -3.257  12.068  19.137  0.00  0.00    +0.000 HD
BRANCH   7  14
ATOM     11  C   UNL     1      -4.568  12.594  24.557  0.00  0.00    +0.000 C 
ATOM     12  C   UNL     1      -4.755  13.055  23.138  0.00  0.00    +0.000 A 
ATOM     13  C   UNL     1      -3.819  12.643  22.173  0.00  0.00    +0.000 A 
ATOM     14  C   UNL     1      -3.903  13.048  20.838  0.00  0.00    +0.000 A 
ATOM     15  C   UNL     1      -4.983  13.851  20.452  0.00  0.00    +0.000 A 
ATOM     16  C   UNL     1      -5.925  14.271  21.397  0.00  0.00    +0.000 A 
ATOM     17  C   UNL     1      -5.808  13.881  22.735  0.00  0.00    +0.000 A 
ATOM     18 BR   UNL     1      -7.111  14.514  23.961  0.00  0.00    +0.000 Br
ENDBRANCH   7  14
ENDBRANCH   1   8
BRANCH   4  19
ATOM     19  S   UNL     1       0.917   9.014  20.517  0.00  0.00    +0.000 S 
ATOM     20  O   UNL     1       1.762   9.597  21.535  0.00  0.00    +0.000 OA
ATOM     21  O   UNL     1      -0.290   8.306  20.895  0.00  0.00    +0.000 OA
BRANCH  19  22
ATOM     22  C   UNL     1       1.903   7.916  19.571  0.00  0.00    +0.000 A 
ATOM     23  C   UNL     1       2.515   8.350  18.373  0.00  0.00    +0.000 A 
ATOM     24  C   UNL     1       3.314   7.503  17.570  0.00  0.00    +0.000 A 
ATOM     25  C   UNL     1       3.564   6.160  17.894  0.00  0.00    +0.000 A 
ATOM     26  C   UNL     1       2.969   5.676  19.085  0.00  0.00    +0.000 A 
ATOM     27  N   UNL     1       3.089   4.430  19.564  0.00  0.00    +0.000 NA
ATOM     28  S   UNL     1       2.204   4.378  20.967  0.00  0.00    +0.000 S 
ATOM     29  N   UNL     1       1.652   5.937  21.041  0.00  0.00    +0.000 NA
ATOM     30  C   UNL     1       2.114   6.574  19.951  0.00  0.00    +0.000 A 
ENDBRANCH  19  22
ENDBRANCH   4  19
TORSDOF 4
ENDMDL
MODEL 7
REMARK VINA RESULT:      -8.1      7.886     10.338
REMARK  Name = 
REMARK  5 active torsions:
REMARK  status: ('A' for Active; 'I' for Inactive)
REMARK    1  A    between atoms: C_1  and  C_2
REMARK    2  A    between atoms: C_4  and  N_5
REMARK    3  A    between atoms: C_6  and  C_8
REMARK    4  A    between atoms: N_11  and  S_12
REMARK    5  A    between atoms: S_12  and  C_15
REMARK                            x       y       z     vdW  Elec       q    Type
REMARK                         _______ _______ _______ _____ _____    ______ ____
ROOT
ATOM      1  C   UNL     1       0.949   9.740  21.827  0.00  0.00    +0.000 C 
ATOM      2  C   UNL     1      -0.436  10.337  22.123  0.00  0.00    +0.000 C 
ATOM      3  C   UNL     1      -1.239  10.592  20.847  0.00  0.00    +0.000 C 
ATOM      4  N   UNL     1      -0.474  11.448  19.896  0.00  0.00    +0.000 NA
ATOM      5  C   UNL     1       0.881  10.912  19.588  0.00  0.00    +0.000 C 
ATOM      6  C   UNL     1       1.680  10.678  20.867  0.00  0.00    +0.000 C 
ENDROOT
BRANCH   1   8
ATOM      7  N   UNL     1       1.973   7.781  20.751  0.00  0.00    +0.000 N 
ATOM      8  C   UNL     1       0.816   8.304  21.305  0.00  0.00    +0.000 C 
ATOM      9  O   UNL     1      -0.250   7.704  21.412  0.00  0.00    +0.000 OA
ATOM     10  H   UNL     1       2.787   8.379  20.697  0.00  0.00    +0.000 HD
BRANCH   7  14
ATOM     11  C   UNL     1       1.410   2.842  20.881  0.00  0.00    +0.000 C 
ATOM     12  C   UNL     1       1.829   4.074  20.126  0.00  0.00    +0.000 A 
ATOM     13  C   UNL     1       1.754   5.316  20.780  0.00  0.00    +0.000 A 
ATOM     14  C   UNL     1       2.099   6.511  20.143  0.00  0.00    +0.000 A 
ATOM     15  C   UNL     1       2.576   6.452  18.828  0.00  0.00    +0.000 A 
ATOM     16  C   UNL     1       2.659   5.226  18.161  0.00  0.00    +0.000 A 
ATOM     17  C   UNL     1       2.281   4.043  18.803  0.00  0.00    +0.000 A 
ATOM     18 BR   UNL     1       2.397   2.422  17.822  0.00  0.00    +0.000 Br
ENDBRANCH   7  14
ENDBRANCH   1   8
BRANCH   4  19
ATOM     19  S   UNL     1      -1.336  11.817  18.447  0.00  0.00    +0.000 S 
ATOM     20  O   UNL     1      -0.866  13.081  17.928  0.00  0.00    +0.000 OA
ATOM     21  O   UNL     1      -1.284  10.629  17.618  0.00  0.00    +0.000 OA
BRANCH  19  22
ATOM     22  C   UNL     1      -2.998  12.036  18.959  0.00  0.00    +0.000 A 
ATOM     23  C   UNL     1      -4.037  11.277  18.374  0.00  0.00    +0.000 A 
ATOM     24  C   UNL     1      -5.393  11.419  18.746  0.00  0.00    +0.000 A 
ATOM     25  C   UNL     1      -5.824  12.328  19.726  0.00  0.00    +0.000 A 
ATOM     26  C   UNL     1      -4.819  13.116  20.340  0.00  0.00    +0.000 A 
ATOM     27  N   UNL     1      -5.026  14.035  21.294  0.00  0.00    +0.000 NA
ATOM     28  S   UNL     1      -3.539  14.670  21.665  0.00  0.00    +0.000 S 
ATOM     29  N   UNL     1      -2.567  13.793  20.653  0.00  0.00    +0.000 NA
ATOM     30  C   UNL     1      -3.365  12.970  19.950  0.00  0.00    +0.000 A 
ENDBRANCH  19  22
ENDBRANCH   4  19
TORSDOF 4
ENDMDL
MODEL 8
REMARK VINA RESULT:      -8.1     11.111     13.080
REMARK  Name = 
REMARK  5 active torsions:
REMARK  status: ('A' for Active; 'I' for Inactive)
REMARK    1  A    between atoms: C_1  and  C_2
REMARK    2  A    between atoms: C_4  and  N_5
REMARK    3  A    between atoms: C_6  and  C_8
REMARK    4  A    between atoms: N_11  and  S_12
REMARK    5  A    between atoms: S_12  and  C_15
REMARK                            x       y       z     vdW  Elec       q    Type
REMARK                         _______ _______ _______ _____ _____    ______ ____
ROOT
ATOM      1  C   UNL     1      -0.603  12.877  22.159  0.00  0.00    +0.000 C 
ATOM      2  C   UNL     1      -1.389  11.864  23.007  0.00  0.00    +0.000 C 
ATOM      3  C   UNL     1      -2.876  12.217  23.094  0.00  0.00    +0.000 C 
ATOM      4  N   UNL     1      -3.065  13.607  23.600  0.00  0.00    +0.000 NA
ATOM      5  C   UNL     1      -2.311  14.621  22.813  0.00  0.00    +0.000 C 
ATOM      6  C   UNL     1      -0.828  14.270  22.746  0.00  0.00    +0.000 C 
ENDROOT
BRANCH   1   8
ATOM      7  N   UNL     1      -1.729  11.630  20.365  0.00  0.00    +0.000 N 
ATOM      8  C   UNL     1      -0.992  12.760  20.680  0.00  0.00    +0.000 C 
ATOM      9  O   UNL     1      -0.666  13.636  19.885  0.00  0.00    +0.000 OA
ATOM     10  H   UNL     1      -1.919  10.965  21.103  0.00  0.00    +0.000 HD
BRANCH   7  14
ATOM     11  C   UNL     1      -5.017  11.887  16.642  0.00  0.00    +0.000 C 
ATOM     12  C   UNL     1      -3.720  11.350  17.185  0.00  0.00    +0.000 A 
ATOM     13  C   UNL     1      -3.355  11.689  18.499  0.00  0.00    +0.000 A 
ATOM     14  C   UNL     1      -2.156  11.254  19.070  0.00  0.00    +0.000 A 
ATOM     15  C   UNL     1      -1.322  10.420  18.316  0.00  0.00    +0.000 A 
ATOM     16  C   UNL     1      -1.668  10.071  17.007  0.00  0.00    +0.000 A 
ATOM     17  C   UNL     1      -2.858  10.539  16.441  0.00  0.00    +0.000 A 
ATOM     18 BR   UNL     1      -3.245  10.044  14.650  0.00  0.00    +0.000 Br
ENDBRANCH   7  14
ENDBRANCH   1   8
BRANCH   4  19
ATOM     19  S   UNL     1      -4.721  14.062  23.769  0.00  0.00    +0.000 S 
ATOM     20  O   UNL     1      -5.455  12.964  24.354  0.00  0.00    +0.000 OA
ATOM     21  O   UNL     1      -4.732  15.364  24.407  0.00  0.00    +0.000 OA
BRANCH  19  22
ATOM     22  C   UNL     1      -5.297  14.272  22.126  0.00  0.00    +0.000 A 
ATOM     23  C   UNL     1      -5.101  15.495  21.446  0.00  0.00    +0.000 A 
ATOM     24  C   UNL     1      -5.550  15.718  20.124  0.00  0.00    +0.000 A 
ATOM     25  C   UNL     1      -6.233  14.744  19.377  0.00  0.00    +0.000 A 
ATOM     26  C   UNL     1      -6.457  13.501  20.017  0.00  0.00    +0.000 A 
ATOM     27  N   UNL     1      -7.086  12.448  19.474  0.00  0.00    +0.000 NA
ATOM     28  S   UNL     1      -7.090  11.256  20.627  0.00  0.00    +0.000 S 
ATOM     29  N   UNL     1      -6.276  12.011  21.855  0.00  0.00    +0.000 NA
ATOM     30  C   UNL     1      -5.979  13.252  21.430  0.00  0.00    +0.000 A 
ENDBRANCH  19  22
ENDBRANCH   4  19
TORSDOF 4
ENDMDL
MODEL 9
REMARK VINA RESULT:      -8.1      8.049     10.011
REMARK  Name = 
REMARK  5 active torsions:
REMARK  status: ('A' for Active; 'I' for Inactive)
REMARK    1  A    between atoms: C_1  and  C_2
REMARK    2  A    between atoms: C_4  and  N_5
REMARK    3  A    between atoms: C_6  and  C_8
REMARK    4  A    between atoms: N_11  and  S_12
REMARK    5  A    between atoms: S_12  and  C_15
REMARK                            x       y       z     vdW  Elec       q    Type
REMARK                         _______ _______ _______ _____ _____    ______ ____
ROOT
ATOM      1  C   UNL     1       1.047  10.035  18.138  0.00  0.00    +0.000 C 
ATOM      2  C   UNL     1       1.664  11.305  18.745  0.00  0.00    +0.000 C 
ATOM      3  C   UNL     1       1.192  11.546  20.180  0.00  0.00    +0.000 C 
ATOM      4  N   UNL     1      -0.297  11.581  20.253  0.00  0.00    +0.000 NA
ATOM      5  C   UNL     1      -0.938  10.373  19.665  0.00  0.00    +0.000 C 
ATOM      6  C   UNL     1      -0.474  10.151  18.229  0.00  0.00    +0.000 C 
ENDROOT
BRANCH   1   8
ATOM      7  N   UNL     1       2.162   7.852  17.952  0.00  0.00    +0.000 N 
ATOM      8  C   UNL     1       1.613   8.782  18.819  0.00  0.00    +0.000 C 
ATOM      9  O   UNL     1       1.573   8.673  20.041  0.00  0.00    +0.000 OA
ATOM     10  H   UNL     1       2.118   8.043  16.959  0.00  0.00    +0.000 HD
BRANCH   7  14
ATOM     11  C   UNL     1       5.712   4.384  17.631  0.00  0.00    +0.000 C 
ATOM     12  C   UNL     1       4.410   4.847  18.226  0.00  0.00    +0.000 A 
ATOM     13  C   UNL     1       3.879   6.076  17.795  0.00  0.00    +0.000 A 
ATOM     14  C   UNL     1       2.689   6.591  18.316  0.00  0.00    +0.000 A 
ATOM     15  C   UNL     1       1.990   5.831  19.261  0.00  0.00    +0.000 A 
ATOM     16  C   UNL     1       2.502   4.606  19.701  0.00  0.00    +0.000 A 
ATOM     17  C   UNL     1       3.710   4.120  19.192  0.00  0.00    +0.000 A 
ATOM     18 BR   UNL     1       4.352   2.463  19.859  0.00  0.00    +0.000 Br
ENDBRANCH   7  14
ENDBRANCH   1   8
BRANCH   4  19
ATOM     19  S   UNL     1      -0.906  11.895  21.838  0.00  0.00    +0.000 S 
ATOM     20  O   UNL     1      -0.909  10.663  22.593  0.00  0.00    +0.000 OA
ATOM     21  O   UNL     1      -0.189  13.050  22.339  0.00  0.00    +0.000 OA
BRANCH  19  22
ATOM     22  C   UNL     1      -2.574  12.371  21.589  0.00  0.00    +0.000 A 
ATOM     23  C   UNL     1      -3.031  12.745  20.304  0.00  0.00    +0.000 A 
ATOM     24  C   UNL     1      -4.363  13.144  20.051  0.00  0.00    +0.000 A 
ATOM     25  C   UNL     1      -5.345  13.205  21.054  0.00  0.00    +0.000 A 
ATOM     26  C   UNL     1      -4.935  12.842  22.360  0.00  0.00    +0.000 A 
ATOM     27  N   UNL     1      -5.719  12.834  23.448  0.00  0.00    +0.000 NA
ATOM     28  S   UNL     1      -4.764  12.344  24.713  0.00  0.00    +0.000 S 
ATOM     29  N   UNL     1      -3.324  12.099  23.935  0.00  0.00    +0.000 NA
ATOM     30  C   UNL     1      -3.512  12.413  22.642  0.00  0.00    +0.000 A 
ENDBRANCH  19  22
ENDBRANCH   4  19
TORSDOF 4
ENDMDL
