MODEL 1
REMARK VINA RESULT:      -5.8      0.000      0.000
REMARK  Name = 
REMARK  24 active torsions:
REMARK  status: ('A' for Active; 'I' for Inactive)
REMARK    1  A    between atoms: C_1  and  C_2
REMARK    2  A    between atoms: C_2  and  C_3
REMARK    3  A    between atoms: C_3  and  C_4
REMARK    4  A    between atoms: C_4  and  C_5
REMARK    5  A    between atoms: C_5  and  C_6
REMARK    6  A    between atoms: C_6  and  C_7
REMARK    7  A    between atoms: C_7  and  C_8
REMARK    8  A    between atoms: C_8  and  C_9
REMARK    9  A    between atoms: C_10  and  C_11
REMARK   10  A    between atoms: C_11  and  C_12
REMARK   11  A    between atoms: C_12  and  C_13
REMARK   12  A    between atoms: C_13  and  C_14
REMARK   13  A    between atoms: C_14  and  C_15
REMARK   14  A    between atoms: C_15  and  C_16
REMARK   15  A    between atoms: C_16  and  C_17
REMARK   16  A    between atoms: C_17  and  C_18
REMARK   17  A    between atoms: C_18  and  O_19
REMARK   18  A    between atoms: O_19  and  C_20
REMARK   19  A    between atoms: C_20  and  C_21
REMARK   20  A    between atoms: C_20  and  C_24
REMARK   21  A    between atoms: C_21  and  C_22
REMARK   22  A    between atoms: C_24  and  O_25
REMARK   23  A    between atoms: C_24  and  C_26
REMARK   24  A    between atoms: C_26  and  O_27
REMARK                            x       y       z     vdW  Elec       q    Type
REMARK                         _______ _______ _______ _____ _____    ______ ____
ROOT
ATOM      1  C   UNL     1       2.988   4.298  17.816  0.00  0.00    +0.000 C 
ENDROOT
BRANCH   1   2
ATOM      2  C   UNL     1       1.721   3.548  17.429  0.00  0.00    +0.000 C 
BRANCH   2   3
ATOM      3  C   UNL     1       1.137   2.854  18.648  0.00  0.00    +0.000 C 
BRANCH   3   4
ATOM      4  C   UNL     1       2.139   2.842  19.791  0.00  0.00    +0.000 C 
BRANCH   4   5
ATOM      5  C   UNL     1       1.514   3.469  21.031  0.00  0.00    +0.000 C 
BRANCH   5   7
ATOM      6  C   UNL     1       1.378   5.939  20.739  0.00  0.00    +0.000 C 
ATOM      7  C   UNL     1       2.022   4.862  21.207  0.00  0.00    +0.000 C 
BRANCH   6   8
ATOM      8  C   UNL     1       1.882   7.334  20.917  0.00  0.00    +0.000 C 
BRANCH   8   9
ATOM      9  C   UNL     1       1.051   8.305  20.085  0.00  0.00    +0.000 C 
BRANCH   9  10
ATOM     10  C   UNL     1       0.822   9.602  20.851  0.00  0.00    +0.000 C 
BRANCH  10  11
ATOM     11  C   UNL     1      -0.472  10.272  20.407  0.00  0.00    +0.000 C 
BRANCH  11  12
ATOM     12  C   UNL     1      -0.183  11.397  19.417  0.00  0.00    +0.000 C 
BRANCH  12  13
ATOM     13  C   UNL     1      -1.248  11.447  18.328  0.00  0.00    +0.000 C 
BRANCH  13  15
ATOM     14  C   UNL     1      -2.293   9.980  16.580  0.00  0.00    +0.000 C 
ATOM     15  C   UNL     1      -1.767  10.049  18.003  0.00  0.00    +0.000 C 
ENDBRANCH  13  15
ENDBRANCH  12  13
ENDBRANCH  11  12
ENDBRANCH  10  11
ENDBRANCH   9  10
ENDBRANCH   8   9
ENDBRANCH   6   8
ENDBRANCH   5   7
ENDBRANCH   4   5
ENDBRANCH   3   4
ENDBRANCH   2   3
ENDBRANCH   1   2
BRANCH   1  16
ATOM     16  C   UNL     1       2.782   5.792  17.642  0.00  0.00    +0.000 C 
BRANCH  16  17
ATOM     17  C   UNL     1       4.033   6.572  18.024  0.00  0.00    +0.000 C 
BRANCH  17  18
ATOM     18  C   UNL     1       4.683   7.089  16.753  0.00  0.00    +0.000 C 
BRANCH  18  19
ATOM     19  O   UNL     1       6.056   6.706  16.712  0.00  0.00    +0.000 OA
BRANCH  19  20
ATOM     20  C   UNL     1       6.232   5.292  16.599  0.00  0.00    +0.000 C 
BRANCH  20  21
ATOM     21  C   UNL     1       6.825   4.897  15.231  0.00  0.00    +0.000 C 
ATOM     22  C   UNL     1       6.175   3.773  14.464  0.00  0.00    +0.000 C 
ATOM     23  O   UNL     1       7.848   5.430  14.773  0.00  0.00    +0.000 OA
ENDBRANCH  20  21
BRANCH  20  24
ATOM     24  C   UNL     1       7.158   4.754  17.713  0.00  0.00    +0.000 C 
BRANCH  24  25
ATOM     25  O   UNL     1       8.283   4.049  17.178  0.00  0.00    +0.000 OA
ATOM     26  H   UNL     1       9.051   4.603  17.442  0.00  0.00    +0.000 HD
ENDBRANCH  24  25
BRANCH  24  27
ATOM     27  C   UNL     1       7.632   5.884  18.649  0.00  0.00    +0.000 C 
BRANCH  27  28
ATOM     28  O   UNL     1       8.312   5.358  19.797  0.00  0.00    +0.000 OA
ATOM     29  H   UNL     1       8.247   6.050  20.477  0.00  0.00    +0.000 HD
ENDBRANCH  27  28
ENDBRANCH  24  27
ENDBRANCH  20  24
ENDBRANCH  19  20
ENDBRANCH  18  19
ENDBRANCH  17  18
ENDBRANCH  16  17
ENDBRANCH   1  16
TORSDOF 22
ENDMDL
MODEL 2
REMARK VINA RESULT:      -5.7      5.323      8.223
REMARK  Name = 
REMARK  24 active torsions:
REMARK  status: ('A' for Active; 'I' for Inactive)
REMARK    1  A    between atoms: C_1  and  C_2
REMARK    2  A    between atoms: C_2  and  C_3
REMARK    3  A    between atoms: C_3  and  C_4
REMARK    4  A    between atoms: C_4  and  C_5
REMARK    5  A    between atoms: C_5  and  C_6
REMARK    6  A    between atoms: C_6  and  C_7
REMARK    7  A    between atoms: C_7  and  C_8
REMARK    8  A    between atoms: C_8  and  C_9
REMARK    9  A    between atoms: C_10  and  C_11
REMARK   10  A    between atoms: C_11  and  C_12
REMARK   11  A    between atoms: C_12  and  C_13
REMARK   12  A    between atoms: C_13  and  C_14
REMARK   13  A    between atoms: C_14  and  C_15
REMARK   14  A    between atoms: C_15  and  C_16
REMARK   15  A    between atoms: C_16  and  C_17
REMARK   16  A    between atoms: C_17  and  C_18
REMARK   17  A    between atoms: C_18  and  O_19
REMARK   18  A    between atoms: O_19  and  C_20
REMARK   19  A    between atoms: C_20  and  C_21
REMARK   20  A    between atoms: C_20  and  C_24
REMARK   21  A    between atoms: C_21  and  C_22
REMARK   22  A    between atoms: C_24  and  O_25
REMARK   23  A    between atoms: C_24  and  C_26
REMARK   24  A    between atoms: C_26  and  O_27
REMARK                            x       y       z     vdW  Elec       q    Type
REMARK                         _______ _______ _______ _____ _____    ______ ____
ROOT
ATOM      1  C   UNL     1       6.319   4.392  16.940  0.00  0.00    +0.000 C 
ENDROOT
BRANCH   1   2
ATOM      2  C   UNL     1       6.356   5.840  17.407  0.00  0.00    +0.000 C 
BRANCH   2   3
ATOM      3  C   UNL     1       7.159   5.949  18.693  0.00  0.00    +0.000 C 
BRANCH   3   4
ATOM      4  C   UNL     1       8.159   7.090  18.607  0.00  0.00    +0.000 C 
BRANCH   4   5
ATOM      5  C   UNL     1       7.654   8.148  17.635  0.00  0.00    +0.000 C 
BRANCH   5   7
ATOM      6  C   UNL     1       9.080   9.688  18.976  0.00  0.00    +0.000 C 
ATOM      7  C   UNL     1       8.372   9.436  17.867  0.00  0.00    +0.000 C 
BRANCH   6   8
ATOM      8  C   UNL     1       9.802  10.976  19.209  0.00  0.00    +0.000 C 
BRANCH   8   9
ATOM      9  C   UNL     1      10.331  11.530  17.891  0.00  0.00    +0.000 C 
BRANCH   9  10
ATOM     10  C   UNL     1       9.730  12.901  17.611  0.00  0.00    +0.000 C 
BRANCH  10  11
ATOM     11  C   UNL     1      10.684  14.009  18.041  0.00  0.00    +0.000 C 
BRANCH  11  12
ATOM     12  C   UNL     1       9.929  15.117  18.769  0.00  0.00    +0.000 C 
BRANCH  12  13
ATOM     13  C   UNL     1       9.135  14.552  19.942  0.00  0.00    +0.000 C 
BRANCH  13  15
ATOM     14  C   UNL     1       9.332  14.472  22.442  0.00  0.00    +0.000 C 
ATOM     15  C   UNL     1      10.049  14.241  21.124  0.00  0.00    +0.000 C 
ENDBRANCH  13  15
ENDBRANCH  12  13
ENDBRANCH  11  12
ENDBRANCH  10  11
ENDBRANCH   9  10
ENDBRANCH   8   9
ENDBRANCH   6   8
ENDBRANCH   5   7
ENDBRANCH   4   5
ENDBRANCH   3   4
ENDBRANCH   2   3
ENDBRANCH   1   2
BRANCH   1  16
ATOM     16  C   UNL     1       4.920   4.028  16.481  0.00  0.00    +0.000 C 
BRANCH  16  17
ATOM     17  C   UNL     1       4.397   2.800  17.215  0.00  0.00    +0.000 C 
BRANCH  17  18
ATOM     18  C   UNL     1       4.330   3.121  18.698  0.00  0.00    +0.000 C 
BRANCH  18  19
ATOM     19  O   UNL     1       3.052   2.767  19.221  0.00  0.00    +0.000 OA
BRANCH  19  20
ATOM     20  C   UNL     1       2.269   3.907  19.586  0.00  0.00    +0.000 C 
BRANCH  20  21
ATOM     21  C   UNL     1       1.874   4.747  18.356  0.00  0.00    +0.000 C 
ATOM     22  C   UNL     1       2.322   6.185  18.294  0.00  0.00    +0.000 C 
ATOM     23  O   UNL     1       1.153   4.299  17.450  0.00  0.00    +0.000 OA
ENDBRANCH  20  21
BRANCH  20  24
ATOM     24  C   UNL     1       0.982   3.485  20.331  0.00  0.00    +0.000 C 
BRANCH  24  25
ATOM     25  O   UNL     1       0.094   2.748  19.485  0.00  0.00    +0.000 OA
ATOM     26  H   UNL     1       0.387   2.987  18.578  0.00  0.00    +0.000 HD
ENDBRANCH  24  25
BRANCH  24  27
ATOM     27  C   UNL     1       1.305   2.675  21.602  0.00  0.00    +0.000 C 
BRANCH  27  28
ATOM     28  O   UNL     1       2.614   2.984  22.099  0.00  0.00    +0.000 OA
ATOM     29  H   UNL     1       2.883   3.796  21.636  0.00  0.00    +0.000 HD
ENDBRANCH  27  28
ENDBRANCH  24  27
ENDBRANCH  20  24
ENDBRANCH  19  20
ENDBRANCH  18  19
ENDBRANCH  17  18
ENDBRANCH  16  17
ENDBRANCH   1  16
TORSDOF 22
ENDMDL
MODEL 3
REMARK VINA RESULT:      -5.6      3.196      8.055
REMARK  Name = 
REMARK  24 active torsions:
REMARK  status: ('A' for Active; 'I' for Inactive)
REMARK    1  A    between atoms: C_1  and  C_2
REMARK    2  A    between atoms: C_2  and  C_3
REMARK    3  A    between atoms: C_3  and  C_4
REMARK    4  A    between atoms: C_4  and  C_5
REMARK    5  A    between atoms: C_5  and  C_6
REMARK    6  A    between atoms: C_6  and  C_7
REMARK    7  A    between atoms: C_7  and  C_8
REMARK    8  A    between atoms: C_8  and  C_9
REMARK    9  A    between atoms: C_10  and  C_11
REMARK   10  A    between atoms: C_11  and  C_12
REMARK   11  A    between atoms: C_12  and  C_13
REMARK   12  A    between atoms: C_13  and  C_14
REMARK   13  A    between atoms: C_14  and  C_15
REMARK   14  A    between atoms: C_15  and  C_16
REMARK   15  A    between atoms: C_16  and  C_17
REMARK   16  A    between atoms: C_17  and  C_18
REMARK   17  A    between atoms: C_18  and  O_19
REMARK   18  A    between atoms: O_19  and  C_20
REMARK   19  A    between atoms: C_20  and  C_21
REMARK   20  A    between atoms: C_20  and  C_24
REMARK   21  A    between atoms: C_21  and  C_22
REMARK   22  A    between atoms: C_24  and  O_25
REMARK   23  A    between atoms: C_24  and  C_26
REMARK   24  A    between atoms: C_26  and  O_27
REMARK                            x       y       z     vdW  Elec       q    Type
REMARK                         _______ _______ _______ _____ _____    ______ ____
ROOT
ATOM      1  C   UNL     1       0.846   4.187  20.355  0.00  0.00    +0.000 C 
ENDROOT
BRANCH   1   2
ATOM      2  C   UNL     1       1.302   3.171  19.316  0.00  0.00    +0.000 C 
BRANCH   2   3
ATOM      3  C   UNL     1       1.330   3.815  17.940  0.00  0.00    +0.000 C 
BRANCH   3   4
ATOM      4  C   UNL     1       2.528   3.327  17.142  0.00  0.00    +0.000 C 
BRANCH   4   5
ATOM      5  C   UNL     1       3.545   2.685  18.076  0.00  0.00    +0.000 C 
BRANCH   5   7
ATOM      6  C   UNL     1       4.666   4.909  18.101  0.00  0.00    +0.000 C 
ATOM      7  C   UNL     1       4.733   3.577  18.225  0.00  0.00    +0.000 C 
BRANCH   6   8
ATOM      8  C   UNL     1       5.853   5.804  18.253  0.00  0.00    +0.000 C 
BRANCH   8   9
ATOM      9  C   UNL     1       6.178   6.477  16.923  0.00  0.00    +0.000 C 
BRANCH   9  10
ATOM     10  C   UNL     1       6.803   5.477  15.960  0.00  0.00    +0.000 C 
BRANCH  10  11
ATOM     11  C   UNL     1       5.860   5.180  14.800  0.00  0.00    +0.000 C 
BRANCH  11  12
ATOM     12  C   UNL     1       6.102   3.775  14.255  0.00  0.00    +0.000 C 
BRANCH  12  13
ATOM     13  C   UNL     1       6.508   3.828  12.786  0.00  0.00    +0.000 C 
BRANCH  13  15
ATOM     14  C   UNL     1       4.412   3.260  11.529  0.00  0.00    +0.000 C 
ATOM     15  C   UNL     1       5.774   2.762  11.976  0.00  0.00    +0.000 C 
ENDBRANCH  13  15
ENDBRANCH  12  13
ENDBRANCH  11  12
ENDBRANCH  10  11
ENDBRANCH   9  10
ENDBRANCH   8   9
ENDBRANCH   6   8
ENDBRANCH   5   7
ENDBRANCH   4   5
ENDBRANCH   3   4
ENDBRANCH   2   3
ENDBRANCH   1   2
BRANCH   1  16
ATOM     16  C   UNL     1       2.010   5.068  20.769  0.00  0.00    +0.000 C 
BRANCH  16  17
ATOM     17  C   UNL     1       2.098   6.315  19.899  0.00  0.00    +0.000 C 
BRANCH  17  18
ATOM     18  C   UNL     1       1.542   7.489  20.686  0.00  0.00    +0.000 C 
BRANCH  18  19
ATOM     19  O   UNL     1       1.746   8.703  19.968  0.00  0.00    +0.000 OA
BRANCH  19  20
ATOM     20  C   UNL     1       0.627   9.589  20.051  0.00  0.00    +0.000 C 
BRANCH  20  21
ATOM     21  C   UNL     1       0.528  10.258  21.437  0.00  0.00    +0.000 C 
ATOM     22  C   UNL     1      -0.469   9.714  22.428  0.00  0.00    +0.000 C 
ATOM     23  O   UNL     1       1.197  11.260  21.739  0.00  0.00    +0.000 OA
ENDBRANCH  20  21
BRANCH  20  24
ATOM     24  C   UNL     1       0.708  10.694  18.973  0.00  0.00    +0.000 C 
BRANCH  24  25
ATOM     25  O   UNL     1       1.347  10.228  17.780  0.00  0.00    +0.000 OA
ATOM     26  H   UNL     1       1.508   9.275  17.960  0.00  0.00    +0.000 HD
ENDBRANCH  24  25
BRANCH  24  27
ATOM     27  C   UNL     1      -0.684  11.268  18.645  0.00  0.00    +0.000 C 
BRANCH  27  28
ATOM     28  O   UNL     1      -1.687  10.243  18.663  0.00  0.00    +0.000 OA
ATOM     29  H   UNL     1      -1.400   9.610  19.342  0.00  0.00    +0.000 HD
ENDBRANCH  27  28
ENDBRANCH  24  27
ENDBRANCH  20  24
ENDBRANCH  19  20
ENDBRANCH  18  19
ENDBRANCH  17  18
ENDBRANCH  16  17
ENDBRANCH   1  16
TORSDOF 22
ENDMDL
MODEL 4
REMARK VINA RESULT:      -5.5      1.624      2.879
REMARK  Name = 
REMARK  24 active torsions:
REMARK  status: ('A' for Active; 'I' for Inactive)
REMARK    1  A    between atoms: C_1  and  C_2
REMARK    2  A    between atoms: C_2  and  C_3
REMARK    3  A    between atoms: C_3  and  C_4
REMARK    4  A    between atoms: C_4  and  C_5
REMARK    5  A    between atoms: C_5  and  C_6
REMARK    6  A    between atoms: C_6  and  C_7
REMARK    7  A    between atoms: C_7  and  C_8
REMARK    8  A    between atoms: C_8  and  C_9
REMARK    9  A    between atoms: C_10  and  C_11
REMARK   10  A    between atoms: C_11  and  C_12
REMARK   11  A    between atoms: C_12  and  C_13
REMARK   12  A    between atoms: C_13  and  C_14
REMARK   13  A    between atoms: C_14  and  C_15
REMARK   14  A    between atoms: C_15  and  C_16
REMARK   15  A    between atoms: C_16  and  C_17
REMARK   16  A    between atoms: C_17  and  C_18
REMARK   17  A    between atoms: C_18  and  O_19
REMARK   18  A    between atoms: O_19  and  C_20
REMARK   19  A    between atoms: C_20  and  C_21
REMARK   20  A    between atoms: C_20  and  C_24
REMARK   21  A    between atoms: C_21  and  C_22
REMARK   22  A    between atoms: C_24  and  O_25
REMARK   23  A    between atoms: C_24  and  C_26
REMARK   24  A    between atoms: C_26  and  O_27
REMARK                            x       y       z     vdW  Elec       q    Type
REMARK                         _______ _______ _______ _____ _____    ______ ____
ROOT
ATOM      1  C   UNL     1       2.696   2.000  19.435  0.00  0.00    +0.000 C 
ENDROOT
BRANCH   1   2
ATOM      2  C   UNL     1       1.888   2.531  20.611  0.00  0.00    +0.000 C 
BRANCH   2   3
ATOM      3  C   UNL     1       0.718   3.357  20.103  0.00  0.00    +0.000 C 
BRANCH   3   4
ATOM      4  C   UNL     1       0.945   4.835  20.376  0.00  0.00    +0.000 C 
BRANCH   4   5
ATOM      5  C   UNL     1       2.418   5.085  20.674  0.00  0.00    +0.000 C 
BRANCH   5   7
ATOM      6  C   UNL     1       2.167   6.850  18.935  0.00  0.00    +0.000 C 
ATOM      7  C   UNL     1       2.915   6.231  19.858  0.00  0.00    +0.000 C 
BRANCH   6   8
ATOM      8  C   UNL     1       2.661   8.000  18.119  0.00  0.00    +0.000 C 
BRANCH   8   9
ATOM      9  C   UNL     1       1.497   8.898  17.716  0.00  0.00    +0.000 C 
BRANCH   9  10
ATOM     10  C   UNL     1       1.428  10.119  18.625  0.00  0.00    +0.000 C 
BRANCH  10  11
ATOM     11  C   UNL     1       0.032  10.276  19.215  0.00  0.00    +0.000 C 
BRANCH  11  12
ATOM     12  C   UNL     1      -0.154   9.346  20.411  0.00  0.00    +0.000 C 
BRANCH  12  13
ATOM     13  C   UNL     1       0.442   9.961  21.673  0.00  0.00    +0.000 C 
BRANCH  13  15
ATOM     14  C   UNL     1      -0.688  12.069  22.431  0.00  0.00    +0.000 C 
ATOM     15  C   UNL     1      -0.647  10.557  22.561  0.00  0.00    +0.000 C 
ENDBRANCH  13  15
ENDBRANCH  12  13
ENDBRANCH  11  12
ENDBRANCH  10  11
ENDBRANCH   9  10
ENDBRANCH   8   9
ENDBRANCH   6   8
ENDBRANCH   5   7
ENDBRANCH   4   5
ENDBRANCH   3   4
ENDBRANCH   2   3
ENDBRANCH   1   2
BRANCH   1  16
ATOM     16  C   UNL     1       2.037   2.396  18.128  0.00  0.00    +0.000 C 
BRANCH  16  17
ATOM     17  C   UNL     1       2.952   3.279  17.290  0.00  0.00    +0.000 C 
BRANCH  17  18
ATOM     18  C   UNL     1       4.304   3.358  17.979  0.00  0.00    +0.000 C 
BRANCH  18  19
ATOM     19  O   UNL     1       4.991   4.542  17.579  0.00  0.00    +0.000 OA
BRANCH  19  20
ATOM     20  C   UNL     1       5.820   4.338  16.432  0.00  0.00    +0.000 C 
BRANCH  20  21
ATOM     21  C   UNL     1       5.322   5.143  15.216  0.00  0.00    +0.000 C 
ATOM     22  C   UNL     1       4.857   6.560  15.433  0.00  0.00    +0.000 C 
ATOM     23  O   UNL     1       5.235   4.645  14.081  0.00  0.00    +0.000 OA
ENDBRANCH  20  21
BRANCH  20  24
ATOM     24  C   UNL     1       7.284   4.739  16.724  0.00  0.00    +0.000 C 
BRANCH  24  25
ATOM     25  O   UNL     1       7.885   5.410  15.612  0.00  0.00    +0.000 OA
ATOM     26  H   UNL     1       8.641   4.829  15.372  0.00  0.00    +0.000 HD
ENDBRANCH  24  25
BRANCH  24  27
ATOM     27  C   UNL     1       7.391   5.606  17.994  0.00  0.00    +0.000 C 
BRANCH  27  28
ATOM     28  O   UNL     1       7.441   4.796  19.176  0.00  0.00    +0.000 OA
ATOM     29  H   UNL     1       6.514   4.595  19.393  0.00  0.00    +0.000 HD
ENDBRANCH  27  28
ENDBRANCH  24  27
ENDBRANCH  20  24
ENDBRANCH  19  20
ENDBRANCH  18  19
ENDBRANCH  17  18
ENDBRANCH  16  17
ENDBRANCH   1  16
TORSDOF 22
ENDMDL
MODEL 5
REMARK VINA RESULT:      -5.4      5.762      8.506
REMARK  Name = 
REMARK  24 active torsions:
REMARK  status: ('A' for Active; 'I' for Inactive)
REMARK    1  A    between atoms: C_1  and  C_2
REMARK    2  A    between atoms: C_2  and  C_3
REMARK    3  A    between atoms: C_3  and  C_4
REMARK    4  A    between atoms: C_4  and  C_5
REMARK    5  A    between atoms: C_5  and  C_6
REMARK    6  A    between atoms: C_6  and  C_7
REMARK    7  A    between atoms: C_7  and  C_8
REMARK    8  A    between atoms: C_8  and  C_9
REMARK    9  A    between atoms: C_10  and  C_11
REMARK   10  A    between atoms: C_11  and  C_12
REMARK   11  A    between atoms: C_12  and  C_13
REMARK   12  A    between atoms: C_13  and  C_14
REMARK   13  A    between atoms: C_14  and  C_15
REMARK   14  A    between atoms: C_15  and  C_16
REMARK   15  A    between atoms: C_16  and  C_17
REMARK   16  A    between atoms: C_17  and  C_18
REMARK   17  A    between atoms: C_18  and  O_19
REMARK   18  A    between atoms: O_19  and  C_20
REMARK   19  A    between atoms: C_20  and  C_21
REMARK   20  A    between atoms: C_20  and  C_24
REMARK   21  A    between atoms: C_21  and  C_22
REMARK   22  A    between atoms: C_24  and  O_25
REMARK   23  A    between atoms: C_24  and  C_26
REMARK   24  A    between atoms: C_26  and  O_27
REMARK                            x       y       z     vdW  Elec       q    Type
REMARK                         _______ _______ _______ _____ _____    ______ ____
ROOT
ATOM      1  C   UNL     1       7.366   5.754  16.861  0.00  0.00    +0.000 C 
ENDROOT
BRANCH   1   2
ATOM      2  C   UNL     1       7.563   6.685  18.049  0.00  0.00    +0.000 C 
BRANCH   2   3
ATOM      3  C   UNL     1       7.638   8.125  17.570  0.00  0.00    +0.000 C 
BRANCH   3   4
ATOM      4  C   UNL     1       8.597   8.930  18.433  0.00  0.00    +0.000 C 
BRANCH   4   5
ATOM      5  C   UNL     1       8.523  10.402  18.050  0.00  0.00    +0.000 C 
BRANCH   5   7
ATOM      6  C   UNL     1      10.428  11.225  19.428  0.00  0.00    +0.000 C 
ATOM      7  C   UNL     1       9.860  11.042  18.229  0.00  0.00    +0.000 C 
BRANCH   6   8
ATOM      8  C   UNL     1      11.767  11.862  19.610  0.00  0.00    +0.000 C 
BRANCH   8   9
ATOM      9  C   UNL     1      11.610  13.358  19.862  0.00  0.00    +0.000 C 
BRANCH   9  10
ATOM     10  C   UNL     1      10.485  13.614  20.856  0.00  0.00    +0.000 C 
BRANCH  10  11
ATOM     11  C   UNL     1       9.640  14.806  20.422  0.00  0.00    +0.000 C 
BRANCH  11  12
ATOM     12  C   UNL     1       8.517  14.359  19.491  0.00  0.00    +0.000 C 
BRANCH  12  13
ATOM     13  C   UNL     1       8.774  14.834  18.065  0.00  0.00    +0.000 C 
BRANCH  13  15
ATOM     14  C   UNL     1      10.887  15.753  17.073  0.00  0.00    +0.000 C 
ATOM     15  C   UNL     1       9.749  16.008  18.045  0.00  0.00    +0.000 C 
ENDBRANCH  13  15
ENDBRANCH  12  13
ENDBRANCH  11  12
ENDBRANCH  10  11
ENDBRANCH   9  10
ENDBRANCH   8   9
ENDBRANCH   6   8
ENDBRANCH   5   7
ENDBRANCH   4   5
ENDBRANCH   3   4
ENDBRANCH   2   3
ENDBRANCH   1   2
BRANCH   1  16
ATOM     16  C   UNL     1       5.926   5.815  16.384  0.00  0.00    +0.000 C 
BRANCH  16  17
ATOM     17  C   UNL     1       5.289   4.433  16.366  0.00  0.00    +0.000 C 
BRANCH  17  18
ATOM     18  C   UNL     1       3.869   4.553  16.892  0.00  0.00    +0.000 C 
BRANCH  18  19
ATOM     19  O   UNL     1       3.883   4.766  18.302  0.00  0.00    +0.000 OA
BRANCH  19  20
ATOM     20  C   UNL     1       3.122   3.788  19.016  0.00  0.00    +0.000 C 
BRANCH  20  21
ATOM     21  C   UNL     1       3.951   2.522  19.311  0.00  0.00    +0.000 C 
ATOM     22  C   UNL     1       3.617   1.255  18.565  0.00  0.00    +0.000 C 
ATOM     23  O   UNL     1       4.838   2.497  20.179  0.00  0.00    +0.000 OA
ENDBRANCH  20  21
BRANCH  20  24
ATOM     24  C   UNL     1       2.597   4.358  20.354  0.00  0.00    +0.000 C 
BRANCH  24  25
ATOM     25  O   UNL     1       3.060   5.692  20.583  0.00  0.00    +0.000 OA
ATOM     26  H   UNL     1       3.155   6.063  19.677  0.00  0.00    +0.000 HD
ENDBRANCH  24  25
BRANCH  24  27
ATOM     27  C   UNL     1       1.058   4.306  20.425  0.00  0.00    +0.000 C 
BRANCH  27  28
ATOM     28  O   UNL     1       0.578   2.958  20.333  0.00  0.00    +0.000 OA
ATOM     29  H   UNL     1      -0.392   3.027  20.325  0.00  0.00    +0.000 HD
ENDBRANCH  27  28
ENDBRANCH  24  27
ENDBRANCH  20  24
ENDBRANCH  19  20
ENDBRANCH  18  19
ENDBRANCH  17  18
ENDBRANCH  16  17
ENDBRANCH   1  16
TORSDOF 22
ENDMDL
MODEL 6
REMARK VINA RESULT:      -5.4      3.912      8.274
REMARK  Name = 
REMARK  24 active torsions:
REMARK  status: ('A' for Active; 'I' for Inactive)
REMARK    1  A    between atoms: C_1  and  C_2
REMARK    2  A    between atoms: C_2  and  C_3
REMARK    3  A    between atoms: C_3  and  C_4
REMARK    4  A    between atoms: C_4  and  C_5
REMARK    5  A    between atoms: C_5  and  C_6
REMARK    6  A    between atoms: C_6  and  C_7
REMARK    7  A    between atoms: C_7  and  C_8
REMARK    8  A    between atoms: C_8  and  C_9
REMARK    9  A    between atoms: C_10  and  C_11
REMARK   10  A    between atoms: C_11  and  C_12
REMARK   11  A    between atoms: C_12  and  C_13
REMARK   12  A    between atoms: C_13  and  C_14
REMARK   13  A    between atoms: C_14  and  C_15
REMARK   14  A    between atoms: C_15  and  C_16
REMARK   15  A    between atoms: C_16  and  C_17
REMARK   16  A    between atoms: C_17  and  C_18
REMARK   17  A    between atoms: C_18  and  O_19
REMARK   18  A    between atoms: O_19  and  C_20
REMARK   19  A    between atoms: C_20  and  C_21
REMARK   20  A    between atoms: C_20  and  C_24
REMARK   21  A    between atoms: C_21  and  C_22
REMARK   22  A    between atoms: C_24  and  O_25
REMARK   23  A    between atoms: C_24  and  C_26
REMARK   24  A    between atoms: C_26  and  O_27
REMARK                            x       y       z     vdW  Elec       q    Type
REMARK                         _______ _______ _______ _____ _____    ______ ____
ROOT
ATOM      1  C   UNL     1       2.003   7.418  19.737  0.00  0.00    +0.000 C 
ENDROOT
BRANCH   1   2
ATOM      2  C   UNL     1       2.188   5.916  19.906  0.00  0.00    +0.000 C 
BRANCH   2   3
ATOM      3  C   UNL     1       2.419   5.268  18.552  0.00  0.00    +0.000 C 
BRANCH   3   4
ATOM      4  C   UNL     1       2.674   3.777  18.705  0.00  0.00    +0.000 C 
BRANCH   4   5
ATOM      5  C   UNL     1       3.792   3.545  19.713  0.00  0.00    +0.000 C 
BRANCH   5   7
ATOM      6  C   UNL     1       5.862   4.839  19.219  0.00  0.00    +0.000 C 
ATOM      7  C   UNL     1       5.118   3.737  19.055  0.00  0.00    +0.000 C 
BRANCH   6   8
ATOM      8  C   UNL     1       7.192   5.032  18.565  0.00  0.00    +0.000 C 
BRANCH   8   9
ATOM      9  C   UNL     1       7.520   6.519  18.468  0.00  0.00    +0.000 C 
BRANCH   9  10
ATOM     10  C   UNL     1       7.044   7.083  17.136  0.00  0.00    +0.000 C 
BRANCH  10  11
ATOM     11  C   UNL     1       5.545   6.868  16.961  0.00  0.00    +0.000 C 
BRANCH  11  12
ATOM     12  C   UNL     1       5.243   6.278  15.587  0.00  0.00    +0.000 C 
BRANCH  12  13
ATOM     13  C   UNL     1       4.903   4.795  15.698  0.00  0.00    +0.000 C 
BRANCH  13  15
ATOM     14  C   UNL     1       6.954   4.740  14.253  0.00  0.00    +0.000 C 
ATOM     15  C   UNL     1       6.035   3.930  15.149  0.00  0.00    +0.000 C 
ENDBRANCH  13  15
ENDBRANCH  12  13
ENDBRANCH  11  12
ENDBRANCH  10  11
ENDBRANCH   9  10
ENDBRANCH   8   9
ENDBRANCH   6   8
ENDBRANCH   5   7
ENDBRANCH   4   5
ENDBRANCH   3   4
ENDBRANCH   2   3
ENDBRANCH   1   2
BRANCH   1  16
ATOM     16  C   UNL     1       2.441   7.844  18.349  0.00  0.00    +0.000 C 
BRANCH  16  17
ATOM     17  C   UNL     1       1.689   9.085  17.886  0.00  0.00    +0.000 C 
BRANCH  17  18
ATOM     18  C   UNL     1       1.287   9.886  19.112  0.00  0.00    +0.000 C 
BRANCH  18  19
ATOM     19  O   UNL     1      -0.105  10.191  19.066  0.00  0.00    +0.000 OA
BRANCH  19  20
ATOM     20  C   UNL     1      -0.426  11.412  19.738  0.00  0.00    +0.000 C 
BRANCH  20  21
ATOM     21  C   UNL     1       0.675  12.474  19.552  0.00  0.00    +0.000 C 
ATOM     22  C   UNL     1       1.461  12.913  20.761  0.00  0.00    +0.000 C 
ATOM     23  O   UNL     1       0.893  13.019  18.458  0.00  0.00    +0.000 OA
ENDBRANCH  20  21
BRANCH  20  24
ATOM     24  C   UNL     1      -1.765  11.993  19.230  0.00  0.00    +0.000 C 
BRANCH  24  25
ATOM     25  O   UNL     1      -1.763  13.424  19.238  0.00  0.00    +0.000 OA
ATOM     26  H   UNL     1      -2.265  13.652  20.051  0.00  0.00    +0.000 HD
ENDBRANCH  24  25
BRANCH  24  27
ATOM     27  C   UNL     1      -2.113  11.466  17.823  0.00  0.00    +0.000 C 
BRANCH  27  28
ATOM     28  O   UNL     1      -1.566  12.311  16.801  0.00  0.00    +0.000 OA
ATOM     29  H   UNL     1      -0.796  12.746  17.207  0.00  0.00    +0.000 HD
ENDBRANCH  27  28
ENDBRANCH  24  27
ENDBRANCH  20  24
ENDBRANCH  19  20
ENDBRANCH  18  19
ENDBRANCH  17  18
ENDBRANCH  16  17
ENDBRANCH   1  16
TORSDOF 22
ENDMDL
MODEL 7
REMARK VINA RESULT:      -5.4      5.198      8.193
REMARK  Name = 
REMARK  24 active torsions:
REMARK  status: ('A' for Active; 'I' for Inactive)
REMARK    1  A    between atoms: C_1  and  C_2
REMARK    2  A    between atoms: C_2  and  C_3
REMARK    3  A    between atoms: C_3  and  C_4
REMARK    4  A    between atoms: C_4  and  C_5
REMARK    5  A    between atoms: C_5  and  C_6
REMARK    6  A    between atoms: C_6  and  C_7
REMARK    7  A    between atoms: C_7  and  C_8
REMARK    8  A    between atoms: C_8  and  C_9
REMARK    9  A    between atoms: C_10  and  C_11
REMARK   10  A    between atoms: C_11  and  C_12
REMARK   11  A    between atoms: C_12  and  C_13
REMARK   12  A    between atoms: C_13  and  C_14
REMARK   13  A    between atoms: C_14  and  C_15
REMARK   14  A    between atoms: C_15  and  C_16
REMARK   15  A    between atoms: C_16  and  C_17
REMARK   16  A    between atoms: C_17  and  C_18
REMARK   17  A    between atoms: C_18  and  O_19
REMARK   18  A    between atoms: O_19  and  C_20
REMARK   19  A    between atoms: C_20  and  C_21
REMARK   20  A    between atoms: C_20  and  C_24
REMARK   21  A    between atoms: C_21  and  C_22
REMARK   22  A    between atoms: C_24  and  O_25
REMARK   23  A    between atoms: C_24  and  C_26
REMARK   24  A    between atoms: C_26  and  O_27
REMARK                            x       y       z     vdW  Elec       q    Type
REMARK                         _______ _______ _______ _____ _____    ______ ____
ROOT
ATOM      1  C   UNL     1       7.274   4.824  16.928  0.00  0.00    +0.000 C 
ENDROOT
BRANCH   1   2
ATOM      2  C   UNL     1       7.605   5.052  18.397  0.00  0.00    +0.000 C 
BRANCH   2   3
ATOM      3  C   UNL     1       7.884   6.525  18.642  0.00  0.00    +0.000 C 
BRANCH   3   4
ATOM      4  C   UNL     1       7.831   7.307  17.340  0.00  0.00    +0.000 C 
BRANCH   4   5
ATOM      5  C   UNL     1       7.505   8.767  17.627  0.00  0.00    +0.000 C 
BRANCH   5   7
ATOM      6  C   UNL     1       9.182  10.463  18.345  0.00  0.00    +0.000 C 
ATOM      7  C   UNL     1       8.503   9.333  18.582  0.00  0.00    +0.000 C 
BRANCH   6   8
ATOM      8  C   UNL     1      10.179  11.033  19.300  0.00  0.00    +0.000 C 
BRANCH   8   9
ATOM      9  C   UNL     1       9.551  11.201  20.680  0.00  0.00    +0.000 C 
BRANCH   9  10
ATOM     10  C   UNL     1      10.041  12.486  21.334  0.00  0.00    +0.000 C 
BRANCH  10  11
ATOM     11  C   UNL     1       9.968  13.653  20.356  0.00  0.00    +0.000 C 
BRANCH  11  12
ATOM     12  C   UNL     1      11.344  14.284  20.168  0.00  0.00    +0.000 C 
BRANCH  12  13
ATOM     13  C   UNL     1      11.477  14.888  18.774  0.00  0.00    +0.000 C 
BRANCH  13  15
ATOM     14  C   UNL     1      11.095  13.561  16.679  0.00  0.00    +0.000 C 
ATOM     15  C   UNL     1      10.433  14.309  17.823  0.00  0.00    +0.000 C 
ENDBRANCH  13  15
ENDBRANCH  12  13
ENDBRANCH  11  12
ENDBRANCH  10  11
ENDBRANCH   9  10
ENDBRANCH   8   9
ENDBRANCH   6   8
ENDBRANCH   5   7
ENDBRANCH   4   5
ENDBRANCH   3   4
ENDBRANCH   2   3
ENDBRANCH   1   2
BRANCH   1  16
ATOM     16  C   UNL     1       5.854   4.310  16.788  0.00  0.00    +0.000 C 
BRANCH  16  17
ATOM     17  C   UNL     1       4.840   5.438  16.925  0.00  0.00    +0.000 C 
BRANCH  17  18
ATOM     18  C   UNL     1       4.166   5.316  18.281  0.00  0.00    +0.000 C 
BRANCH  18  19
ATOM     19  O   UNL     1       2.780   5.026  18.117  0.00  0.00    +0.000 OA
BRANCH  19  20
ATOM     20  C   UNL     1       2.346   3.928  18.924  0.00  0.00    +0.000 C 
BRANCH  20  21
ATOM     21  C   UNL     1       3.195   2.665  18.677  0.00  0.00    +0.000 C 
ATOM     22  C   UNL     1       4.281   2.325  19.665  0.00  0.00    +0.000 C 
ATOM     23  O   UNL     1       3.052   1.957  17.667  0.00  0.00    +0.000 OA
ENDBRANCH  20  21
BRANCH  20  24
ATOM     24  C   UNL     1       2.410   4.281  20.428  0.00  0.00    +0.000 C 
BRANCH  24  25
ATOM     25  O   UNL     1       2.249   5.685  20.653  0.00  0.00    +0.000 OA
ATOM     26  H   UNL     1       2.814   6.097  19.962  0.00  0.00    +0.000 HD
ENDBRANCH  24  25
BRANCH  24  27
ATOM     27  C   UNL     1       1.370   3.486  21.241  0.00  0.00    +0.000 C 
BRANCH  27  28
ATOM     28  O   UNL     1       1.995   2.726  22.284  0.00  0.00    +0.000 OA
ATOM     29  H   UNL     1       1.597   1.840  22.235  0.00  0.00    +0.000 HD
ENDBRANCH  27  28
ENDBRANCH  24  27
ENDBRANCH  20  24
ENDBRANCH  19  20
ENDBRANCH  18  19
ENDBRANCH  17  18
ENDBRANCH  16  17
ENDBRANCH   1  16
TORSDOF 22
ENDMDL
MODEL 8
REMARK VINA RESULT:      -5.3      3.512      7.783
REMARK  Name = 
REMARK  24 active torsions:
REMARK  status: ('A' for Active; 'I' for Inactive)
REMARK    1  A    between atoms: C_1  and  C_2
REMARK    2  A    between atoms: C_2  and  C_3
REMARK    3  A    between atoms: C_3  and  C_4
REMARK    4  A    between atoms: C_4  and  C_5
REMARK    5  A    between atoms: C_5  and  C_6
REMARK    6  A    between atoms: C_6  and  C_7
REMARK    7  A    between atoms: C_7  and  C_8
REMARK    8  A    between atoms: C_8  and  C_9
REMARK    9  A    between atoms: C_10  and  C_11
REMARK   10  A    between atoms: C_11  and  C_12
REMARK   11  A    between atoms: C_12  and  C_13
REMARK   12  A    between atoms: C_13  and  C_14
REMARK   13  A    between atoms: C_14  and  C_15
REMARK   14  A    between atoms: C_15  and  C_16
REMARK   15  A    between atoms: C_16  and  C_17
REMARK   16  A    between atoms: C_17  and  C_18
REMARK   17  A    between atoms: C_18  and  O_19
REMARK   18  A    between atoms: O_19  and  C_20
REMARK   19  A    between atoms: C_20  and  C_21
REMARK   20  A    between atoms: C_20  and  C_24
REMARK   21  A    between atoms: C_21  and  C_22
REMARK   22  A    between atoms: C_24  and  O_25
REMARK   23  A    between atoms: C_24  and  C_26
REMARK   24  A    between atoms: C_26  and  O_27
REMARK                            x       y       z     vdW  Elec       q    Type
REMARK                         _______ _______ _______ _____ _____    ______ ____
ROOT
ATOM      1  C   UNL     1       4.212   7.489  17.438  0.00  0.00    +0.000 C 
ENDROOT
BRANCH   1   2
ATOM      2  C   UNL     1       4.685   6.574  16.316  0.00  0.00    +0.000 C 
BRANCH   2   3
ATOM      3  C   UNL     1       6.156   6.244  16.504  0.00  0.00    +0.000 C 
BRANCH   3   4
ATOM      4  C   UNL     1       6.608   6.580  17.915  0.00  0.00    +0.000 C 
BRANCH   4   5
ATOM      5  C   UNL     1       6.774   5.299  18.723  0.00  0.00    +0.000 C 
BRANCH   5   7
ATOM      6  C   UNL     1       4.819   3.757  18.789  0.00  0.00    +0.000 C 
ATOM      7  C   UNL     1       5.903   4.225  18.158  0.00  0.00    +0.000 C 
BRANCH   6   8
ATOM      8  C   UNL     1       3.944   2.685  18.225  0.00  0.00    +0.000 C 
BRANCH   8   9
ATOM      9  C   UNL     1       3.029   3.263  17.150  0.00  0.00    +0.000 C 
BRANCH   9  10
ATOM     10  C   UNL     1       1.743   3.789  17.774  0.00  0.00    +0.000 C 
BRANCH  10  11
ATOM     11  C   UNL     1       0.977   2.667  18.464  0.00  0.00    +0.000 C 
BRANCH  11  12
ATOM     12  C   UNL     1       0.625   3.058  19.897  0.00  0.00    +0.000 C 
BRANCH  12  13
ATOM     13  C   UNL     1       1.673   2.533  20.873  0.00  0.00    +0.000 C 
BRANCH  13  15
ATOM     14  C   UNL     1       2.203   4.979  21.062  0.00  0.00    +0.000 C 
ATOM     15  C   UNL     1       2.176   3.646  21.789  0.00  0.00    +0.000 C 
ENDBRANCH  13  15
ENDBRANCH  12  13
ENDBRANCH  11  12
ENDBRANCH  10  11
ENDBRANCH   9  10
ENDBRANCH   8   9
ENDBRANCH   6   8
ENDBRANCH   5   7
ENDBRANCH   4   5
ENDBRANCH   3   4
ENDBRANCH   2   3
ENDBRANCH   1   2
BRANCH   1  16
ATOM     16  C   UNL     1       2.786   7.144  17.824  0.00  0.00    +0.000 C 
BRANCH  16  17
ATOM     17  C   UNL     1       2.178   8.218  18.717  0.00  0.00    +0.000 C 
BRANCH  17  18
ATOM     18  C   UNL     1       1.901   9.447  17.868  0.00  0.00    +0.000 C 
BRANCH  18  19
ATOM     19  O   UNL     1       1.604  10.564  18.702  0.00  0.00    +0.000 OA
BRANCH  19  20
ATOM     20  C   UNL     1       0.342  11.163  18.395  0.00  0.00    +0.000 C 
BRANCH  20  21
ATOM     21  C   UNL     1      -0.834  10.337  18.954  0.00  0.00    +0.000 C 
ATOM     22  C   UNL     1      -2.078  10.200  18.115  0.00  0.00    +0.000 C 
ATOM     23  O   UNL     1      -0.811   9.836  20.090  0.00  0.00    +0.000 OA
ENDBRANCH  20  21
BRANCH  20  24
ATOM     24  C   UNL     1       0.253  12.598  18.962  0.00  0.00    +0.000 C 
BRANCH  24  25
ATOM     25  O   UNL     1      -0.804  13.347  18.353  0.00  0.00    +0.000 OA
ATOM     26  H   UNL     1      -1.619  12.916  18.694  0.00  0.00    +0.000 HD
ENDBRANCH  24  25
BRANCH  24  27
ATOM     27  C   UNL     1       0.090  12.592  20.494  0.00  0.00    +0.000 C 
BRANCH  27  28
ATOM     28  O   UNL     1       1.230  12.005  21.137  0.00  0.00    +0.000 OA
ATOM     29  H   UNL     1       1.973  12.141  20.525  0.00  0.00    +0.000 HD
ENDBRANCH  27  28
ENDBRANCH  24  27
ENDBRANCH  20  24
ENDBRANCH  19  20
ENDBRANCH  18  19
ENDBRANCH  17  18
ENDBRANCH  16  17
ENDBRANCH   1  16
TORSDOF 22
ENDMDL
MODEL 9
REMARK VINA RESULT:      -5.3      5.880      8.842
REMARK  Name = 
REMARK  24 active torsions:
REMARK  status: ('A' for Active; 'I' for Inactive)
REMARK    1  A    between atoms: C_1  and  C_2
REMARK    2  A    between atoms: C_2  and  C_3
REMARK    3  A    between atoms: C_3  and  C_4
REMARK    4  A    between atoms: C_4  and  C_5
REMARK    5  A    between atoms: C_5  and  C_6
REMARK    6  A    between atoms: C_6  and  C_7
REMARK    7  A    between atoms: C_7  and  C_8
REMARK    8  A    between atoms: C_8  and  C_9
REMARK    9  A    between atoms: C_10  and  C_11
REMARK   10  A    between atoms: C_11  and  C_12
REMARK   11  A    between atoms: C_12  and  C_13
REMARK   12  A    between atoms: C_13  and  C_14
REMARK   13  A    between atoms: C_14  and  C_15
REMARK   14  A    between atoms: C_15  and  C_16
REMARK   15  A    between atoms: C_16  and  C_17
REMARK   16  A    between atoms: C_17  and  C_18
REMARK   17  A    between atoms: C_18  and  O_19
REMARK   18  A    between atoms: O_19  and  C_20
REMARK   19  A    between atoms: C_20  and  C_21
REMARK   20  A    between atoms: C_20  and  C_24
REMARK   21  A    between atoms: C_21  and  C_22
REMARK   22  A    between atoms: C_24  and  O_25
REMARK   23  A    between atoms: C_24  and  C_26
REMARK   24  A    between atoms: C_26  and  O_27
REMARK                            x       y       z     vdW  Elec       q    Type
REMARK                         _______ _______ _______ _____ _____    ______ ____
ROOT
ATOM      1  C   UNL     1       7.554   6.413  17.763  0.00  0.00    +0.000 C 
ENDROOT
BRANCH   1   2
ATOM      2  C   UNL     1       8.210   7.599  18.455  0.00  0.00    +0.000 C 
BRANCH   2   3
ATOM      3  C   UNL     1       7.731   8.896  17.824  0.00  0.00    +0.000 C 
BRANCH   3   4
ATOM      4  C   UNL     1       8.778   9.987  17.976  0.00  0.00    +0.000 C 
BRANCH   4   5
ATOM      5  C   UNL     1       9.104  10.188  19.451  0.00  0.00    +0.000 C 
BRANCH   5   7
ATOM      6  C   UNL     1      10.969  11.679  18.743  0.00  0.00    +0.000 C 
ATOM      7  C   UNL     1      10.469  10.775  19.595  0.00  0.00    +0.000 C 
BRANCH   6   8
ATOM      8  C   UNL     1      12.333  12.271  18.886  0.00  0.00    +0.000 C 
BRANCH   8   9
ATOM      9  C   UNL     1      12.238  13.682  19.459  0.00  0.00    +0.000 C 
BRANCH   9  10
ATOM     10  C   UNL     1      11.020  14.403  18.897  0.00  0.00    +0.000 C 
BRANCH  10  11
ATOM     11  C   UNL     1      10.267  15.136  20.001  0.00  0.00    +0.000 C 
BRANCH  11  12
ATOM     12  C   UNL     1      10.303  14.336  21.299  0.00  0.00    +0.000 C 
BRANCH  12  13
ATOM     13  C   UNL     1       9.051  13.477  21.441  0.00  0.00    +0.000 C 
BRANCH  13  15
ATOM     14  C   UNL     1       8.665  14.727  23.582  0.00  0.00    +0.000 C 
ATOM     15  C   UNL     1       8.620  13.371  22.901  0.00  0.00    +0.000 C 
ENDBRANCH  13  15
ENDBRANCH  12  13
ENDBRANCH  11  12
ENDBRANCH  10  11
ENDBRANCH   9  10
ENDBRANCH   8   9
ENDBRANCH   6   8
ENDBRANCH   5   7
ENDBRANCH   4   5
ENDBRANCH   3   4
ENDBRANCH   2   3
ENDBRANCH   1   2
BRANCH   1  16
ATOM     16  C   UNL     1       6.127   6.758  17.378  0.00  0.00    +0.000 C 
BRANCH  16  17
ATOM     17  C   UNL     1       5.124   5.912  18.150  0.00  0.00    +0.000 C 
BRANCH  17  18
ATOM     18  C   UNL     1       4.166   5.278  17.156  0.00  0.00    +0.000 C 
BRANCH  18  19
ATOM     19  O   UNL     1       3.595   4.095  17.710  0.00  0.00    +0.000 OA
BRANCH  19  20
ATOM     20  C   UNL     1       3.492   4.146  19.136  0.00  0.00    +0.000 C 
BRANCH  20  21
ATOM     21  C   UNL     1       2.076   4.547  19.593  0.00  0.00    +0.000 C 
ATOM     22  C   UNL     1       1.918   5.782  20.443  0.00  0.00    +0.000 C 
ATOM     23  O   UNL     1       1.076   3.857  19.337  0.00  0.00    +0.000 OA
ENDBRANCH  20  21
BRANCH  20  24
ATOM     24  C   UNL     1       3.850   2.783  19.770  0.00  0.00    +0.000 C 
BRANCH  24  25
ATOM     25  O   UNL     1       3.062   2.513  20.934  0.00  0.00    +0.000 OA
ATOM     26  H   UNL     1       2.291   2.015  20.581  0.00  0.00    +0.000 HD
ENDBRANCH  24  25
BRANCH  24  27
ATOM     27  C   UNL     1       3.714   1.633  18.753  0.00  0.00    +0.000 C 
BRANCH  27  28
ATOM     28  O   UNL     1       2.340   1.393  18.419  0.00  0.00    +0.000 OA
ATOM     29  H   UNL     1       1.946   0.992  19.213  0.00  0.00    +0.000 HD
ENDBRANCH  27  28
ENDBRANCH  24  27
ENDBRANCH  20  24
ENDBRANCH  19  20
ENDBRANCH  18  19
ENDBRANCH  17  18
ENDBRANCH  16  17
ENDBRANCH   1  16
TORSDOF 22
ENDMDL
