MODEL 1
REMARK VINA RESULT:      -8.6      0.000      0.000
REMARK  Name = 
REMARK  12 active torsions:
REMARK  status: ('A' for Active; 'I' for Inactive)
REMARK    1  A    between atoms: C_1  and  C_2
REMARK    2  A    between atoms: C_2  and  C_3
REMARK    3  A    between atoms: C_2  and  C_21
REMARK    4  A    between atoms: C_2  and  S_25
REMARK    5  A    between atoms: C_3  and  C_4
REMARK    6  A    between atoms: C_4  and  C_5
REMARK    7  A    between atoms: C_8  and  C_9
REMARK    8  A    between atoms: C_12  and  C_13
REMARK    9  A    between atoms: C_13  and  C_15
REMARK   10  A    between atoms: C_15  and  O_16
REMARK   11  A    between atoms: N_23  and  O_24
REMARK   12  A    between atoms: S_25  and  C_26
REMARK                            x       y       z     vdW  Elec       q    Type
REMARK                         _______ _______ _______ _____ _____    ______ ____
ROOT
ATOM      1  C   UNL     1       2.649   7.421  18.298  0.00  0.00    +0.000 A 
ATOM      2  C   UNL     1       2.129   8.620  17.801  0.00  0.00    +0.000 A 
ATOM      3  C   UNL     1       1.396   9.472  18.630  0.00  0.00    +0.000 A 
ATOM      4  C   UNL     1       1.128   9.139  19.968  0.00  0.00    +0.000 A 
ATOM      5  C   UNL     1       1.652   7.924  20.445  0.00  0.00    +0.000 A 
ATOM      6  C   UNL     1       2.409   7.082  19.630  0.00  0.00    +0.000 A 
ENDROOT
BRANCH   4   7
ATOM      7  C   UNL     1       0.302  10.010  20.833  0.00  0.00    +0.000 A 
ATOM      8  C   UNL     1      -0.000   9.647  22.158  0.00  0.00    +0.000 A 
ATOM      9  C   UNL     1      -0.749  10.480  22.994  0.00  0.00    +0.000 A 
ATOM     10  C   UNL     1      -1.206  11.711  22.520  0.00  0.00    +0.000 A 
ATOM     11  C   UNL     1      -0.917  12.098  21.212  0.00  0.00    +0.000 A 
ATOM     12  C   UNL     1      -0.187  11.248  20.376  0.00  0.00    +0.000 A 
BRANCH  10  13
ATOM     13  C   UNL     1      -2.005  12.623  23.375  0.00  0.00    +0.000 C 
ATOM     14  O   UNL     1      -1.526  13.685  23.771  0.00  0.00    +0.000 OA
BRANCH  13  15
ATOM     15  C   UNL     1      -3.427  12.213  23.726  0.00  0.00    +0.000 C 
BRANCH  15  16
ATOM     16  O   UNL     1      -4.276  12.306  22.592  0.00  0.00    +0.000 OA
ATOM     17  H   UNL     1      -3.983  13.100  22.100  0.00  0.00    +0.000 HD
ENDBRANCH  15  16
ENDBRANCH  13  15
ENDBRANCH  10  13
ENDBRANCH   4   7
BRANCH   1  18
ATOM     18  C   UNL     1       3.424   6.491  17.404  0.00  0.00    +0.000 C 
BRANCH  18  19
ATOM     19  C   UNL     1       4.937   6.619  17.619  0.00  0.00    +0.000 C 
BRANCH  19  21
ATOM     20  C   UNL     1       4.743   4.113  17.279  0.00  0.00    +0.000 C 
ATOM     21  C   UNL     1       5.679   5.264  17.685  0.00  0.00    +0.000 C 
BRANCH  21  22
ATOM     22  C   UNL     1       6.248   5.025  19.079  0.00  0.00    +0.000 C 
ATOM     23  O   UNL     1       5.660   4.349  19.929  0.00  0.00    +0.000 OA
ATOM     24  N   UNL     1       7.439   5.642  19.381  0.00  0.00    +0.000 N 
ATOM     25  H   UNL     1       8.132   5.876  18.665  0.00  0.00    +0.000 HD
BRANCH  24  26
ATOM     26  O   UNL     1       7.950   5.378  20.674  0.00  0.00    +0.000 OA
ATOM     27  H   UNL     1       8.593   6.108  20.811  0.00  0.00    +0.000 HD
ENDBRANCH  24  26
ENDBRANCH  21  22
BRANCH  21  28
ATOM     28  S   UNL     1       7.085   5.336  16.538  0.00  0.00    +0.000 S 
ATOM     29  C   UNL     1       6.442   4.958  14.924  0.00  0.00    +0.000 C 
ATOM     30  O   UNL     1       7.562   6.706  16.500  0.00  0.00    +0.000 OA
ATOM     31  O   UNL     1       7.997   4.265  16.912  0.00  0.00    +0.000 OA
ENDBRANCH  21  28
ENDBRANCH  19  21
ENDBRANCH  18  19
ENDBRANCH   1  18
TORSDOF 10
ENDMDL
MODEL 2
REMARK VINA RESULT:      -8.1      0.611      1.409
REMARK  Name = 
REMARK  12 active torsions:
REMARK  status: ('A' for Active; 'I' for Inactive)
REMARK    1  A    between atoms: C_1  and  C_2
REMARK    2  A    between atoms: C_2  and  C_3
REMARK    3  A    between atoms: C_2  and  C_21
REMARK    4  A    between atoms: C_2  and  S_25
REMARK    5  A    between atoms: C_3  and  C_4
REMARK    6  A    between atoms: C_4  and  C_5
REMARK    7  A    between atoms: C_8  and  C_9
REMARK    8  A    between atoms: C_12  and  C_13
REMARK    9  A    between atoms: C_13  and  C_15
REMARK   10  A    between atoms: C_15  and  O_16
REMARK   11  A    between atoms: N_23  and  O_24
REMARK   12  A    between atoms: S_25  and  C_26
REMARK                            x       y       z     vdW  Elec       q    Type
REMARK                         _______ _______ _______ _____ _____    ______ ____
ROOT
ATOM      1  C   UNL     1       2.374   6.636  18.861  0.00  0.00    +0.000 A 
ATOM      2  C   UNL     1       1.911   6.407  20.160  0.00  0.00    +0.000 A 
ATOM      3  C   UNL     1       1.265   7.419  20.871  0.00  0.00    +0.000 A 
ATOM      4  C   UNL     1       1.091   8.702  20.324  0.00  0.00    +0.000 A 
ATOM      5  C   UNL     1       1.572   8.914  19.019  0.00  0.00    +0.000 A 
ATOM      6  C   UNL     1       2.194   7.898  18.293  0.00  0.00    +0.000 A 
ENDROOT
BRANCH   4   7
ATOM      7  C   UNL     1       0.460   9.795  21.096  0.00  0.00    +0.000 A 
ATOM      8  C   UNL     1       0.406  11.107  20.592  0.00  0.00    +0.000 A 
ATOM      9  C   UNL     1      -0.220  12.139  21.297  0.00  0.00    +0.000 A 
ATOM     10  C   UNL     1      -0.821  11.873  22.529  0.00  0.00    +0.000 A 
ATOM     11  C   UNL     1      -0.786  10.580  23.050  0.00  0.00    +0.000 A 
ATOM     12  C   UNL     1      -0.138   9.560  22.348  0.00  0.00    +0.000 A 
BRANCH  10  13
ATOM     13  C   UNL     1      -1.494  12.940  23.309  0.00  0.00    +0.000 C 
ATOM     14  O   UNL     1      -0.879  13.955  23.637  0.00  0.00    +0.000 OA
BRANCH  13  15
ATOM     15  C   UNL     1      -2.959  12.748  23.670  0.00  0.00    +0.000 C 
BRANCH  15  16
ATOM     16  O   UNL     1      -3.694  12.253  22.561  0.00  0.00    +0.000 OA
ATOM     17  H   UNL     1      -3.880  11.313  22.758  0.00  0.00    +0.000 HD
ENDBRANCH  15  16
ENDBRANCH  13  15
ENDBRANCH  10  13
ENDBRANCH   4   7
BRANCH   1  18
ATOM     18  C   UNL     1       3.086   5.553  18.096  0.00  0.00    +0.000 C 
BRANCH  18  19
ATOM     19  C   UNL     1       4.449   6.023  17.575  0.00  0.00    +0.000 C 
BRANCH  19  21
ATOM     20  C   UNL     1       4.910   3.585  17.045  0.00  0.00    +0.000 C 
ATOM     21  C   UNL     1       5.523   4.910  17.531  0.00  0.00    +0.000 C 
BRANCH  21  22
ATOM     22  C   UNL     1       6.173   4.729  18.898  0.00  0.00    +0.000 C 
ATOM     23  O   UNL     1       5.712   3.973  19.758  0.00  0.00    +0.000 OA
ATOM     24  N   UNL     1       7.286   5.492  19.164  0.00  0.00    +0.000 N 
ATOM     25  H   UNL     1       7.914   5.823  18.426  0.00  0.00    +0.000 HD
BRANCH  24  26
ATOM     26  O   UNL     1       7.879   5.280  20.432  0.00  0.00    +0.000 OA
ATOM     27  H   UNL     1       7.119   4.991  20.984  0.00  0.00    +0.000 HD
ENDBRANCH  24  26
ENDBRANCH  21  22
BRANCH  21  28
ATOM     28  S   UNL     1       6.828   5.433  16.381  0.00  0.00    +0.000 S 
ATOM     29  C   UNL     1       6.241   5.062  14.744  0.00  0.00    +0.000 C 
ATOM     30  O   UNL     1       6.956   6.875  16.475  0.00  0.00    +0.000 OA
ATOM     31  O   UNL     1       7.986   4.589  16.637  0.00  0.00    +0.000 OA
ENDBRANCH  21  28
ENDBRANCH  19  21
ENDBRANCH  18  19
ENDBRANCH   1  18
TORSDOF 10
ENDMDL
MODEL 3
REMARK VINA RESULT:      -8.0      0.742      1.105
REMARK  Name = 
REMARK  12 active torsions:
REMARK  status: ('A' for Active; 'I' for Inactive)
REMARK    1  A    between atoms: C_1  and  C_2
REMARK    2  A    between atoms: C_2  and  C_3
REMARK    3  A    between atoms: C_2  and  C_21
REMARK    4  A    between atoms: C_2  and  S_25
REMARK    5  A    between atoms: C_3  and  C_4
REMARK    6  A    between atoms: C_4  and  C_5
REMARK    7  A    between atoms: C_8  and  C_9
REMARK    8  A    between atoms: C_12  and  C_13
REMARK    9  A    between atoms: C_13  and  C_15
REMARK   10  A    between atoms: C_15  and  O_16
REMARK   11  A    between atoms: N_23  and  O_24
REMARK   12  A    between atoms: S_25  and  C_26
REMARK                            x       y       z     vdW  Elec       q    Type
REMARK                         _______ _______ _______ _____ _____    ______ ____
ROOT
ATOM      1  C   UNL     1       2.622   7.182  18.447  0.00  0.00    +0.000 A 
ATOM      2  C   UNL     1       2.239   8.397  17.872  0.00  0.00    +0.000 A 
ATOM      3  C   UNL     1       1.591   9.370  18.635  0.00  0.00    +0.000 A 
ATOM      4  C   UNL     1       1.272   9.147  19.985  0.00  0.00    +0.000 A 
ATOM      5  C   UNL     1       1.658   7.915  20.542  0.00  0.00    +0.000 A 
ATOM      6  C   UNL     1       2.331   6.950  19.791  0.00  0.00    +0.000 A 
ENDROOT
BRANCH   4   7
ATOM      7  C   UNL     1       0.532  10.151  20.782  0.00  0.00    +0.000 A 
ATOM      8  C   UNL     1      -0.331   9.763  21.822  0.00  0.00    +0.000 A 
ATOM      9  C   UNL     1      -1.007  10.704  22.604  0.00  0.00    +0.000 A 
ATOM     10  C   UNL     1      -0.821  12.067  22.367  0.00  0.00    +0.000 A 
ATOM     11  C   UNL     1       0.034  12.480  21.344  0.00  0.00    +0.000 A 
ATOM     12  C   UNL     1       0.687  11.531  20.552  0.00  0.00    +0.000 A 
BRANCH  10  13
ATOM     13  C   UNL     1      -1.519  13.098  23.173  0.00  0.00    +0.000 C 
ATOM     14  O   UNL     1      -2.565  12.826  23.761  0.00  0.00    +0.000 OA
BRANCH  13  15
ATOM     15  C   UNL     1      -0.895  14.482  23.262  0.00  0.00    +0.000 C 
BRANCH  15  16
ATOM     16  O   UNL     1      -1.895  15.489  23.294  0.00  0.00    +0.000 OA
ATOM     17  H   UNL     1      -2.219  15.577  22.375  0.00  0.00    +0.000 HD
ENDBRANCH  15  16
ENDBRANCH  13  15
ENDBRANCH  10  13
ENDBRANCH   4   7
BRANCH   1  18
ATOM     18  C   UNL     1       3.305   6.124  17.624  0.00  0.00    +0.000 C 
BRANCH  18  19
ATOM     19  C   UNL     1       4.820   6.349  17.543  0.00  0.00    +0.000 C 
BRANCH  19  21
ATOM     20  C   UNL     1       4.794   3.824  17.310  0.00  0.00    +0.000 C 
ATOM     21  C   UNL     1       5.655   5.052  17.649  0.00  0.00    +0.000 C 
BRANCH  21  22
ATOM     22  C   UNL     1       6.264   4.911  19.040  0.00  0.00    +0.000 C 
ATOM     23  O   UNL     1       5.765   4.196  19.914  0.00  0.00    +0.000 OA
ATOM     24  N   UNL     1       7.384   5.662  19.310  0.00  0.00    +0.000 N 
ATOM     25  H   UNL     1       8.038   5.953  18.578  0.00  0.00    +0.000 HD
BRANCH  24  26
ATOM     26  O   UNL     1       7.937   5.487  20.600  0.00  0.00    +0.000 OA
ATOM     27  H   UNL     1       8.611   6.200  20.650  0.00  0.00    +0.000 HD
ENDBRANCH  24  26
ENDBRANCH  21  22
BRANCH  21  28
ATOM     28  S   UNL     1       7.032   5.171  16.471  0.00  0.00    +0.000 S 
ATOM     29  C   UNL     1       6.391   4.669  14.890  0.00  0.00    +0.000 C 
ATOM     30  O   UNL     1       7.405   6.569  16.359  0.00  0.00    +0.000 OA
ATOM     31  O   UNL     1       8.028   4.190  16.876  0.00  0.00    +0.000 OA
ENDBRANCH  21  28
ENDBRANCH  19  21
ENDBRANCH  18  19
ENDBRANCH   1  18
TORSDOF 10
ENDMDL
MODEL 4
REMARK VINA RESULT:      -8.0      1.440      2.053
REMARK  Name = 
REMARK  12 active torsions:
REMARK  status: ('A' for Active; 'I' for Inactive)
REMARK    1  A    between atoms: C_1  and  C_2
REMARK    2  A    between atoms: C_2  and  C_3
REMARK    3  A    between atoms: C_2  and  C_21
REMARK    4  A    between atoms: C_2  and  S_25
REMARK    5  A    between atoms: C_3  and  C_4
REMARK    6  A    between atoms: C_4  and  C_5
REMARK    7  A    between atoms: C_8  and  C_9
REMARK    8  A    between atoms: C_12  and  C_13
REMARK    9  A    between atoms: C_13  and  C_15
REMARK   10  A    between atoms: C_15  and  O_16
REMARK   11  A    between atoms: N_23  and  O_24
REMARK   12  A    between atoms: S_25  and  C_26
REMARK                            x       y       z     vdW  Elec       q    Type
REMARK                         _______ _______ _______ _____ _____    ______ ____
ROOT
ATOM      1  C   UNL     1       2.322   7.425  18.855  0.00  0.00    +0.000 A 
ATOM      2  C   UNL     1       2.013   7.225  20.203  0.00  0.00    +0.000 A 
ATOM      3  C   UNL     1       1.305   8.192  20.920  0.00  0.00    +0.000 A 
ATOM      4  C   UNL     1       0.915   9.404  20.324  0.00  0.00    +0.000 A 
ATOM      5  C   UNL     1       1.244   9.589  18.970  0.00  0.00    +0.000 A 
ATOM      6  C   UNL     1       1.927   8.614  18.241  0.00  0.00    +0.000 A 
ENDROOT
BRANCH   4   7
ATOM      7  C   UNL     1       0.218  10.457  21.096  0.00  0.00    +0.000 A 
ATOM      8  C   UNL     1      -0.414  10.167  22.318  0.00  0.00    +0.000 A 
ATOM      9  C   UNL     1      -1.043  11.162  23.073  0.00  0.00    +0.000 A 
ATOM     10  C   UNL     1      -1.043  12.482  22.619  0.00  0.00    +0.000 A 
ATOM     11  C   UNL     1      -0.420  12.798  21.412  0.00  0.00    +0.000 A 
ATOM     12  C   UNL     1       0.187  11.792  20.653  0.00  0.00    +0.000 A 
BRANCH  10  13
ATOM     13  C   UNL     1      -1.701  13.566  23.389  0.00  0.00    +0.000 C 
ATOM     14  O   UNL     1      -1.054  14.246  24.185  0.00  0.00    +0.000 OA
BRANCH  13  15
ATOM     15  C   UNL     1      -3.181  13.819  23.148  0.00  0.00    +0.000 C 
BRANCH  15  16
ATOM     16  O   UNL     1      -3.894  13.869  24.375  0.00  0.00    +0.000 OA
ATOM     17  H   UNL     1      -3.283  14.271  25.025  0.00  0.00    +0.000 HD
ENDBRANCH  15  16
ENDBRANCH  13  15
ENDBRANCH  10  13
ENDBRANCH   4   7
BRANCH   1  18
ATOM     18  C   UNL     1       3.100   6.394  18.083  0.00  0.00    +0.000 C 
BRANCH  18  19
ATOM     19  C   UNL     1       4.529   6.236  18.617  0.00  0.00    +0.000 C 
BRANCH  19  21
ATOM     20  C   UNL     1       5.257   5.449  16.318  0.00  0.00    +0.000 C 
ATOM     21  C   UNL     1       5.383   5.212  17.833  0.00  0.00    +0.000 C 
BRANCH  21  22
ATOM     22  C   UNL     1       4.980   3.785  18.187  0.00  0.00    +0.000 C 
ATOM     23  O   UNL     1       4.279   3.090  17.445  0.00  0.00    +0.000 OA
ATOM     24  N   UNL     1       5.390   3.307  19.409  0.00  0.00    +0.000 N 
ATOM     25  H   UNL     1       6.236   3.646  19.875  0.00  0.00    +0.000 HD
BRANCH  24  26
ATOM     26  O   UNL     1       5.020   1.971  19.693  0.00  0.00    +0.000 OA
ATOM     27  H   UNL     1       4.515   1.707  18.893  0.00  0.00    +0.000 HD
ENDBRANCH  24  26
ENDBRANCH  21  22
BRANCH  21  28
ATOM     28  S   UNL     1       7.115   5.421  18.338  0.00  0.00    +0.000 S 
ATOM     29  C   UNL     1       7.619   7.028  17.767  0.00  0.00    +0.000 C 
ATOM     30  O   UNL     1       7.158   5.447  19.788  0.00  0.00    +0.000 OA
ATOM     31  O   UNL     1       7.894   4.429  17.612  0.00  0.00    +0.000 OA
ENDBRANCH  21  28
ENDBRANCH  19  21
ENDBRANCH  18  19
ENDBRANCH   1  18
TORSDOF 10
ENDMDL
MODEL 5
REMARK VINA RESULT:      -8.0      2.378      3.032
REMARK  Name = 
REMARK  12 active torsions:
REMARK  status: ('A' for Active; 'I' for Inactive)
REMARK    1  A    between atoms: C_1  and  C_2
REMARK    2  A    between atoms: C_2  and  C_3
REMARK    3  A    between atoms: C_2  and  C_21
REMARK    4  A    between atoms: C_2  and  S_25
REMARK    5  A    between atoms: C_3  and  C_4
REMARK    6  A    between atoms: C_4  and  C_5
REMARK    7  A    between atoms: C_8  and  C_9
REMARK    8  A    between atoms: C_12  and  C_13
REMARK    9  A    between atoms: C_13  and  C_15
REMARK   10  A    between atoms: C_15  and  O_16
REMARK   11  A    between atoms: N_23  and  O_24
REMARK   12  A    between atoms: S_25  and  C_26
REMARK                            x       y       z     vdW  Elec       q    Type
REMARK                         _______ _______ _______ _____ _____    ______ ____
ROOT
ATOM      1  C   UNL     1       2.129   7.889  19.043  0.00  0.00    +0.000 A 
ATOM      2  C   UNL     1       1.593   8.994  18.374  0.00  0.00    +0.000 A 
ATOM      3  C   UNL     1       0.756   9.889  19.042  0.00  0.00    +0.000 A 
ATOM      4  C   UNL     1       0.397   9.691  20.386  0.00  0.00    +0.000 A 
ATOM      5  C   UNL     1       0.939   8.569  21.038  0.00  0.00    +0.000 A 
ATOM      6  C   UNL     1       1.800   7.686  20.383  0.00  0.00    +0.000 A 
ENDROOT
BRANCH   4   7
ATOM      7  C   UNL     1      -0.539  10.604  21.081  0.00  0.00    +0.000 A 
ATOM      8  C   UNL     1      -0.677  10.578  22.480  0.00  0.00    +0.000 A 
ATOM      9  C   UNL     1      -1.530  11.461  23.149  0.00  0.00    +0.000 A 
ATOM     10  C   UNL     1      -2.261  12.404  22.424  0.00  0.00    +0.000 A 
ATOM     11  C   UNL     1      -2.139  12.454  21.035  0.00  0.00    +0.000 A 
ATOM     12  C   UNL     1      -1.301  11.552  20.374  0.00  0.00    +0.000 A 
BRANCH  10  13
ATOM     13  C   UNL     1      -3.179  13.357  23.095  0.00  0.00    +0.000 C 
ATOM     14  O   UNL     1      -3.450  14.436  22.569  0.00  0.00    +0.000 OA
BRANCH  13  15
ATOM     15  C   UNL     1      -3.781  12.951  24.432  0.00  0.00    +0.000 C 
BRANCH  15  16
ATOM     16  O   UNL     1      -4.867  12.055  24.248  0.00  0.00    +0.000 OA
ATOM     17  H   UNL     1      -4.605  11.221  24.688  0.00  0.00    +0.000 HD
ENDBRANCH  15  16
ENDBRANCH  13  15
ENDBRANCH  10  13
ENDBRANCH   4   7
BRANCH   1  18
ATOM     18  C   UNL     1       3.019   6.913  18.322  0.00  0.00    +0.000 C 
BRANCH  18  19
ATOM     19  C   UNL     1       3.453   5.756  19.231  0.00  0.00    +0.000 C 
BRANCH  19  21
ATOM     20  C   UNL     1       1.770   4.576  17.745  0.00  0.00    +0.000 C 
ATOM     21  C   UNL     1       2.742   4.417  18.927  0.00  0.00    +0.000 C 
BRANCH  21  22
ATOM     22  C   UNL     1       2.006   3.902  20.159  0.00  0.00    +0.000 C 
ATOM     23  O   UNL     1       0.851   4.241  20.433  0.00  0.00    +0.000 OA
ATOM     24  N   UNL     1       2.706   3.069  21.001  0.00  0.00    +0.000 N 
ATOM     25  H   UNL     1       3.469   2.472  20.671  0.00  0.00    +0.000 HD
BRANCH  24  26
ATOM     26  O   UNL     1       1.985   2.590  22.120  0.00  0.00    +0.000 OA
ATOM     27  H   UNL     1       2.063   1.615  22.032  0.00  0.00    +0.000 HD
ENDBRANCH  24  26
ENDBRANCH  21  22
BRANCH  21  28
ATOM     28  S   UNL     1       4.011   3.187  18.508  0.00  0.00    +0.000 S 
ATOM     29  C   UNL     1       4.677   3.665  16.930  0.00  0.00    +0.000 C 
ATOM     30  O   UNL     1       5.082   3.302  19.479  0.00  0.00    +0.000 OA
ATOM     31  O   UNL     1       3.330   1.913  18.333  0.00  0.00    +0.000 OA
ENDBRANCH  21  28
ENDBRANCH  19  21
ENDBRANCH  18  19
ENDBRANCH   1  18
TORSDOF 10
ENDMDL
MODEL 6
REMARK VINA RESULT:      -8.0      1.336      2.054
REMARK  Name = 
REMARK  12 active torsions:
REMARK  status: ('A' for Active; 'I' for Inactive)
REMARK    1  A    between atoms: C_1  and  C_2
REMARK    2  A    between atoms: C_2  and  C_3
REMARK    3  A    between atoms: C_2  and  C_21
REMARK    4  A    between atoms: C_2  and  S_25
REMARK    5  A    between atoms: C_3  and  C_4
REMARK    6  A    between atoms: C_4  and  C_5
REMARK    7  A    between atoms: C_8  and  C_9
REMARK    8  A    between atoms: C_12  and  C_13
REMARK    9  A    between atoms: C_13  and  C_15
REMARK   10  A    between atoms: C_15  and  O_16
REMARK   11  A    between atoms: N_23  and  O_24
REMARK   12  A    between atoms: S_25  and  C_26
REMARK                            x       y       z     vdW  Elec       q    Type
REMARK                         _______ _______ _______ _____ _____    ______ ____
ROOT
ATOM      1  C   UNL     1       2.418   7.954  18.489  0.00  0.00    +0.000 A 
ATOM      2  C   UNL     1       1.848   9.121  17.970  0.00  0.00    +0.000 A 
ATOM      3  C   UNL     1       1.023   9.921  18.762  0.00  0.00    +0.000 A 
ATOM      4  C   UNL     1       0.710   9.564  20.085  0.00  0.00    +0.000 A 
ATOM      5  C   UNL     1       1.285   8.382  20.585  0.00  0.00    +0.000 A 
ATOM      6  C   UNL     1       2.133   7.593  19.806  0.00  0.00    +0.000 A 
ENDROOT
BRANCH   4   7
ATOM      7  C   UNL     1      -0.213  10.376  20.909  0.00  0.00    +0.000 A 
ATOM      8  C   UNL     1      -1.043  11.351  20.327  0.00  0.00    +0.000 A 
ATOM      9  C   UNL     1      -1.944  12.098  21.092  0.00  0.00    +0.000 A 
ATOM     10  C   UNL     1      -2.042  11.873  22.466  0.00  0.00    +0.000 A 
ATOM     11  C   UNL     1      -1.234  10.909  23.068  0.00  0.00    +0.000 A 
ATOM     12  C   UNL     1      -0.319  10.183  22.299  0.00  0.00    +0.000 A 
BRANCH  10  13
ATOM     13  C   UNL     1      -2.984  12.645  23.313  0.00  0.00    +0.000 C 
ATOM     14  O   UNL     1      -4.150  12.274  23.445  0.00  0.00    +0.000 OA
BRANCH  13  15
ATOM     15  C   UNL     1      -2.460  13.886  24.020  0.00  0.00    +0.000 C 
BRANCH  15  16
ATOM     16  O   UNL     1      -3.330  14.276  25.072  0.00  0.00    +0.000 OA
ATOM     17  H   UNL     1      -3.115  15.210  25.267  0.00  0.00    +0.000 HD
ENDBRANCH  15  16
ENDBRANCH  13  15
ENDBRANCH  10  13
ENDBRANCH   4   7
BRANCH   1  18
ATOM     18  C   UNL     1       3.294   7.080  17.633  0.00  0.00    +0.000 C 
BRANCH  18  19
ATOM     19  C   UNL     1       4.645   6.797  18.300  0.00  0.00    +0.000 C 
BRANCH  19  21
ATOM     20  C   UNL     1       4.849   4.979  16.543  0.00  0.00    +0.000 C 
ATOM     21  C   UNL     1       5.227   5.401  17.973  0.00  0.00    +0.000 C 
BRANCH  21  22
ATOM     22  C   UNL     1       4.748   4.364  18.982  0.00  0.00    +0.000 C 
ATOM     23  O   UNL     1       3.803   4.569  19.748  0.00  0.00    +0.000 OA
ATOM     24  N   UNL     1       5.453   3.184  19.044  0.00  0.00    +0.000 N 
ATOM     25  H   UNL     1       5.959   2.805  18.240  0.00  0.00    +0.000 HD
BRANCH  24  26
ATOM     26  O   UNL     1       4.965   2.234  19.973  0.00  0.00    +0.000 OA
ATOM     27  H   UNL     1       5.150   1.377  19.529  0.00  0.00    +0.000 HD
ENDBRANCH  24  26
ENDBRANCH  21  22
BRANCH  21  28
ATOM     28  S   UNL     1       7.035   5.497  18.119  0.00  0.00    +0.000 S 
ATOM     29  C   UNL     1       7.496   7.146  17.639  0.00  0.00    +0.000 C 
ATOM     30  O   UNL     1       7.379   5.345  19.520  0.00  0.00    +0.000 OA
ATOM     31  O   UNL     1       7.592   4.579  17.137  0.00  0.00    +0.000 OA
ENDBRANCH  21  28
ENDBRANCH  19  21
ENDBRANCH  18  19
ENDBRANCH   1  18
TORSDOF 10
ENDMDL
MODEL 7
REMARK VINA RESULT:      -7.9      0.942      1.429
REMARK  Name = 
REMARK  12 active torsions:
REMARK  status: ('A' for Active; 'I' for Inactive)
REMARK    1  A    between atoms: C_1  and  C_2
REMARK    2  A    between atoms: C_2  and  C_3
REMARK    3  A    between atoms: C_2  and  C_21
REMARK    4  A    between atoms: C_2  and  S_25
REMARK    5  A    between atoms: C_3  and  C_4
REMARK    6  A    between atoms: C_4  and  C_5
REMARK    7  A    between atoms: C_8  and  C_9
REMARK    8  A    between atoms: C_12  and  C_13
REMARK    9  A    between atoms: C_13  and  C_15
REMARK   10  A    between atoms: C_15  and  O_16
REMARK   11  A    between atoms: N_23  and  O_24
REMARK   12  A    between atoms: S_25  and  C_26
REMARK                            x       y       z     vdW  Elec       q    Type
REMARK                         _______ _______ _______ _____ _____    ______ ____
ROOT
ATOM      1  C   UNL     1       2.527   7.655  18.172  0.00  0.00    +0.000 A 
ATOM      2  C   UNL     1       1.981   8.850  17.695  0.00  0.00    +0.000 A 
ATOM      3  C   UNL     1       1.286   9.704  18.554  0.00  0.00    +0.000 A 
ATOM      4  C   UNL     1       1.082   9.376  19.905  0.00  0.00    +0.000 A 
ATOM      5  C   UNL     1       1.631   8.165  20.362  0.00  0.00    +0.000 A 
ATOM      6  C   UNL     1       2.351   7.321  19.515  0.00  0.00    +0.000 A 
ENDROOT
BRANCH   4   7
ATOM      7  C   UNL     1       0.294  10.248  20.804  0.00  0.00    +0.000 A 
ATOM      8  C   UNL     1      -0.149  11.516  20.385  0.00  0.00    +0.000 A 
ATOM      9  C   UNL     1      -0.925  12.332  21.213  0.00  0.00    +0.000 A 
ATOM     10  C   UNL     1      -1.287  11.887  22.486  0.00  0.00    +0.000 A 
ATOM     11  C   UNL     1      -0.865  10.631  22.925  0.00  0.00    +0.000 A 
ATOM     12  C   UNL     1      -0.070   9.832  22.098  0.00  0.00    +0.000 A 
BRANCH  10  13
ATOM     13  C   UNL     1      -2.108  12.722  23.396  0.00  0.00    +0.000 C 
ATOM     14  O   UNL     1      -1.683  13.804  23.802  0.00  0.00    +0.000 OA
BRANCH  13  15
ATOM     15  C   UNL     1      -3.485  12.211  23.790  0.00  0.00    +0.000 C 
BRANCH  15  16
ATOM     16  O   UNL     1      -4.427  12.438  22.752  0.00  0.00    +0.000 OA
ATOM     17  H   UNL     1      -5.067  11.700  22.803  0.00  0.00    +0.000 HD
ENDBRANCH  15  16
ENDBRANCH  13  15
ENDBRANCH  10  13
ENDBRANCH   4   7
BRANCH   1  18
ATOM     18  C   UNL     1       3.263   6.724  17.247  0.00  0.00    +0.000 C 
BRANCH  18  19
ATOM     19  C   UNL     1       4.747   6.605  17.614  0.00  0.00    +0.000 C 
BRANCH  19  21
ATOM     20  C   UNL     1       4.522   4.370  16.435  0.00  0.00    +0.000 C 
ATOM     21  C   UNL     1       5.314   5.172  17.482  0.00  0.00    +0.000 C 
BRANCH  21  22
ATOM     22  C   UNL     1       5.300   4.457  18.828  0.00  0.00    +0.000 C 
ATOM     23  O   UNL     1       5.382   5.059  19.902  0.00  0.00    +0.000 OA
ATOM     24  N   UNL     1       5.241   3.083  18.802  0.00  0.00    +0.000 N 
ATOM     25  H   UNL     1       4.806   2.567  18.032  0.00  0.00    +0.000 HD
BRANCH  24  26
ATOM     26  O   UNL     1       5.203   2.453  20.069  0.00  0.00    +0.000 OA
ATOM     27  H   UNL     1       5.325   3.203  20.692  0.00  0.00    +0.000 HD
ENDBRANCH  24  26
ENDBRANCH  21  22
BRANCH  21  28
ATOM     28  S   UNL     1       7.049   5.300  16.961  0.00  0.00    +0.000 S 
ATOM     29  C   UNL     1       7.130   4.659  15.305  0.00  0.00    +0.000 C 
ATOM     30  O   UNL     1       7.394   6.708  16.895  0.00  0.00    +0.000 OA
ATOM     31  O   UNL     1       7.819   4.410  17.818  0.00  0.00    +0.000 OA
ENDBRANCH  21  28
ENDBRANCH  19  21
ENDBRANCH  18  19
ENDBRANCH   1  18
TORSDOF 10
ENDMDL
MODEL 8
REMARK VINA RESULT:      -7.9      0.863      1.312
REMARK  Name = 
REMARK  12 active torsions:
REMARK  status: ('A' for Active; 'I' for Inactive)
REMARK    1  A    between atoms: C_1  and  C_2
REMARK    2  A    between atoms: C_2  and  C_3
REMARK    3  A    between atoms: C_2  and  C_21
REMARK    4  A    between atoms: C_2  and  S_25
REMARK    5  A    between atoms: C_3  and  C_4
REMARK    6  A    between atoms: C_4  and  C_5
REMARK    7  A    between atoms: C_8  and  C_9
REMARK    8  A    between atoms: C_12  and  C_13
REMARK    9  A    between atoms: C_13  and  C_15
REMARK   10  A    between atoms: C_15  and  O_16
REMARK   11  A    between atoms: N_23  and  O_24
REMARK   12  A    between atoms: S_25  and  C_26
REMARK                            x       y       z     vdW  Elec       q    Type
REMARK                         _______ _______ _______ _____ _____    ______ ____
ROOT
ATOM      1  C   UNL     1       2.591   7.097  18.469  0.00  0.00    +0.000 A 
ATOM      2  C   UNL     1       2.145   8.292  17.897  0.00  0.00    +0.000 A 
ATOM      3  C   UNL     1       1.457   9.233  18.665  0.00  0.00    +0.000 A 
ATOM      4  C   UNL     1       1.160   8.997  20.018  0.00  0.00    +0.000 A 
ATOM      5  C   UNL     1       1.609   7.785  20.572  0.00  0.00    +0.000 A 
ATOM      6  C   UNL     1       2.321   6.853  19.816  0.00  0.00    +0.000 A 
ENDROOT
BRANCH   4   7
ATOM      7  C   UNL     1       0.379   9.964  20.820  0.00  0.00    +0.000 A 
ATOM      8  C   UNL     1      -0.194  11.105  20.231  0.00  0.00    +0.000 A 
ATOM      9  C   UNL     1      -0.965  12.005  20.973  0.00  0.00    +0.000 A 
ATOM     10  C   UNL     1      -1.189  11.774  22.331  0.00  0.00    +0.000 A 
ATOM     11  C   UNL     1      -0.636  10.647  22.940  0.00  0.00    +0.000 A 
ATOM     12  C   UNL     1       0.153   9.765  22.195  0.00  0.00    +0.000 A 
BRANCH  10  13
ATOM     13  C   UNL     1      -1.999  12.705  23.153  0.00  0.00    +0.000 C 
ATOM     14  O   UNL     1      -1.470  13.667  23.708  0.00  0.00    +0.000 OA
BRANCH  13  15
ATOM     15  C   UNL     1      -3.493  12.443  23.270  0.00  0.00    +0.000 C 
BRANCH  15  16
ATOM     16  O   UNL     1      -4.228  13.305  22.415  0.00  0.00    +0.000 OA
ATOM     17  H   UNL     1      -3.910  14.210  22.607  0.00  0.00    +0.000 HD
ENDBRANCH  15  16
ENDBRANCH  13  15
ENDBRANCH  10  13
ENDBRANCH   4   7
BRANCH   1  18
ATOM     18  C   UNL     1       3.317   6.073  17.641  0.00  0.00    +0.000 C 
BRANCH  18  19
ATOM     19  C   UNL     1       4.771   6.479  17.372  0.00  0.00    +0.000 C 
BRANCH  19  21
ATOM     20  C   UNL     1       5.102   4.118  18.236  0.00  0.00    +0.000 C 
ATOM     21  C   UNL     1       5.799   5.359  17.652  0.00  0.00    +0.000 C 
BRANCH  21  22
ATOM     22  C   UNL     1       6.894   5.850  18.593  0.00  0.00    +0.000 C 
ATOM     23  O   UNL     1       7.565   6.860  18.362  0.00  0.00    +0.000 OA
ATOM     24  N   UNL     1       7.148   5.083  19.707  0.00  0.00    +0.000 N 
ATOM     25  H   UNL     1       6.432   4.497  20.144  0.00  0.00    +0.000 HD
BRANCH  24  26
ATOM     26  O   UNL     1       8.152   5.582  20.570  0.00  0.00    +0.000 OA
ATOM     27  H   UNL     1       8.010   6.553  20.536  0.00  0.00    +0.000 HD
ENDBRANCH  24  26
ENDBRANCH  21  22
BRANCH  21  28
ATOM     28  S   UNL     1       6.599   4.922  16.081  0.00  0.00    +0.000 S 
ATOM     29  C   UNL     1       5.717   3.519  15.436  0.00  0.00    +0.000 C 
ATOM     30  O   UNL     1       6.394   6.021  15.155  0.00  0.00    +0.000 OA
ATOM     31  O   UNL     1       7.951   4.487  16.396  0.00  0.00    +0.000 OA
ENDBRANCH  21  28
ENDBRANCH  19  21
ENDBRANCH  18  19
ENDBRANCH   1  18
TORSDOF 10
ENDMDL
MODEL 9
REMARK VINA RESULT:      -7.9      1.147      2.164
REMARK  Name = 
REMARK  12 active torsions:
REMARK  status: ('A' for Active; 'I' for Inactive)
REMARK    1  A    between atoms: C_1  and  C_2
REMARK    2  A    between atoms: C_2  and  C_3
REMARK    3  A    between atoms: C_2  and  C_21
REMARK    4  A    between atoms: C_2  and  S_25
REMARK    5  A    between atoms: C_3  and  C_4
REMARK    6  A    between atoms: C_4  and  C_5
REMARK    7  A    between atoms: C_8  and  C_9
REMARK    8  A    between atoms: C_12  and  C_13
REMARK    9  A    between atoms: C_13  and  C_15
REMARK   10  A    between atoms: C_15  and  O_16
REMARK   11  A    between atoms: N_23  and  O_24
REMARK   12  A    between atoms: S_25  and  C_26
REMARK                            x       y       z     vdW  Elec       q    Type
REMARK                         _______ _______ _______ _____ _____    ______ ____
ROOT
ATOM      1  C   UNL     1       2.445   7.122  18.592  0.00  0.00    +0.000 A 
ATOM      2  C   UNL     1       2.177   6.921  19.949  0.00  0.00    +0.000 A 
ATOM      3  C   UNL     1       1.506   7.893  20.692  0.00  0.00    +0.000 A 
ATOM      4  C   UNL     1       1.112   9.112  20.114  0.00  0.00    +0.000 A 
ATOM      5  C   UNL     1       1.399   9.299  18.750  0.00  0.00    +0.000 A 
ATOM      6  C   UNL     1       2.045   8.318  17.996  0.00  0.00    +0.000 A 
ENDROOT
BRANCH   4   7
ATOM      7  C   UNL     1       0.453  10.171  20.911  0.00  0.00    +0.000 A 
ATOM      8  C   UNL     1       0.275  11.467  20.395  0.00  0.00    +0.000 A 
ATOM      9  C   UNL     1      -0.379  12.464  21.125  0.00  0.00    +0.000 A 
ATOM     10  C   UNL     1      -0.882  12.177  22.396  0.00  0.00    +0.000 A 
ATOM     11  C   UNL     1      -0.723  10.898  22.930  0.00  0.00    +0.000 A 
ATOM     12  C   UNL     1      -0.047   9.915  22.201  0.00  0.00    +0.000 A 
BRANCH  10  13
ATOM     13  C   UNL     1      -1.580  13.207  23.204  0.00  0.00    +0.000 C 
ATOM     14  O   UNL     1      -0.948  13.927  23.975  0.00  0.00    +0.000 OA
BRANCH  13  15
ATOM     15  C   UNL     1      -3.085  13.352  23.034  0.00  0.00    +0.000 C 
BRANCH  15  16
ATOM     16  O   UNL     1      -3.758  12.168  23.437  0.00  0.00    +0.000 OA
ATOM     17  H   UNL     1      -4.403  11.971  22.728  0.00  0.00    +0.000 HD
ENDBRANCH  15  16
ENDBRANCH  13  15
ENDBRANCH  10  13
ENDBRANCH   4   7
BRANCH   1  18
ATOM     18  C   UNL     1       3.184   6.084  17.792  0.00  0.00    +0.000 C 
BRANCH  18  19
ATOM     19  C   UNL     1       4.679   6.403  17.682  0.00  0.00    +0.000 C 
BRANCH  19  21
ATOM     20  C   UNL     1       5.292   5.264  15.500  0.00  0.00    +0.000 C 
ATOM     21  C   UNL     1       5.515   5.281  17.022  0.00  0.00    +0.000 C 
BRANCH  21  22
ATOM     22  C   UNL     1       5.175   3.924  17.628  0.00  0.00    +0.000 C 
ATOM     23  O   UNL     1       4.560   3.053  17.004  0.00  0.00    +0.000 OA
ATOM     24  N   UNL     1       5.540   3.717  18.937  0.00  0.00    +0.000 N 
ATOM     25  H   UNL     1       6.336   4.196  19.367  0.00  0.00    +0.000 HD
BRANCH  24  26
ATOM     26  O   UNL     1       5.232   2.438  19.459  0.00  0.00    +0.000 OA
ATOM     27  H   UNL     1       6.007   2.239  20.029  0.00  0.00    +0.000 HD
ENDBRANCH  24  26
ENDBRANCH  21  22
BRANCH  21  28
ATOM     28  S   UNL     1       7.267   5.602  17.375  0.00  0.00    +0.000 S 
ATOM     29  C   UNL     1       7.369   6.017  19.101  0.00  0.00    +0.000 C 
ATOM     30  O   UNL     1       7.996   4.361  17.187  0.00  0.00    +0.000 OA
ATOM     31  O   UNL     1       7.647   6.783  16.613  0.00  0.00    +0.000 OA
ENDBRANCH  21  28
ENDBRANCH  19  21
ENDBRANCH  18  19
ENDBRANCH   1  18
TORSDOF 10
ENDMDL
