MODEL 1
REMARK VINA RESULT:      -6.5      0.000      0.000
REMARK  Name = 
REMARK  8 active torsions:
REMARK  status: ('A' for Active; 'I' for Inactive)
REMARK    1  A    between atoms: N_1  and  C_2
REMARK    2  A    between atoms: N_10  and  C_11
REMARK    3  A    between atoms: C_11  and  C_12
REMARK    4  A    between atoms: C_11  and  O_14
REMARK    5  A    between atoms: O_14  and  C_15
REMARK    6  A    between atoms: C_15  and  C_16
REMARK    7  A    between atoms: C_15  and  C_18
REMARK    8  A    between atoms: C_18  and  O_19
REMARK                            x       y       z     vdW  Elec       q    Type
REMARK                         _______ _______ _______ _____ _____    ______ ____
ROOT
ATOM      1  C   UNL     1       6.932   5.492  16.062  0.00  0.00    +0.000 A 
ATOM      2  N   UNL     1       7.653   6.292  16.880  0.00  0.00    +0.000 NA
ATOM      3  C   UNL     1       7.403   6.243  18.208  0.00  0.00    +0.000 A 
ATOM      4  N   UNL     1       6.491   5.495  18.866  0.00  0.00    +0.000 NA
ATOM      5  C   UNL     1       5.782   4.748  18.001  0.00  0.00    +0.000 A 
ATOM      6  C   UNL     1       5.934   4.683  16.626  0.00  0.00    +0.000 A 
ATOM      7  N   UNL     1       5.035   3.793  16.074  0.00  0.00    +0.000 NA
ATOM      8  C   UNL     1       4.354   3.324  17.099  0.00  0.00    +0.000 A 
ATOM      9  N   UNL     1       4.749   3.894  18.281  0.00  0.00    +0.000 N 
ENDROOT
BRANCH   1  10
ATOM     10  N   UNL     1       7.196   5.527  14.698  0.00  0.00    +0.000 N 
ATOM     11  H   UNL     1       6.450   5.965  14.173  0.00  0.00    +0.000 HD
ATOM     12  H   UNL     1       7.572   4.655  14.342  0.00  0.00    +0.000 HD
ENDBRANCH   1  10
BRANCH   9  13
ATOM     13  C   UNL     1       4.217   3.597  19.607  0.00  0.00    +0.000 C 
BRANCH  13  14
ATOM     14  C   UNL     1       4.633   2.170  19.966  0.00  0.00    +0.000 C 
ATOM     15  O   UNL     1       5.197   1.852  21.010  0.00  0.00    +0.000 OA
ENDBRANCH  13  14
BRANCH  13  16
ATOM     16  O   UNL     1       2.814   3.871  19.572  0.00  0.00    +0.000 OA
BRANCH  16  17
ATOM     17  C   UNL     1       1.968   2.773  19.918  0.00  0.00    +0.000 C 
BRANCH  17  18
ATOM     18  C   UNL     1       1.196   2.875  21.231  0.00  0.00    +0.000 C 
ATOM     19  O   UNL     1       1.661   2.587  22.329  0.00  0.00    +0.000 OA
ENDBRANCH  17  18
BRANCH  17  20
ATOM     20  C   UNL     1       0.924   2.628  18.802  0.00  0.00    +0.000 C 
BRANCH  20  21
ATOM     21  O   UNL     1       1.427   1.816  17.744  0.00  0.00    +0.000 OA
ATOM     22  H   UNL     1       1.672   0.960  18.144  0.00  0.00    +0.000 HD
ENDBRANCH  20  21
ENDBRANCH  17  20
ENDBRANCH  16  17
ENDBRANCH  13  16
ENDBRANCH   9  13
TORSDOF 8
ENDMDL
MODEL 2
REMARK VINA RESULT:      -6.5      1.043      1.546
REMARK  Name = 
REMARK  8 active torsions:
REMARK  status: ('A' for Active; 'I' for Inactive)
REMARK    1  A    between atoms: N_1  and  C_2
REMARK    2  A    between atoms: N_10  and  C_11
REMARK    3  A    between atoms: C_11  and  C_12
REMARK    4  A    between atoms: C_11  and  O_14
REMARK    5  A    between atoms: O_14  and  C_15
REMARK    6  A    between atoms: C_15  and  C_16
REMARK    7  A    between atoms: C_15  and  C_18
REMARK    8  A    between atoms: C_18  and  O_19
REMARK                            x       y       z     vdW  Elec       q    Type
REMARK                         _______ _______ _______ _____ _____    ______ ____
ROOT
ATOM      1  C   UNL     1       7.022   5.413  16.513  0.00  0.00    +0.000 A 
ATOM      2  N   UNL     1       7.730   5.943  17.535  0.00  0.00    +0.000 NA
ATOM      3  C   UNL     1       7.349   5.651  18.799  0.00  0.00    +0.000 A 
ATOM      4  N   UNL     1       6.313   4.889  19.211  0.00  0.00    +0.000 NA
ATOM      5  C   UNL     1       5.626   4.418  18.156  0.00  0.00    +0.000 A 
ATOM      6  C   UNL     1       5.903   4.620  16.815  0.00  0.00    +0.000 A 
ATOM      7  N   UNL     1       4.985   3.966  16.019  0.00  0.00    +0.000 NA
ATOM      8  C   UNL     1       4.167   3.375  16.867  0.00  0.00    +0.000 A 
ATOM      9  N   UNL     1       4.497   3.643  18.169  0.00  0.00    +0.000 N 
ENDROOT
BRANCH   1  10
ATOM     10  N   UNL     1       7.417   5.697  15.211  0.00  0.00    +0.000 N 
ATOM     11  H   UNL     1       8.423   5.727  15.113  0.00  0.00    +0.000 HD
ATOM     12  H   UNL     1       6.880   6.443  14.785  0.00  0.00    +0.000 HD
ENDBRANCH   1  10
BRANCH   9  13
ATOM     13  C   UNL     1       3.814   3.141  19.356  0.00  0.00    +0.000 C 
BRANCH  13  14
ATOM     14  C   UNL     1       4.507   1.845  19.778  0.00  0.00    +0.000 C 
ATOM     15  O   UNL     1       5.234   1.734  20.762  0.00  0.00    +0.000 OA
ENDBRANCH  13  14
BRANCH  13  16
ATOM     16  O   UNL     1       2.421   3.056  19.042  0.00  0.00    +0.000 OA
BRANCH  16  17
ATOM     17  C   UNL     1       1.564   3.873  19.840  0.00  0.00    +0.000 C 
BRANCH  17  18
ATOM     18  C   UNL     1       1.299   3.415  21.271  0.00  0.00    +0.000 C 
ATOM     19  O   UNL     1       2.174   3.246  22.115  0.00  0.00    +0.000 OA
ENDBRANCH  17  18
BRANCH  17  20
ATOM     20  C   UNL     1       2.209   5.262  19.934  0.00  0.00    +0.000 C 
BRANCH  20  21
ATOM     21  O   UNL     1       1.920   5.870  21.189  0.00  0.00    +0.000 OA
ATOM     22  H   UNL     1       2.679   6.446  21.401  0.00  0.00    +0.000 HD
ENDBRANCH  20  21
ENDBRANCH  17  20
ENDBRANCH  16  17
ENDBRANCH  13  16
ENDBRANCH   9  13
TORSDOF 8
ENDMDL
MODEL 3
REMARK VINA RESULT:      -6.3      3.201      5.897
REMARK  Name = 
REMARK  8 active torsions:
REMARK  status: ('A' for Active; 'I' for Inactive)
REMARK    1  A    between atoms: N_1  and  C_2
REMARK    2  A    between atoms: N_10  and  C_11
REMARK    3  A    between atoms: C_11  and  C_12
REMARK    4  A    between atoms: C_11  and  O_14
REMARK    5  A    between atoms: O_14  and  C_15
REMARK    6  A    between atoms: C_15  and  C_16
REMARK    7  A    between atoms: C_15  and  C_18
REMARK    8  A    between atoms: C_18  and  O_19
REMARK                            x       y       z     vdW  Elec       q    Type
REMARK                         _______ _______ _______ _____ _____    ______ ____
ROOT
ATOM      1  C   UNL     1       1.609   4.110  19.975  0.00  0.00    +0.000 A 
ATOM      2  N   UNL     1       1.621   5.385  20.427  0.00  0.00    +0.000 NA
ATOM      3  C   UNL     1       2.541   6.237  19.919  0.00  0.00    +0.000 A 
ATOM      4  N   UNL     1       3.500   5.990  19.001  0.00  0.00    +0.000 NA
ATOM      5  C   UNL     1       3.463   4.703  18.615  0.00  0.00    +0.000 A 
ATOM      6  C   UNL     1       2.576   3.725  19.034  0.00  0.00    +0.000 A 
ATOM      7  N   UNL     1       2.837   2.524  18.406  0.00  0.00    +0.000 NA
ATOM      8  C   UNL     1       3.863   2.773  17.617  0.00  0.00    +0.000 A 
ATOM      9  N   UNL     1       4.294   4.068  17.731  0.00  0.00    +0.000 N 
ENDROOT
BRANCH   1  10
ATOM     10  N   UNL     1       0.657   3.234  20.481  0.00  0.00    +0.000 N 
ATOM     11  H   UNL     1       0.959   2.791  21.338  0.00  0.00    +0.000 HD
ATOM     12  H   UNL     1       0.238   2.646  19.770  0.00  0.00    +0.000 HD
ENDBRANCH   1  10
BRANCH   9  13
ATOM     13  C   UNL     1       5.395   4.683  16.997  0.00  0.00    +0.000 C 
BRANCH  13  14
ATOM     14  C   UNL     1       5.267   4.264  15.532  0.00  0.00    +0.000 C 
ATOM     15  O   UNL     1       5.844   4.817  14.598  0.00  0.00    +0.000 OA
ENDBRANCH  13  14
BRANCH  13  16
ATOM     16  O   UNL     1       6.607   4.323  17.667  0.00  0.00    +0.000 OA
BRANCH  16  17
ATOM     17  C   UNL     1       7.380   5.419  18.160  0.00  0.00    +0.000 C 
BRANCH  17  18
ATOM     18  C   UNL     1       7.147   6.782  17.515  0.00  0.00    +0.000 C 
ATOM     19  O   UNL     1       7.832   7.243  16.608  0.00  0.00    +0.000 OA
ENDBRANCH  17  18
BRANCH  17  20
ATOM     20  C   UNL     1       7.056   5.575  19.652  0.00  0.00    +0.000 C 
BRANCH  20  21
ATOM     21  O   UNL     1       8.204   5.298  20.449  0.00  0.00    +0.000 OA
ATOM     22  H   UNL     1       8.285   4.326  20.493  0.00  0.00    +0.000 HD
ENDBRANCH  20  21
ENDBRANCH  17  20
ENDBRANCH  16  17
ENDBRANCH  13  16
ENDBRANCH   9  13
TORSDOF 8
ENDMDL
MODEL 4
REMARK VINA RESULT:      -6.2      1.664      2.723
REMARK  Name = 
REMARK  8 active torsions:
REMARK  status: ('A' for Active; 'I' for Inactive)
REMARK    1  A    between atoms: N_1  and  C_2
REMARK    2  A    between atoms: N_10  and  C_11
REMARK    3  A    between atoms: C_11  and  C_12
REMARK    4  A    between atoms: C_11  and  O_14
REMARK    5  A    between atoms: O_14  and  C_15
REMARK    6  A    between atoms: C_15  and  C_16
REMARK    7  A    between atoms: C_15  and  C_18
REMARK    8  A    between atoms: C_18  and  O_19
REMARK                            x       y       z     vdW  Elec       q    Type
REMARK                         _______ _______ _______ _____ _____    ______ ____
ROOT
ATOM      1  C   UNL     1       7.119   6.777  17.441  0.00  0.00    +0.000 A 
ATOM      2  N   UNL     1       7.957   5.789  17.827  0.00  0.00    +0.000 NA
ATOM      3  C   UNL     1       7.422   4.646  18.312  0.00  0.00    +0.000 A 
ATOM      4  N   UNL     1       6.120   4.335  18.490  0.00  0.00    +0.000 NA
ATOM      5  C   UNL     1       5.336   5.364  18.124  0.00  0.00    +0.000 A 
ATOM      6  C   UNL     1       5.738   6.582  17.601  0.00  0.00    +0.000 A 
ATOM      7  N   UNL     1       4.648   7.384  17.329  0.00  0.00    +0.000 NA
ATOM      8  C   UNL     1       3.603   6.660  17.678  0.00  0.00    +0.000 A 
ATOM      9  N   UNL     1       3.971   5.444  18.191  0.00  0.00    +0.000 N 
ENDROOT
BRANCH   1  10
ATOM     10  N   UNL     1       7.662   7.948  16.928  0.00  0.00    +0.000 N 
ATOM     11  H   UNL     1       7.685   8.693  17.612  0.00  0.00    +0.000 HD
ATOM     12  H   UNL     1       7.322   8.173  15.999  0.00  0.00    +0.000 HD
ENDBRANCH   1  10
BRANCH   9  13
ATOM     13  C   UNL     1       3.073   4.395  18.661  0.00  0.00    +0.000 C 
BRANCH  13  14
ATOM     14  C   UNL     1       1.711   4.618  18.002  0.00  0.00    +0.000 C 
ATOM     15  O   UNL     1       1.120   3.780  17.326  0.00  0.00    +0.000 OA
ENDBRANCH  13  14
BRANCH  13  16
ATOM     16  O   UNL     1       3.109   4.413  20.091  0.00  0.00    +0.000 OA
BRANCH  16  17
ATOM     17  C   UNL     1       3.097   3.130  20.719  0.00  0.00    +0.000 C 
BRANCH  17  18
ATOM     18  C   UNL     1       1.738   2.565  21.122  0.00  0.00    +0.000 C 
ATOM     19  O   UNL     1       1.412   2.309  22.277  0.00  0.00    +0.000 OA
ENDBRANCH  17  18
BRANCH  17  20
ATOM     20  C   UNL     1       3.716   2.130  19.733  0.00  0.00    +0.000 C 
BRANCH  20  21
ATOM     21  O   UNL     1       5.101   1.942  20.008  0.00  0.00    +0.000 OA
ATOM     22  H   UNL     1       5.154   1.513  20.883  0.00  0.00    +0.000 HD
ENDBRANCH  20  21
ENDBRANCH  17  20
ENDBRANCH  16  17
ENDBRANCH  13  16
ENDBRANCH   9  13
TORSDOF 8
ENDMDL
MODEL 5
REMARK VINA RESULT:      -6.2      1.481      1.940
REMARK  Name = 
REMARK  8 active torsions:
REMARK  status: ('A' for Active; 'I' for Inactive)
REMARK    1  A    between atoms: N_1  and  C_2
REMARK    2  A    between atoms: N_10  and  C_11
REMARK    3  A    between atoms: C_11  and  C_12
REMARK    4  A    between atoms: C_11  and  O_14
REMARK    5  A    between atoms: O_14  and  C_15
REMARK    6  A    between atoms: C_15  and  C_16
REMARK    7  A    between atoms: C_15  and  C_18
REMARK    8  A    between atoms: C_18  and  O_19
REMARK                            x       y       z     vdW  Elec       q    Type
REMARK                         _______ _______ _______ _____ _____    ______ ____
ROOT
ATOM      1  C   UNL     1       6.976   5.528  16.971  0.00  0.00    +0.000 A 
ATOM      2  N   UNL     1       7.532   5.925  18.138  0.00  0.00    +0.000 NA
ATOM      3  C   UNL     1       6.933   5.555  19.292  0.00  0.00    +0.000 A 
ATOM      4  N   UNL     1       5.806   4.830  19.461  0.00  0.00    +0.000 NA
ATOM      5  C   UNL     1       5.279   4.494  18.270  0.00  0.00    +0.000 A 
ATOM      6  C   UNL     1       5.785   4.787  17.015  0.00  0.00    +0.000 A 
ATOM      7  N   UNL     1       4.979   4.262  16.025  0.00  0.00    +0.000 NA
ATOM      8  C   UNL     1       4.003   3.657  16.673  0.00  0.00    +0.000 A 
ATOM      9  N   UNL     1       4.126   3.795  18.030  0.00  0.00    +0.000 N 
ENDROOT
BRANCH   1  10
ATOM     10  N   UNL     1       7.596   5.892  15.781  0.00  0.00    +0.000 N 
ATOM     11  H   UNL     1       7.236   5.379  14.987  0.00  0.00    +0.000 HD
ATOM     12  H   UNL     1       8.602   5.982  15.867  0.00  0.00    +0.000 HD
ENDBRANCH   1  10
BRANCH   9  13
ATOM     13  C   UNL     1       3.232   3.242  19.042  0.00  0.00    +0.000 C 
BRANCH  13  14
ATOM     14  C   UNL     1       2.972   1.779  18.683  0.00  0.00    +0.000 C 
ATOM     15  O   UNL     1       3.848   0.924  18.573  0.00  0.00    +0.000 OA
ENDBRANCH  13  14
BRANCH  13  16
ATOM     16  O   UNL     1       2.091   4.101  19.115  0.00  0.00    +0.000 OA
BRANCH  16  17
ATOM     17  C   UNL     1       1.575   4.320  20.429  0.00  0.00    +0.000 C 
BRANCH  17  18
ATOM     18  C   UNL     1       2.216   3.535  21.569  0.00  0.00    +0.000 C 
ATOM     19  O   UNL     1       1.687   2.583  22.135  0.00  0.00    +0.000 OA
ENDBRANCH  17  18
BRANCH  17  20
ATOM     20  C   UNL     1       1.765   5.808  20.755  0.00  0.00    +0.000 C 
BRANCH  20  21
ATOM     21  O   UNL     1       2.939   6.315  20.127  0.00  0.00    +0.000 OA
ATOM     22  H   UNL     1       2.865   7.289  20.143  0.00  0.00    +0.000 HD
ENDBRANCH  20  21
ENDBRANCH  17  20
ENDBRANCH  16  17
ENDBRANCH  13  16
ENDBRANCH   9  13
TORSDOF 8
ENDMDL
MODEL 6
REMARK VINA RESULT:      -6.1      3.298      6.055
REMARK  Name = 
REMARK  8 active torsions:
REMARK  status: ('A' for Active; 'I' for Inactive)
REMARK    1  A    between atoms: N_1  and  C_2
REMARK    2  A    between atoms: N_10  and  C_11
REMARK    3  A    between atoms: C_11  and  C_12
REMARK    4  A    between atoms: C_11  and  O_14
REMARK    5  A    between atoms: O_14  and  C_15
REMARK    6  A    between atoms: C_15  and  C_16
REMARK    7  A    between atoms: C_15  and  C_18
REMARK    8  A    between atoms: C_18  and  O_19
REMARK                            x       y       z     vdW  Elec       q    Type
REMARK                         _______ _______ _______ _____ _____    ______ ____
ROOT
ATOM      1  C   UNL     1       1.589   3.076  19.045  0.00  0.00    +0.000 A 
ATOM      2  N   UNL     1       1.194   3.916  20.028  0.00  0.00    +0.000 NA
ATOM      3  C   UNL     1       1.855   5.086  20.178  0.00  0.00    +0.000 A 
ATOM      4  N   UNL     1       2.908   5.554  19.472  0.00  0.00    +0.000 NA
ATOM      5  C   UNL     1       3.279   4.665  18.535  0.00  0.00    +0.000 A 
ATOM      6  C   UNL     1       2.692   3.442  18.257  0.00  0.00    +0.000 A 
ATOM      7  N   UNL     1       3.339   2.812  17.213  0.00  0.00    +0.000 NA
ATOM      8  C   UNL     1       4.299   3.643  16.863  0.00  0.00    +0.000 A 
ATOM      9  N   UNL     1       4.321   4.763  17.652  0.00  0.00    +0.000 N 
ENDROOT
BRANCH   1  10
ATOM     10  N   UNL     1       0.903   1.880  18.877  0.00  0.00    +0.000 N 
ATOM     11  H   UNL     1       1.337   1.282  18.186  0.00  0.00    +0.000 HD
ATOM     12  H   UNL     1      -0.103   1.999  18.830  0.00  0.00    +0.000 HD
ENDBRANCH   1  10
BRANCH   9  13
ATOM     13  C   UNL     1       5.241   5.889  17.533  0.00  0.00    +0.000 C 
BRANCH  13  14
ATOM     14  C   UNL     1       4.698   6.822  16.451  0.00  0.00    +0.000 C 
ATOM     15  O   UNL     1       5.099   6.847  15.289  0.00  0.00    +0.000 OA
ENDBRANCH  13  14
BRANCH  13  16
ATOM     16  O   UNL     1       6.549   5.348  17.322  0.00  0.00    +0.000 OA
BRANCH  16  17
ATOM     17  C   UNL     1       7.553   5.807  18.228  0.00  0.00    +0.000 C 
BRANCH  17  18
ATOM     18  C   UNL     1       7.919   7.287  18.170  0.00  0.00    +0.000 C 
ATOM     19  O   UNL     1       7.932   7.955  17.140  0.00  0.00    +0.000 OA
ENDBRANCH  17  18
BRANCH  17  20
ATOM     20  C   UNL     1       7.049   5.532  19.651  0.00  0.00    +0.000 C 
BRANCH  20  21
ATOM     21  O   UNL     1       8.140   5.421  20.560  0.00  0.00    +0.000 OA
ATOM     22  H   UNL     1       7.979   6.074  21.268  0.00  0.00    +0.000 HD
ENDBRANCH  20  21
ENDBRANCH  17  20
ENDBRANCH  16  17
ENDBRANCH  13  16
ENDBRANCH   9  13
TORSDOF 8
ENDMDL
MODEL 7
REMARK VINA RESULT:      -6.1      1.648      2.510
REMARK  Name = 
REMARK  8 active torsions:
REMARK  status: ('A' for Active; 'I' for Inactive)
REMARK    1  A    between atoms: N_1  and  C_2
REMARK    2  A    between atoms: N_10  and  C_11
REMARK    3  A    between atoms: C_11  and  C_12
REMARK    4  A    between atoms: C_11  and  O_14
REMARK    5  A    between atoms: O_14  and  C_15
REMARK    6  A    between atoms: C_15  and  C_16
REMARK    7  A    between atoms: C_15  and  C_18
REMARK    8  A    between atoms: C_18  and  O_19
REMARK                            x       y       z     vdW  Elec       q    Type
REMARK                         _______ _______ _______ _____ _____    ______ ____
ROOT
ATOM      1  C   UNL     1       7.357   7.046  17.822  0.00  0.00    +0.000 A 
ATOM      2  N   UNL     1       8.129   6.636  18.854  0.00  0.00    +0.000 NA
ATOM      3  C   UNL     1       7.742   5.544  19.551  0.00  0.00    +0.000 A 
ATOM      4  N   UNL     1       6.644   4.779  19.373  0.00  0.00    +0.000 NA
ATOM      5  C   UNL     1       5.898   5.252  18.360  0.00  0.00    +0.000 A 
ATOM      6  C   UNL     1       6.173   6.344  17.553  0.00  0.00    +0.000 A 
ATOM      7  N   UNL     1       5.183   6.517  16.607  0.00  0.00    +0.000 NA
ATOM      8  C   UNL     1       4.325   5.543  16.836  0.00  0.00    +0.000 A 
ATOM      9  N   UNL     1       4.700   4.771  17.904  0.00  0.00    +0.000 N 
ENDROOT
BRANCH   1  10
ATOM     10  N   UNL     1       7.758   8.159  17.092  0.00  0.00    +0.000 N 
ATOM     11  H   UNL     1       8.380   7.916  16.332  0.00  0.00    +0.000 HD
ATOM     12  H   UNL     1       8.014   8.948  17.675  0.00  0.00    +0.000 HD
ENDBRANCH   1  10
BRANCH   9  13
ATOM     13  C   UNL     1       3.990   3.606  18.422  0.00  0.00    +0.000 C 
BRANCH  13  14
ATOM     14  C   UNL     1       2.784   3.356  17.517  0.00  0.00    +0.000 C 
ATOM     15  O   UNL     1       2.357   2.242  17.220  0.00  0.00    +0.000 OA
ENDBRANCH  13  14
BRANCH  13  16
ATOM     16  O   UNL     1       3.720   3.854  19.805  0.00  0.00    +0.000 OA
BRANCH  16  17
ATOM     17  C   UNL     1       2.352   3.714  20.194  0.00  0.00    +0.000 C 
BRANCH  17  18
ATOM     18  C   UNL     1       2.011   2.564  21.137  0.00  0.00    +0.000 C 
ATOM     19  O   UNL     1       1.541   2.708  22.261  0.00  0.00    +0.000 OA
ENDBRANCH  17  18
BRANCH  17  20
ATOM     20  C   UNL     1       1.945   5.008  20.912  0.00  0.00    +0.000 C 
BRANCH  20  21
ATOM     21  O   UNL     1       2.671   6.121  20.397  0.00  0.00    +0.000 OA
ATOM     22  H   UNL     1       2.875   5.913  19.464  0.00  0.00    +0.000 HD
ENDBRANCH  20  21
ENDBRANCH  17  20
ENDBRANCH  16  17
ENDBRANCH  13  16
ENDBRANCH   9  13
TORSDOF 8
ENDMDL
MODEL 8
REMARK VINA RESULT:      -6.0      2.073      3.036
REMARK  Name = 
REMARK  8 active torsions:
REMARK  status: ('A' for Active; 'I' for Inactive)
REMARK    1  A    between atoms: N_1  and  C_2
REMARK    2  A    between atoms: N_10  and  C_11
REMARK    3  A    between atoms: C_11  and  C_12
REMARK    4  A    between atoms: C_11  and  O_14
REMARK    5  A    between atoms: O_14  and  C_15
REMARK    6  A    between atoms: C_15  and  C_16
REMARK    7  A    between atoms: C_15  and  C_18
REMARK    8  A    between atoms: C_18  and  O_19
REMARK                            x       y       z     vdW  Elec       q    Type
REMARK                         _______ _______ _______ _____ _____    ______ ____
ROOT
ATOM      1  C   UNL     1       7.298   4.620  17.259  0.00  0.00    +0.000 A 
ATOM      2  N   UNL     1       7.214   4.783  15.919  0.00  0.00    +0.000 NA
ATOM      3  C   UNL     1       6.052   5.239  15.400  0.00  0.00    +0.000 A 
ATOM      4  N   UNL     1       4.909   5.555  16.046  0.00  0.00    +0.000 NA
ATOM      5  C   UNL     1       5.039   5.342  17.366  0.00  0.00    +0.000 A 
ATOM      6  C   UNL     1       6.164   4.894  18.038  0.00  0.00    +0.000 A 
ATOM      7  N   UNL     1       5.925   4.813  19.396  0.00  0.00    +0.000 NA
ATOM      8  C   UNL     1       4.677   5.209  19.542  0.00  0.00    +0.000 A 
ATOM      9  N   UNL     1       4.092   5.511  18.341  0.00  0.00    +0.000 N 
ENDROOT
BRANCH   1  10
ATOM     10  N   UNL     1       8.495   4.167  17.800  0.00  0.00    +0.000 N 
ATOM     11  H   UNL     1       8.375   3.776  18.725  0.00  0.00    +0.000 HD
ATOM     12  H   UNL     1       9.267   4.809  17.658  0.00  0.00    +0.000 HD
ENDBRANCH   1  10
BRANCH   9  13
ATOM     13  C   UNL     1       2.729   5.991  18.138  0.00  0.00    +0.000 C 
BRANCH  13  14
ATOM     14  C   UNL     1       2.319   6.771  19.387  0.00  0.00    +0.000 C 
ATOM     15  O   UNL     1       2.086   7.977  19.409  0.00  0.00    +0.000 OA
ENDBRANCH  13  14
BRANCH  13  16
ATOM     16  O   UNL     1       1.926   4.858  17.792  0.00  0.00    +0.000 OA
BRANCH  16  17
ATOM     17  C   UNL     1       2.093   3.713  18.630  0.00  0.00    +0.000 C 
BRANCH  17  18
ATOM     18  C   UNL     1       0.918   3.328  19.525  0.00  0.00    +0.000 C 
ATOM     19  O   UNL     1       1.032   2.791  20.622  0.00  0.00    +0.000 OA
ENDBRANCH  17  18
BRANCH  17  20
ATOM     20  C   UNL     1       2.364   2.511  17.717  0.00  0.00    +0.000 C 
BRANCH  20  21
ATOM     21  O   UNL     1       2.580   1.331  18.486  0.00  0.00    +0.000 OA
ATOM     22  H   UNL     1       1.710   0.898  18.581  0.00  0.00    +0.000 HD
ENDBRANCH  20  21
ENDBRANCH  17  20
ENDBRANCH  16  17
ENDBRANCH  13  16
ENDBRANCH   9  13
TORSDOF 8
ENDMDL
MODEL 9
REMARK VINA RESULT:      -6.0      3.382      6.151
REMARK  Name = 
REMARK  8 active torsions:
REMARK  status: ('A' for Active; 'I' for Inactive)
REMARK    1  A    between atoms: N_1  and  C_2
REMARK    2  A    between atoms: N_10  and  C_11
REMARK    3  A    between atoms: C_11  and  C_12
REMARK    4  A    between atoms: C_11  and  O_14
REMARK    5  A    between atoms: O_14  and  C_15
REMARK    6  A    between atoms: C_15  and  C_16
REMARK    7  A    between atoms: C_15  and  C_18
REMARK    8  A    between atoms: C_18  and  O_19
REMARK                            x       y       z     vdW  Elec       q    Type
REMARK                         _______ _______ _______ _____ _____    ______ ____
ROOT
ATOM      1  C   UNL     1       2.732   3.034  21.184  0.00  0.00    +0.000 A 
ATOM      2  N   UNL     1       3.684   2.082  21.315  0.00  0.00    +0.000 NA
ATOM      3  C   UNL     1       4.727   2.095  20.454  0.00  0.00    +0.000 A 
ATOM      4  N   UNL     1       4.961   2.942  19.429  0.00  0.00    +0.000 NA
ATOM      5  C   UNL     1       3.968   3.842  19.324  0.00  0.00    +0.000 A 
ATOM      6  C   UNL     1       2.852   3.960  20.137  0.00  0.00    +0.000 A 
ATOM      7  N   UNL     1       2.059   5.015  19.731  0.00  0.00    +0.000 NA
ATOM      8  C   UNL     1       2.688   5.529  18.693  0.00  0.00    +0.000 A 
ATOM      9  N   UNL     1       3.830   4.836  18.392  0.00  0.00    +0.000 N 
ENDROOT
BRANCH   1  10
ATOM     10  N   UNL     1       1.666   3.035  22.075  0.00  0.00    +0.000 N 
ATOM     11  H   UNL     1       0.776   3.153  21.610  0.00  0.00    +0.000 HD
ATOM     12  H   UNL     1       1.840   3.591  22.905  0.00  0.00    +0.000 HD
ENDBRANCH   1  10
BRANCH   9  13
ATOM     13  C   UNL     1       4.769   5.138  17.317  0.00  0.00    +0.000 C 
BRANCH  13  14
ATOM     14  C   UNL     1       4.527   6.584  16.881  0.00  0.00    +0.000 C 
ATOM     15  O   UNL     1       5.141   7.150  15.980  0.00  0.00    +0.000 OA
ENDBRANCH  13  14
BRANCH  13  16
ATOM     16  O   UNL     1       4.610   4.128  16.317  0.00  0.00    +0.000 OA
BRANCH  16  17
ATOM     17  C   UNL     1       5.799   3.782  15.604  0.00  0.00    +0.000 C 
BRANCH  17  18
ATOM     18  C   UNL     1       5.880   4.206  14.140  0.00  0.00    +0.000 C 
ATOM     19  O   UNL     1       6.704   3.772  13.341  0.00  0.00    +0.000 OA
ENDBRANCH  17  18
BRANCH  17  20
ATOM     20  C   UNL     1       6.977   4.451  16.324  0.00  0.00    +0.000 C 
BRANCH  20  21
ATOM     21  O   UNL     1       7.576   5.444  15.496  0.00  0.00    +0.000 OA
ATOM     22  H   UNL     1       7.909   6.141  16.094  0.00  0.00    +0.000 HD
ENDBRANCH  20  21
ENDBRANCH  17  20
ENDBRANCH  16  17
ENDBRANCH  13  16
ENDBRANCH   9  13
TORSDOF 8
ENDMDL
