MODEL 1
REMARK VINA RESULT:      -8.0      0.000      0.000
REMARK  Name = 
REMARK  6 active torsions:
REMARK  status: ('A' for Active; 'I' for Inactive)
REMARK    1  A    between atoms: C_1  and  C_2
REMARK    2  A    between atoms: C_4  and  C_5
REMARK    3  A    between atoms: C_11  and  C_12
REMARK    4  A    between atoms: C_12  and  N_13
REMARK    5  A    between atoms: C_15  and  C_16
REMARK    6  A    between atoms: C_18  and  C_19
REMARK                            x       y       z     vdW  Elec       q    Type
REMARK                         _______ _______ _______ _____ _____    ______ ____
ROOT
ATOM      1  C   UNL     1       6.777   4.591  17.092  0.00  0.00    +0.000 C 
ATOM      2  O   UNL     1       7.683   4.267  17.873  0.00  0.00    +0.000 OA
ATOM      3  N   UNL     1       5.530   4.949  17.588  0.00  0.00    +0.000 N 
ATOM      4  C   UNL     1       4.368   5.371  16.824  0.00  0.00    +0.000 C 
ATOM      5  C   UNL     1       3.681   6.356  17.747  0.00  0.00    +0.000 C 
ATOM      6  C   UNL     1       3.886   5.724  19.118  0.00  0.00    +0.000 C 
ATOM      7  C   UNL     1       5.235   4.974  19.031  0.00  0.00    +0.000 C 
ENDROOT
BRANCH   1  11
ATOM      8  C   UNL     1       6.773   4.081  12.047  0.00  0.00    +0.000 C 
ATOM      9  C   UNL     1       7.005   4.468  13.457  0.00  0.00    +0.000 A 
ATOM     10  C   UNL     1       6.489   3.862  14.624  0.00  0.00    +0.000 A 
ATOM     11  C   UNL     1       6.983   4.625  15.664  0.00  0.00    +0.000 A 
ATOM     12  O   UNL     1       7.738   5.631  15.130  0.00  0.00    +0.000 OA
ATOM     13  N   UNL     1       7.765   5.527  13.752  0.00  0.00    +0.000 NA
ENDBRANCH   1  11
BRANCH   7  14
ATOM     14  C   UNL     1       5.173   3.570  19.663  0.00  0.00    +0.000 C 
BRANCH  14  15
ATOM     15  N   UNL     1       3.812   3.082  19.822  0.00  0.00    +0.000 N 
ATOM     16  N   UNL     1       3.184   3.294  20.996  0.00  0.00    +0.000 NA
ATOM     17  C   UNL     1       2.012   2.663  20.868  0.00  0.00    +0.000 A 
ATOM     18  C   UNL     1       1.059   2.613  22.000  0.00  0.00    +0.000 C 
ATOM     19  C   UNL     1       1.869   2.103  19.582  0.00  0.00    +0.000 A 
ATOM     20  C   UNL     1       3.039   2.397  18.916  0.00  0.00    +0.000 A 
ATOM     21  C   UNL     1       3.466   2.082  17.531  0.00  0.00    +0.000 C 
ENDBRANCH  14  15
ENDBRANCH   7  14
TORSDOF 3
ENDMDL
MODEL 2
REMARK VINA RESULT:      -7.1      1.502      1.974
REMARK  Name = 
REMARK  6 active torsions:
REMARK  status: ('A' for Active; 'I' for Inactive)
REMARK    1  A    between atoms: C_1  and  C_2
REMARK    2  A    between atoms: C_4  and  C_5
REMARK    3  A    between atoms: C_11  and  C_12
REMARK    4  A    between atoms: C_12  and  N_13
REMARK    5  A    between atoms: C_15  and  C_16
REMARK    6  A    between atoms: C_18  and  C_19
REMARK                            x       y       z     vdW  Elec       q    Type
REMARK                         _______ _______ _______ _____ _____    ______ ____
ROOT
ATOM      1  C   UNL     1       5.583   4.298  16.293  0.00  0.00    +0.000 C 
ATOM      2  O   UNL     1       4.575   3.584  16.393  0.00  0.00    +0.000 OA
ATOM      3  N   UNL     1       6.071   4.967  17.408  0.00  0.00    +0.000 N 
ATOM      4  C   UNL     1       7.243   5.824  17.476  0.00  0.00    +0.000 C 
ATOM      5  C   UNL     1       7.763   5.595  18.880  0.00  0.00    +0.000 C 
ATOM      6  C   UNL     1       6.479   5.474  19.693  0.00  0.00    +0.000 C 
ATOM      7  C   UNL     1       5.440   4.852  18.734  0.00  0.00    +0.000 C 
ENDROOT
BRANCH   1  11
ATOM      8  C   UNL     1       7.307   4.332  11.525  0.00  0.00    +0.000 C 
ATOM      9  C   UNL     1       7.070   4.522  12.974  0.00  0.00    +0.000 A 
ATOM     10  C   UNL     1       6.102   3.894  13.788  0.00  0.00    +0.000 A 
ATOM     11  C   UNL     1       6.286   4.447  15.041  0.00  0.00    +0.000 A 
ATOM     12  O   UNL     1       7.299   5.359  14.957  0.00  0.00    +0.000 OA
ATOM     13  N   UNL     1       7.800   5.398  13.670  0.00  0.00    +0.000 NA
ENDBRANCH   1  11
BRANCH   7  14
ATOM     14  C   UNL     1       4.068   5.550  18.816  0.00  0.00    +0.000 C 
BRANCH  14  15
ATOM     15  N   UNL     1       3.020   4.679  19.324  0.00  0.00    +0.000 N 
ATOM     16  N   UNL     1       3.148   4.177  20.569  0.00  0.00    +0.000 NA
ATOM     17  C   UNL     1       2.097   3.361  20.710  0.00  0.00    +0.000 A 
ATOM     18  C   UNL     1       1.929   2.561  21.944  0.00  0.00    +0.000 C 
ATOM     19  C   UNL     1       1.265   3.396  19.573  0.00  0.00    +0.000 A 
ATOM     20  C   UNL     1       1.873   4.265  18.693  0.00  0.00    +0.000 A 
ATOM     21  C   UNL     1       1.462   4.713  17.340  0.00  0.00    +0.000 C 
ENDBRANCH  14  15
ENDBRANCH   7  14
TORSDOF 3
ENDMDL
MODEL 3
REMARK VINA RESULT:      -7.1      1.622      2.573
REMARK  Name = 
REMARK  6 active torsions:
REMARK  status: ('A' for Active; 'I' for Inactive)
REMARK    1  A    between atoms: C_1  and  C_2
REMARK    2  A    between atoms: C_4  and  C_5
REMARK    3  A    between atoms: C_11  and  C_12
REMARK    4  A    between atoms: C_12  and  N_13
REMARK    5  A    between atoms: C_15  and  C_16
REMARK    6  A    between atoms: C_18  and  C_19
REMARK                            x       y       z     vdW  Elec       q    Type
REMARK                         _______ _______ _______ _____ _____    ______ ____
ROOT
ATOM      1  C   UNL     1       5.537   4.456  16.249  0.00  0.00    +0.000 C 
ATOM      2  O   UNL     1       4.430   3.908  16.353  0.00  0.00    +0.000 OA
ATOM      3  N   UNL     1       6.124   5.046  17.360  0.00  0.00    +0.000 N 
ATOM      4  C   UNL     1       7.415   5.711  17.423  0.00  0.00    +0.000 C 
ATOM      5  C   UNL     1       7.895   5.411  18.828  0.00  0.00    +0.000 C 
ATOM      6  C   UNL     1       6.610   5.494  19.642  0.00  0.00    +0.000 C 
ATOM      7  C   UNL     1       5.485   5.037  18.687  0.00  0.00    +0.000 C 
ENDROOT
BRANCH   1  11
ATOM      8  C   UNL     1       7.289   4.082  11.506  0.00  0.00    +0.000 C 
ATOM      9  C   UNL     1       7.050   4.385  12.935  0.00  0.00    +0.000 A 
ATOM     10  C   UNL     1       6.056   3.852  13.785  0.00  0.00    +0.000 A 
ATOM     11  C   UNL     1       6.251   4.488  14.996  0.00  0.00    +0.000 A 
ATOM     12  O   UNL     1       7.297   5.356  14.854  0.00  0.00    +0.000 OA
ATOM     13  N   UNL     1       7.807   5.284  13.572  0.00  0.00    +0.000 NA
ENDBRANCH   1  11
BRANCH   7  14
ATOM     14  C   UNL     1       4.238   5.939  18.767  0.00  0.00    +0.000 C 
BRANCH  14  15
ATOM     15  N   UNL     1       3.187   5.379  19.602  0.00  0.00    +0.000 N 
ATOM     16  N   UNL     1       3.186   4.050  19.830  0.00  0.00    +0.000 NA
ATOM     17  C   UNL     1       2.072   3.833  20.538  0.00  0.00    +0.000 A 
ATOM     18  C   UNL     1       1.684   2.457  20.924  0.00  0.00    +0.000 C 
ATOM     19  C   UNL     1       1.398   5.040  20.816  0.00  0.00    +0.000 A 
ATOM     20  C   UNL     1       2.144   6.029  20.213  0.00  0.00    +0.000 A 
ATOM     21  C   UNL     1       1.942   7.498  20.171  0.00  0.00    +0.000 C 
ENDBRANCH  14  15
ENDBRANCH   7  14
TORSDOF 3
ENDMDL
MODEL 4
REMARK VINA RESULT:      -6.9      2.314      6.475
REMARK  Name = 
REMARK  6 active torsions:
REMARK  status: ('A' for Active; 'I' for Inactive)
REMARK    1  A    between atoms: C_1  and  C_2
REMARK    2  A    between atoms: C_4  and  C_5
REMARK    3  A    between atoms: C_11  and  C_12
REMARK    4  A    between atoms: C_12  and  N_13
REMARK    5  A    between atoms: C_15  and  C_16
REMARK    6  A    between atoms: C_18  and  C_19
REMARK                            x       y       z     vdW  Elec       q    Type
REMARK                         _______ _______ _______ _____ _____    ______ ____
ROOT
ATOM      1  C   UNL     1       3.211   4.713  18.106  0.00  0.00    +0.000 C 
ATOM      2  O   UNL     1       3.849   4.143  17.210  0.00  0.00    +0.000 OA
ATOM      3  N   UNL     1       3.187   6.100  18.164  0.00  0.00    +0.000 N 
ATOM      4  C   UNL     1       2.481   6.928  19.127  0.00  0.00    +0.000 C 
ATOM      5  C   UNL     1       2.105   8.156  18.324  0.00  0.00    +0.000 C 
ATOM      6  C   UNL     1       3.327   8.357  17.435  0.00  0.00    +0.000 C 
ATOM      7  C   UNL     1       3.889   6.941  17.179  0.00  0.00    +0.000 C 
ENDROOT
BRANCH   1  11
ATOM      8  C   UNL     1       1.320   2.353  22.177  0.00  0.00    +0.000 C 
ATOM      9  C   UNL     1       1.578   2.953  20.848  0.00  0.00    +0.000 A 
ATOM     10  C   UNL     1       2.770   3.546  20.376  0.00  0.00    +0.000 A 
ATOM     11  C   UNL     1       2.467   3.972  19.097  0.00  0.00    +0.000 A 
ATOM     12  O   UNL     1       1.163   3.656  18.843  0.00  0.00    +0.000 OA
ATOM     13  N   UNL     1       0.609   3.007  19.930  0.00  0.00    +0.000 NA
ENDBRANCH   1  11
BRANCH   7  14
ATOM     14  C   UNL     1       5.423   6.881  17.314  0.00  0.00    +0.000 C 
BRANCH  14  15
ATOM     15  N   UNL     1       6.027   5.872  16.458  0.00  0.00    +0.000 N 
ATOM     16  N   UNL     1       5.596   5.765  15.185  0.00  0.00    +0.000 NA
ATOM     17  C   UNL     1       6.260   4.714  14.694  0.00  0.00    +0.000 A 
ATOM     18  C   UNL     1       5.998   4.236  13.317  0.00  0.00    +0.000 C 
ATOM     19  C   UNL     1       7.164   4.190  15.641  0.00  0.00    +0.000 A 
ATOM     20  C   UNL     1       7.007   4.963  16.771  0.00  0.00    +0.000 A 
ATOM     21  C   UNL     1       7.693   4.899  18.085  0.00  0.00    +0.000 C 
ENDBRANCH  14  15
ENDBRANCH   7  14
TORSDOF 3
ENDMDL
MODEL 5
REMARK VINA RESULT:      -6.8      3.114      4.197
REMARK  Name = 
REMARK  6 active torsions:
REMARK  status: ('A' for Active; 'I' for Inactive)
REMARK    1  A    between atoms: C_1  and  C_2
REMARK    2  A    between atoms: C_4  and  C_5
REMARK    3  A    between atoms: C_11  and  C_12
REMARK    4  A    between atoms: C_12  and  N_13
REMARK    5  A    between atoms: C_15  and  C_16
REMARK    6  A    between atoms: C_18  and  C_19
REMARK                            x       y       z     vdW  Elec       q    Type
REMARK                         _______ _______ _______ _____ _____    ______ ____
ROOT
ATOM      1  C   UNL     1       4.372   6.276  16.674  0.00  0.00    +0.000 C 
ATOM      2  O   UNL     1       4.168   7.499  16.700  0.00  0.00    +0.000 OA
ATOM      3  N   UNL     1       3.575   5.425  17.428  0.00  0.00    +0.000 N 
ATOM      4  C   UNL     1       3.661   3.976  17.501  0.00  0.00    +0.000 C 
ATOM      5  C   UNL     1       2.222   3.551  17.710  0.00  0.00    +0.000 C 
ATOM      6  C   UNL     1       1.686   4.638  18.634  0.00  0.00    +0.000 C 
ATOM      7  C   UNL     1       2.467   5.919  18.263  0.00  0.00    +0.000 C 
ENDROOT
BRANCH   1  11
ATOM      8  C   UNL     1       7.334   4.084  13.191  0.00  0.00    +0.000 C 
ATOM      9  C   UNL     1       6.763   4.782  14.364  0.00  0.00    +0.000 A 
ATOM     10  C   UNL     1       5.402   4.955  14.699  0.00  0.00    +0.000 A 
ATOM     11  C   UNL     1       5.417   5.699  15.862  0.00  0.00    +0.000 A 
ATOM     12  O   UNL     1       6.720   5.959  16.181  0.00  0.00    +0.000 OA
ATOM     13  N   UNL     1       7.563   5.375  15.255  0.00  0.00    +0.000 NA
ENDBRANCH   1  11
BRANCH   7  14
ATOM     14  C   UNL     1       2.941   6.702  19.502  0.00  0.00    +0.000 C 
BRANCH  14  15
ATOM     15  N   UNL     1       1.993   7.722  19.922  0.00  0.00    +0.000 N 
ATOM     16  N   UNL     1       1.419   7.607  21.137  0.00  0.00    +0.000 NA
ATOM     17  C   UNL     1       0.550   8.622  21.194  0.00  0.00    +0.000 A 
ATOM     18  C   UNL     1      -0.334   8.788  22.370  0.00  0.00    +0.000 C 
ATOM     19  C   UNL     1       0.620   9.423  20.036  0.00  0.00    +0.000 A 
ATOM     20  C   UNL     1       1.570   8.831  19.231  0.00  0.00    +0.000 A 
ATOM     21  C   UNL     1       2.084   9.225  17.897  0.00  0.00    +0.000 C 
ENDBRANCH  14  15
ENDBRANCH   7  14
TORSDOF 3
ENDMDL
MODEL 6
REMARK VINA RESULT:      -6.8      2.475      6.434
REMARK  Name = 
REMARK  6 active torsions:
REMARK  status: ('A' for Active; 'I' for Inactive)
REMARK    1  A    between atoms: C_1  and  C_2
REMARK    2  A    between atoms: C_4  and  C_5
REMARK    3  A    between atoms: C_11  and  C_12
REMARK    4  A    between atoms: C_12  and  N_13
REMARK    5  A    between atoms: C_15  and  C_16
REMARK    6  A    between atoms: C_18  and  C_19
REMARK                            x       y       z     vdW  Elec       q    Type
REMARK                         _______ _______ _______ _____ _____    ______ ____
ROOT
ATOM      1  C   UNL     1       4.087   4.007  17.917  0.00  0.00    +0.000 C 
ATOM      2  O   UNL     1       4.439   3.245  17.004  0.00  0.00    +0.000 OA
ATOM      3  N   UNL     1       4.154   5.382  17.735  0.00  0.00    +0.000 N 
ATOM      4  C   UNL     1       3.768   6.414  18.683  0.00  0.00    +0.000 C 
ATOM      5  C   UNL     1       3.264   7.533  17.796  0.00  0.00    +0.000 C 
ATOM      6  C   UNL     1       4.221   7.474  16.611  0.00  0.00    +0.000 C 
ATOM      7  C   UNL     1       4.620   5.988  16.476  0.00  0.00    +0.000 C 
ENDROOT
BRANCH   1  11
ATOM      8  C   UNL     1       1.468   2.393  21.947  0.00  0.00    +0.000 C 
ATOM      9  C   UNL     1       2.499   2.756  20.949  0.00  0.00    +0.000 A 
ATOM     10  C   UNL     1       2.329   3.467  19.740  0.00  0.00    +0.000 A 
ATOM     11  C   UNL     1       3.589   3.504  19.175  0.00  0.00    +0.000 A 
ATOM     12  O   UNL     1       4.445   2.837  20.004  0.00  0.00    +0.000 OA
ATOM     13  N   UNL     1       3.770   2.381  21.120  0.00  0.00    +0.000 NA
ENDBRANCH   1  11
BRANCH   7  14
ATOM     14  C   UNL     1       6.131   5.801  16.234  0.00  0.00    +0.000 C 
BRANCH  14  15
ATOM     15  N   UNL     1       6.950   6.552  17.173  0.00  0.00    +0.000 N 
ATOM     16  N   UNL     1       7.129   7.871  16.961  0.00  0.00    +0.000 NA
ATOM     17  C   UNL     1       7.981   8.251  17.919  0.00  0.00    +0.000 A 
ATOM     18  C   UNL     1       8.478   9.645  17.971  0.00  0.00    +0.000 C 
ATOM     19  C   UNL     1       8.294   7.182  18.782  0.00  0.00    +0.000 A 
ATOM     20  C   UNL     1       7.605   6.094  18.290  0.00  0.00    +0.000 A 
ATOM     21  C   UNL     1       7.531   4.697  18.782  0.00  0.00    +0.000 C 
ENDBRANCH  14  15
ENDBRANCH   7  14
TORSDOF 3
ENDMDL
MODEL 7
REMARK VINA RESULT:      -6.7      1.896      6.750
REMARK  Name = 
REMARK  6 active torsions:
REMARK  status: ('A' for Active; 'I' for Inactive)
REMARK    1  A    between atoms: C_1  and  C_2
REMARK    2  A    between atoms: C_4  and  C_5
REMARK    3  A    between atoms: C_11  and  C_12
REMARK    4  A    between atoms: C_12  and  N_13
REMARK    5  A    between atoms: C_15  and  C_16
REMARK    6  A    between atoms: C_18  and  C_19
REMARK                            x       y       z     vdW  Elec       q    Type
REMARK                         _______ _______ _______ _____ _____    ______ ____
ROOT
ATOM      1  C   UNL     1       4.614   3.950  17.628  0.00  0.00    +0.000 C 
ATOM      2  O   UNL     1       4.114   3.563  16.561  0.00  0.00    +0.000 OA
ATOM      3  N   UNL     1       5.712   4.799  17.610  0.00  0.00    +0.000 N 
ATOM      4  C   UNL     1       6.407   5.362  18.756  0.00  0.00    +0.000 C 
ATOM      5  C   UNL     1       6.870   6.714  18.256  0.00  0.00    +0.000 C 
ATOM      6  C   UNL     1       7.257   6.418  16.811  0.00  0.00    +0.000 C 
ATOM      7  C   UNL     1       6.314   5.281  16.355  0.00  0.00    +0.000 C 
ENDROOT
BRANCH   1  11
ATOM      8  C   UNL     1       1.883   2.903  21.770  0.00  0.00    +0.000 C 
ATOM      9  C   UNL     1       2.923   3.042  20.726  0.00  0.00    +0.000 A 
ATOM     10  C   UNL     1       2.862   3.789  19.529  0.00  0.00    +0.000 A 
ATOM     11  C   UNL     1       4.072   3.553  18.906  0.00  0.00    +0.000 A 
ATOM     12  O   UNL     1       4.795   2.702  19.693  0.00  0.00    +0.000 OA
ATOM     13  N   UNL     1       4.085   2.392  20.837  0.00  0.00    +0.000 NA
ENDBRANCH   1  11
BRANCH   7  14
ATOM     14  C   UNL     1       7.053   4.179  15.573  0.00  0.00    +0.000 C 
BRANCH  14  15
ATOM     15  N   UNL     1       6.738   4.186  14.153  0.00  0.00    +0.000 N 
ATOM     16  N   UNL     1       5.649   3.512  13.731  0.00  0.00    +0.000 NA
ATOM     17  C   UNL     1       5.678   3.629  12.400  0.00  0.00    +0.000 A 
ATOM     18  C   UNL     1       4.662   2.949  11.564  0.00  0.00    +0.000 C 
ATOM     19  C   UNL     1       6.754   4.435  11.978  0.00  0.00    +0.000 A 
ATOM     20  C   UNL     1       7.420   4.797  13.130  0.00  0.00    +0.000 A 
ATOM     21  C   UNL     1       8.620   5.647  13.323  0.00  0.00    +0.000 C 
ENDBRANCH  14  15
ENDBRANCH   7  14
TORSDOF 3
ENDMDL
MODEL 8
REMARK VINA RESULT:      -6.7      0.928      1.728
REMARK  Name = 
REMARK  6 active torsions:
REMARK  status: ('A' for Active; 'I' for Inactive)
REMARK    1  A    between atoms: C_1  and  C_2
REMARK    2  A    between atoms: C_4  and  C_5
REMARK    3  A    between atoms: C_11  and  C_12
REMARK    4  A    between atoms: C_12  and  N_13
REMARK    5  A    between atoms: C_15  and  C_16
REMARK    6  A    between atoms: C_18  and  C_19
REMARK                            x       y       z     vdW  Elec       q    Type
REMARK                         _______ _______ _______ _____ _____    ______ ____
ROOT
ATOM      1  C   UNL     1       6.424   4.634  17.397  0.00  0.00    +0.000 C 
ATOM      2  O   UNL     1       7.260   4.263  18.234  0.00  0.00    +0.000 OA
ATOM      3  N   UNL     1       5.181   5.088  17.814  0.00  0.00    +0.000 N 
ATOM      4  C   UNL     1       4.097   5.575  16.978  0.00  0.00    +0.000 C 
ATOM      5  C   UNL     1       3.431   6.625  17.843  0.00  0.00    +0.000 C 
ATOM      6  C   UNL     1       3.513   6.008  19.234  0.00  0.00    +0.000 C 
ATOM      7  C   UNL     1       4.807   5.164  19.237  0.00  0.00    +0.000 C 
ENDROOT
BRANCH   1  11
ATOM      8  C   UNL     1       6.701   3.977  12.376  0.00  0.00    +0.000 C 
ATOM      9  C   UNL     1       6.858   4.402  13.786  0.00  0.00    +0.000 A 
ATOM     10  C   UNL     1       6.267   3.837  14.937  0.00  0.00    +0.000 A 
ATOM     11  C   UNL     1       6.712   4.623  15.982  0.00  0.00    +0.000 A 
ATOM     12  O   UNL     1       7.510   5.604  15.464  0.00  0.00    +0.000 OA
ATOM     13  N   UNL     1       7.614   5.459  14.094  0.00  0.00    +0.000 NA
ENDBRANCH   1  11
BRANCH   7  14
ATOM     14  C   UNL     1       4.610   3.781  19.888  0.00  0.00    +0.000 C 
BRANCH  14  15
ATOM     15  N   UNL     1       3.219   3.357  19.902  0.00  0.00    +0.000 N 
ATOM     16  N   UNL     1       2.734   2.702  18.828  0.00  0.00    +0.000 NA
ATOM     17  C   UNL     1       1.436   2.531  19.098  0.00  0.00    +0.000 A 
ATOM     18  C   UNL     1       0.539   1.899  18.104  0.00  0.00    +0.000 C 
ATOM     19  C   UNL     1       1.109   3.022  20.379  0.00  0.00    +0.000 A 
ATOM     20  C   UNL     1       2.281   3.540  20.888  0.00  0.00    +0.000 A 
ATOM     21  C   UNL     1       2.563   4.180  22.195  0.00  0.00    +0.000 C 
ENDBRANCH  14  15
ENDBRANCH   7  14
TORSDOF 3
ENDMDL
MODEL 9
REMARK VINA RESULT:      -6.6      2.292      3.956
REMARK  Name = 
REMARK  6 active torsions:
REMARK  status: ('A' for Active; 'I' for Inactive)
REMARK    1  A    between atoms: C_1  and  C_2
REMARK    2  A    between atoms: C_4  and  C_5
REMARK    3  A    between atoms: C_11  and  C_12
REMARK    4  A    between atoms: C_12  and  N_13
REMARK    5  A    between atoms: C_15  and  C_16
REMARK    6  A    between atoms: C_18  and  C_19
REMARK                            x       y       z     vdW  Elec       q    Type
REMARK                         _______ _______ _______ _____ _____    ______ ____
ROOT
ATOM      1  C   UNL     1       4.507   4.154  17.016  0.00  0.00    +0.000 C 
ATOM      2  O   UNL     1       3.813   4.105  15.990  0.00  0.00    +0.000 OA
ATOM      3  N   UNL     1       4.199   3.343  18.100  0.00  0.00    +0.000 N 
ATOM      4  C   UNL     1       4.911   3.257  19.364  0.00  0.00    +0.000 C 
ATOM      5  C   UNL     1       4.736   1.808  19.767  0.00  0.00    +0.000 C 
ATOM      6  C   UNL     1       3.309   1.511  19.322  0.00  0.00    +0.000 C 
ATOM      7  C   UNL     1       3.069   2.399  18.080  0.00  0.00    +0.000 C 
ENDROOT
BRANCH   1  11
ATOM      8  C   UNL     1       7.911   7.835  17.774  0.00  0.00    +0.000 C 
ATOM      9  C   UNL     1       7.187   6.585  17.452  0.00  0.00    +0.000 A 
ATOM     10  C   UNL     1       5.793   6.359  17.454  0.00  0.00    +0.000 A 
ATOM     11  C   UNL     1       5.652   5.027  17.115  0.00  0.00    +0.000 A 
ATOM     12  O   UNL     1       6.901   4.501  16.939  0.00  0.00    +0.000 OA
ATOM     13  N   UNL     1       7.861   5.476  17.135  0.00  0.00    +0.000 NA
ENDBRANCH   1  11
BRANCH   7  14
ATOM     14  C   UNL     1       1.695   3.095  18.108  0.00  0.00    +0.000 C 
BRANCH  14  15
ATOM     15  N   UNL     1       1.678   4.280  18.950  0.00  0.00    +0.000 N 
ATOM     16  N   UNL     1       1.899   5.480  18.377  0.00  0.00    +0.000 NA
ATOM     17  C   UNL     1       1.911   6.342  19.400  0.00  0.00    +0.000 A 
ATOM     18  C   UNL     1       2.200   7.776  19.170  0.00  0.00    +0.000 C 
ATOM     19  C   UNL     1       1.633   5.694  20.620  0.00  0.00    +0.000 A 
ATOM     20  C   UNL     1       1.471   4.362  20.305  0.00  0.00    +0.000 A 
ATOM     21  C   UNL     1       1.152   3.199  21.168  0.00  0.00    +0.000 C 
ENDBRANCH  14  15
ENDBRANCH   7  14
TORSDOF 3
ENDMDL
