MODEL 1
REMARK VINA RESULT:      -8.4      0.000      0.000
REMARK  Name = 
REMARK  5 active torsions:
REMARK  status: ('A' for Active; 'I' for Inactive)
REMARK    1  A    between atoms: C_1  and  C_2
REMARK    2  A    between atoms: C_2  and  C_3
REMARK    3  A    between atoms: N_12  and  C_13
REMARK    4  A    between atoms: C_16  and  C_17
REMARK    5  A    between atoms: N_19  and  C_20
REMARK                            x       y       z     vdW  Elec       q    Type
REMARK                         _______ _______ _______ _____ _____    ______ ____
ROOT
ATOM      1  C   UNL     1       3.154   6.522  18.751  0.00  0.00    +0.000 A 
ATOM      2  N   UNL     1       2.247   6.346  19.691  0.00  0.00    +0.000 NA
ATOM      3  C   UNL     1       2.389   5.059  20.119  0.00  0.00    +0.000 A 
ATOM      4  C   UNL     1       1.670   4.386  21.119  0.00  0.00    +0.000 A 
ATOM      5  C   UNL     1       2.007   3.067  21.400  0.00  0.00    +0.000 A 
ATOM      6  F   UNL     1       1.345   2.413  22.364  0.00  0.00    +0.000 F 
ATOM      7  C   UNL     1       3.033   2.417  20.726  0.00  0.00    +0.000 A 
ATOM      8  C   UNL     1       3.763   3.076  19.732  0.00  0.00    +0.000 A 
ATOM      9  C   UNL     1       3.411   4.407  19.432  0.00  0.00    +0.000 A 
ATOM     10  N   UNL     1       3.947   5.374  18.574  0.00  0.00    +0.000 N 
ENDROOT
BRANCH  10  11
ATOM     11  C   UNL     1       5.048   5.197  17.718  0.00  0.00    +0.000 A 
ATOM     12  C   UNL     1       6.361   4.951  18.047  0.00  0.00    +0.000 A 
ATOM     13  C   UNL     1       7.164   4.766  16.876  0.00  0.00    +0.000 A 
ATOM     14  C   UNL     1       6.438   4.904  15.707  0.00  0.00    +0.000 A 
ATOM     15  S   UNL     1       4.831   5.378  16.047  0.00  0.00    +0.000 S 
BRANCH  14  16
ATOM     16  C   UNL     1       6.895   4.695  14.339  0.00  0.00    +0.000 C 
ATOM     17  O   UNL     1       7.873   5.273  13.869  0.00  0.00    +0.000 OA
ATOM     18  N   UNL     1       6.161   3.774  13.614  0.00  0.00    +0.000 N 
ATOM     19  H   UNL     1       5.369   3.343  14.074  0.00  0.00    +0.000 HD
BRANCH  18  20
ATOM     20  C   UNL     1       6.444   3.416  12.265  0.00  0.00    +0.000 C 
ATOM     21  C   UNL     1       6.181   2.015  11.781  0.00  0.00    +0.000 C 
ATOM     22  C   UNL     1       5.318   3.146  11.308  0.00  0.00    +0.000 C 
ENDBRANCH  18  20
ENDBRANCH  14  16
ENDBRANCH  10  11
BRANCH   1  24
ATOM     23  C   UNL     1       1.988   8.576  17.840  0.00  0.00    +0.000 C 
ATOM     24  C   UNL     1       3.279   7.781  17.940  0.00  0.00    +0.000 C 
ENDBRANCH   1  24
TORSDOF 4
ENDMDL
MODEL 2
REMARK VINA RESULT:      -8.1      1.638      3.063
REMARK  Name = 
REMARK  5 active torsions:
REMARK  status: ('A' for Active; 'I' for Inactive)
REMARK    1  A    between atoms: C_1  and  C_2
REMARK    2  A    between atoms: C_2  and  C_3
REMARK    3  A    between atoms: N_12  and  C_13
REMARK    4  A    between atoms: C_16  and  C_17
REMARK    5  A    between atoms: N_19  and  C_20
REMARK                            x       y       z     vdW  Elec       q    Type
REMARK                         _______ _______ _______ _____ _____    ______ ____
ROOT
ATOM      1  C   UNL     1       3.719   3.389  19.738  0.00  0.00    +0.000 A 
ATOM      2  N   UNL     1       2.679   3.651  20.505  0.00  0.00    +0.000 NA
ATOM      3  C   UNL     1       2.423   4.983  20.356  0.00  0.00    +0.000 A 
ATOM      4  C   UNL     1       1.408   5.748  20.949  0.00  0.00    +0.000 A 
ATOM      5  C   UNL     1       1.329   7.100  20.630  0.00  0.00    +0.000 A 
ATOM      6  F   UNL     1       0.355   7.844  21.172  0.00  0.00    +0.000 F 
ATOM      7  C   UNL     1       2.217   7.692  19.741  0.00  0.00    +0.000 A 
ATOM      8  C   UNL     1       3.230   6.940  19.138  0.00  0.00    +0.000 A 
ATOM      9  C   UNL     1       3.324   5.576  19.473  0.00  0.00    +0.000 A 
ATOM     10  N   UNL     1       4.139   4.529  19.029  0.00  0.00    +0.000 N 
ENDROOT
BRANCH  10  11
ATOM     11  C   UNL     1       5.165   4.633  18.073  0.00  0.00    +0.000 A 
ATOM     12  C   UNL     1       6.524   4.714  18.275  0.00  0.00    +0.000 A 
ATOM     13  C   UNL     1       7.234   4.740  17.032  0.00  0.00    +0.000 A 
ATOM     14  C   UNL     1       6.389   4.706  15.937  0.00  0.00    +0.000 A 
ATOM     15  S   UNL     1       4.755   4.770  16.434  0.00  0.00    +0.000 S 
BRANCH  14  16
ATOM     16  C   UNL     1       6.752   4.626  14.528  0.00  0.00    +0.000 C 
ATOM     17  O   UNL     1       7.656   5.299  14.036  0.00  0.00    +0.000 OA
ATOM     18  N   UNL     1       6.022   3.714  13.789  0.00  0.00    +0.000 N 
ATOM     19  H   UNL     1       5.295   3.200  14.270  0.00  0.00    +0.000 HD
BRANCH  18  20
ATOM     20  C   UNL     1       6.223   3.473  12.400  0.00  0.00    +0.000 C 
ATOM     21  C   UNL     1       6.059   2.086  11.840  0.00  0.00    +0.000 C 
ATOM     22  C   UNL     1       5.051   3.148  11.517  0.00  0.00    +0.000 C 
ENDBRANCH  18  20
ENDBRANCH  14  16
ENDBRANCH  10  11
BRANCH   1  24
ATOM     23  C   UNL     1       3.878   1.149  18.570  0.00  0.00    +0.000 C 
ATOM     24  C   UNL     1       4.395   2.049  19.680  0.00  0.00    +0.000 C 
ENDBRANCH   1  24
TORSDOF 4
ENDMDL
MODEL 3
REMARK VINA RESULT:      -7.9      2.486      4.232
REMARK  Name = 
REMARK  5 active torsions:
REMARK  status: ('A' for Active; 'I' for Inactive)
REMARK    1  A    between atoms: C_1  and  C_2
REMARK    2  A    between atoms: C_2  and  C_3
REMARK    3  A    between atoms: N_12  and  C_13
REMARK    4  A    between atoms: C_16  and  C_17
REMARK    5  A    between atoms: N_19  and  C_20
REMARK                            x       y       z     vdW  Elec       q    Type
REMARK                         _______ _______ _______ _____ _____    ______ ____
ROOT
ATOM      1  C   UNL     1       2.124   5.881  20.364  0.00  0.00    +0.000 A 
ATOM      2  N   UNL     1       1.440   6.875  20.895  0.00  0.00    +0.000 NA
ATOM      3  C   UNL     1       1.530   7.912  20.014  0.00  0.00    +0.000 A 
ATOM      4  C   UNL     1       0.960   9.190  20.108  0.00  0.00    +0.000 A 
ATOM      5  C   UNL     1       1.173  10.086  19.066  0.00  0.00    +0.000 A 
ATOM      6  F   UNL     1       0.622  11.306  19.129  0.00  0.00    +0.000 F 
ATOM      7  C   UNL     1       1.920   9.740  17.947  0.00  0.00    +0.000 A 
ATOM      8  C   UNL     1       2.489   8.467  17.836  0.00  0.00    +0.000 A 
ATOM      9  C   UNL     1       2.290   7.563  18.898  0.00  0.00    +0.000 A 
ATOM     10  N   UNL     1       2.637   6.223  19.100  0.00  0.00    +0.000 N 
ENDROOT
BRANCH  10  11
ATOM     11  C   UNL     1       3.359   5.416  18.203  0.00  0.00    +0.000 A 
ATOM     12  C   UNL     1       2.959   4.259  17.574  0.00  0.00    +0.000 A 
ATOM     13  C   UNL     1       3.969   3.775  16.683  0.00  0.00    +0.000 A 
ATOM     14  C   UNL     1       5.106   4.564  16.690  0.00  0.00    +0.000 A 
ATOM     15  S   UNL     1       4.974   5.799  17.864  0.00  0.00    +0.000 S 
BRANCH  14  16
ATOM     16  C   UNL     1       6.290   4.435  15.852  0.00  0.00    +0.000 C 
ATOM     17  O   UNL     1       7.431   4.580  16.287  0.00  0.00    +0.000 OA
ATOM     18  N   UNL     1       6.038   4.107  14.533  0.00  0.00    +0.000 N 
ATOM     19  H   UNL     1       5.070   4.006  14.254  0.00  0.00    +0.000 HD
BRANCH  18  20
ATOM     20  C   UNL     1       7.053   3.924  13.551  0.00  0.00    +0.000 C 
ATOM     21  C   UNL     1       6.701   3.924  12.087  0.00  0.00    +0.000 C 
ATOM     22  C   UNL     1       7.467   5.072  12.675  0.00  0.00    +0.000 C 
ENDBRANCH  18  20
ENDBRANCH  14  16
ENDBRANCH  10  11
BRANCH   1  24
ATOM     23  C   UNL     1       1.248   3.559  20.864  0.00  0.00    +0.000 C 
ATOM     24  C   UNL     1       2.365   4.571  21.059  0.00  0.00    +0.000 C 
ENDBRANCH   1  24
TORSDOF 4
ENDMDL
MODEL 4
REMARK VINA RESULT:      -7.8      3.793      7.671
REMARK  Name = 
REMARK  5 active torsions:
REMARK  status: ('A' for Active; 'I' for Inactive)
REMARK    1  A    between atoms: C_1  and  C_2
REMARK    2  A    between atoms: C_2  and  C_3
REMARK    3  A    between atoms: N_12  and  C_13
REMARK    4  A    between atoms: C_16  and  C_17
REMARK    5  A    between atoms: N_19  and  C_20
REMARK                            x       y       z     vdW  Elec       q    Type
REMARK                         _______ _______ _______ _____ _____    ______ ____
ROOT
ATOM      1  C   UNL     1       7.015   6.036  17.024  0.00  0.00    +0.000 A 
ATOM      2  N   UNL     1       7.689   6.106  15.894  0.00  0.00    +0.000 NA
ATOM      3  C   UNL     1       7.051   5.275  15.020  0.00  0.00    +0.000 A 
ATOM      4  C   UNL     1       7.367   5.010  13.679  0.00  0.00    +0.000 A 
ATOM      5  C   UNL     1       6.553   4.133  12.970  0.00  0.00    +0.000 A 
ATOM      6  F   UNL     1       6.828   3.880  11.683  0.00  0.00    +0.000 F 
ATOM      7  C   UNL     1       5.445   3.532  13.555  0.00  0.00    +0.000 A 
ATOM      8  C   UNL     1       5.115   3.792  14.888  0.00  0.00    +0.000 A 
ATOM      9  C   UNL     1       5.948   4.666  15.614  0.00  0.00    +0.000 A 
ATOM     10  N   UNL     1       5.891   5.199  16.906  0.00  0.00    +0.000 N 
ENDROOT
BRANCH  10  11
ATOM     11  C   UNL     1       4.902   4.924  17.867  0.00  0.00    +0.000 A 
ATOM     12  C   UNL     1       4.728   3.787  18.622  0.00  0.00    +0.000 A 
ATOM     13  C   UNL     1       3.637   3.931  19.538  0.00  0.00    +0.000 A 
ATOM     14  C   UNL     1       3.009   5.158  19.425  0.00  0.00    +0.000 A 
ATOM     15  S   UNL     1       3.671   6.058  18.131  0.00  0.00    +0.000 S 
BRANCH  14  16
ATOM     16  C   UNL     1       1.930   5.690  20.247  0.00  0.00    +0.000 C 
ATOM     17  O   UNL     1       1.046   4.982  20.724  0.00  0.00    +0.000 OA
ATOM     18  N   UNL     1       1.990   7.053  20.476  0.00  0.00    +0.000 N 
ATOM     19  H   UNL     1       2.751   7.565  20.047  0.00  0.00    +0.000 HD
BRANCH  18  20
ATOM     20  C   UNL     1       1.042   7.770  21.261  0.00  0.00    +0.000 C 
ATOM     21  C   UNL     1       1.453   9.021  21.990  0.00  0.00    +0.000 C 
ATOM     22  C   UNL     1       0.546   9.111  20.798  0.00  0.00    +0.000 C 
ENDBRANCH  18  20
ENDBRANCH  14  16
ENDBRANCH  10  11
BRANCH   1  24
ATOM     23  C   UNL     1       8.022   5.789  19.334  0.00  0.00    +0.000 C 
ATOM     24  C   UNL     1       7.438   6.727  18.290  0.00  0.00    +0.000 C 
ENDBRANCH   1  24
TORSDOF 4
ENDMDL
MODEL 5
REMARK VINA RESULT:      -7.4      1.842      3.329
REMARK  Name = 
REMARK  5 active torsions:
REMARK  status: ('A' for Active; 'I' for Inactive)
REMARK    1  A    between atoms: C_1  and  C_2
REMARK    2  A    between atoms: C_2  and  C_3
REMARK    3  A    between atoms: N_12  and  C_13
REMARK    4  A    between atoms: C_16  and  C_17
REMARK    5  A    between atoms: N_19  and  C_20
REMARK                            x       y       z     vdW  Elec       q    Type
REMARK                         _______ _______ _______ _____ _____    ______ ____
ROOT
ATOM      1  C   UNL     1       3.797   4.414  19.575  0.00  0.00    +0.000 A 
ATOM      2  N   UNL     1       2.790   4.929  20.252  0.00  0.00    +0.000 NA
ATOM      3  C   UNL     1       2.582   6.174  19.734  0.00  0.00    +0.000 A 
ATOM      4  C   UNL     1       1.615   7.122  20.100  0.00  0.00    +0.000 A 
ATOM      5  C   UNL     1       1.579   8.328  19.410  0.00  0.00    +0.000 A 
ATOM      6  F   UNL     1       0.651   9.239  19.732  0.00  0.00    +0.000 F 
ATOM      7  C   UNL     1       2.464   8.604  18.375  0.00  0.00    +0.000 A 
ATOM      8  C   UNL     1       3.430   7.666  17.996  0.00  0.00    +0.000 A 
ATOM      9  C   UNL     1       3.481   6.450  18.705  0.00  0.00    +0.000 A 
ATOM     10  N   UNL     1       4.241   5.284  18.564  0.00  0.00    +0.000 N 
ENDROOT
BRANCH  10  11
ATOM     11  C   UNL     1       5.243   5.066  17.603  0.00  0.00    +0.000 A 
ATOM     12  C   UNL     1       6.562   4.724  17.797  0.00  0.00    +0.000 A 
ATOM     13  C   UNL     1       7.238   4.528  16.550  0.00  0.00    +0.000 A 
ATOM     14  C   UNL     1       6.417   4.756  15.460  0.00  0.00    +0.000 A 
ATOM     15  S   UNL     1       4.886   5.321  15.966  0.00  0.00    +0.000 S 
BRANCH  14  16
ATOM     16  C   UNL     1       6.730   4.567  14.049  0.00  0.00    +0.000 C 
ATOM     17  O   UNL     1       7.588   5.225  13.465  0.00  0.00    +0.000 OA
ATOM     18  N   UNL     1       6.007   3.569  13.422  0.00  0.00    +0.000 N 
ATOM     19  H   UNL     1       5.318   3.074  13.974  0.00  0.00    +0.000 HD
BRANCH  18  20
ATOM     20  C   UNL     1       6.164   3.216  12.051  0.00  0.00    +0.000 C 
ATOM     21  C   UNL     1       6.017   1.782  11.616  0.00  0.00    +0.000 C 
ATOM     22  C   UNL     1       4.970   2.790  11.244  0.00  0.00    +0.000 C 
ENDBRANCH  18  20
ENDBRANCH  14  16
ENDBRANCH  10  11
BRANCH   1  24
ATOM     23  C   UNL     1       3.864   1.935  19.065  0.00  0.00    +0.000 C 
ATOM     24  C   UNL     1       4.419   3.083  19.892  0.00  0.00    +0.000 C 
ENDBRANCH   1  24
TORSDOF 4
ENDMDL
MODEL 6
REMARK VINA RESULT:      -7.2      4.300      8.280
REMARK  Name = 
REMARK  5 active torsions:
REMARK  status: ('A' for Active; 'I' for Inactive)
REMARK    1  A    between atoms: C_1  and  C_2
REMARK    2  A    between atoms: C_2  and  C_3
REMARK    3  A    between atoms: N_12  and  C_13
REMARK    4  A    between atoms: C_16  and  C_17
REMARK    5  A    between atoms: N_19  and  C_20
REMARK                            x       y       z     vdW  Elec       q    Type
REMARK                         _______ _______ _______ _____ _____    ______ ____
ROOT
ATOM      1  C   UNL     1       2.514   4.500  17.848  0.00  0.00    +0.000 A 
ATOM      2  N   UNL     1       3.348   3.640  17.297  0.00  0.00    +0.000 NA
ATOM      3  C   UNL     1       4.425   4.367  16.883  0.00  0.00    +0.000 A 
ATOM      4  C   UNL     1       5.593   3.915  16.251  0.00  0.00    +0.000 A 
ATOM      5  C   UNL     1       6.577   4.847  15.937  0.00  0.00    +0.000 A 
ATOM      6  F   UNL     1       7.707   4.433  15.350  0.00  0.00    +0.000 F 
ATOM      7  C   UNL     1       6.429   6.195  16.241  0.00  0.00    +0.000 A 
ATOM      8  C   UNL     1       5.272   6.659  16.877  0.00  0.00    +0.000 A 
ATOM      9  C   UNL     1       4.267   5.720  17.180  0.00  0.00    +0.000 A 
ATOM     10  N   UNL     1       3.044   5.803  17.855  0.00  0.00    +0.000 N 
ENDROOT
BRANCH  10  11
ATOM     11  C   UNL     1       2.486   6.969  18.407  0.00  0.00    +0.000 A 
ATOM     12  C   UNL     1       2.119   8.132  17.769  0.00  0.00    +0.000 A 
ATOM     13  C   UNL     1       1.524   9.060  18.682  0.00  0.00    +0.000 A 
ATOM     14  C   UNL     1       1.487   8.581  19.979  0.00  0.00    +0.000 A 
ATOM     15  S   UNL     1       2.285   7.073  20.086  0.00  0.00    +0.000 S 
BRANCH  14  16
ATOM     16  C   UNL     1       0.878   9.203  21.147  0.00  0.00    +0.000 C 
ATOM     17  O   UNL     1       1.005   8.751  22.283  0.00  0.00    +0.000 OA
ATOM     18  N   UNL     1       0.168  10.360  20.886  0.00  0.00    +0.000 N 
ATOM     19  H   UNL     1       0.111  10.666  19.923  0.00  0.00    +0.000 HD
BRANCH  18  20
ATOM     20  C   UNL     1      -0.495  11.129  21.885  0.00  0.00    +0.000 C 
ATOM     21  C   UNL     1      -0.333  12.625  21.924  0.00  0.00    +0.000 C 
ATOM     22  C   UNL     1      -1.642  12.023  21.507  0.00  0.00    +0.000 C 
ENDBRANCH  18  20
ENDBRANCH  14  16
ENDBRANCH  10  11
BRANCH   1  24
ATOM     23  C   UNL     1       1.160   3.434  19.702  0.00  0.00    +0.000 C 
ATOM     24  C   UNL     1       1.148   4.130  18.350  0.00  0.00    +0.000 C 
ENDBRANCH   1  24
TORSDOF 4
ENDMDL
MODEL 7
REMARK VINA RESULT:      -7.2      4.365      8.223
REMARK  Name = 
REMARK  5 active torsions:
REMARK  status: ('A' for Active; 'I' for Inactive)
REMARK    1  A    between atoms: C_1  and  C_2
REMARK    2  A    between atoms: C_2  and  C_3
REMARK    3  A    between atoms: N_12  and  C_13
REMARK    4  A    between atoms: C_16  and  C_17
REMARK    5  A    between atoms: N_19  and  C_20
REMARK                            x       y       z     vdW  Elec       q    Type
REMARK                         _______ _______ _______ _____ _____    ______ ____
ROOT
ATOM      1  C   UNL     1       2.806   5.266  19.667  0.00  0.00    +0.000 A 
ATOM      2  N   UNL     1       3.745   4.340  19.654  0.00  0.00    +0.000 NA
ATOM      3  C   UNL     1       4.724   4.804  18.825  0.00  0.00    +0.000 A 
ATOM      4  C   UNL     1       5.943   4.197  18.489  0.00  0.00    +0.000 A 
ATOM      5  C   UNL     1       6.803   4.873  17.630  0.00  0.00    +0.000 A 
ATOM      6  F   UNL     1       7.979   4.318  17.311  0.00  0.00    +0.000 F 
ATOM      7  C   UNL     1       6.484   6.124  17.116  0.00  0.00    +0.000 A 
ATOM      8  C   UNL     1       5.275   6.744  17.447  0.00  0.00    +0.000 A 
ATOM      9  C   UNL     1       4.395   6.053  18.302  0.00  0.00    +0.000 A 
ATOM     10  N   UNL     1       3.168   6.381  18.889  0.00  0.00    +0.000 N 
ENDROOT
BRANCH  10  11
ATOM     11  C   UNL     1       2.464   7.584  18.708  0.00  0.00    +0.000 A 
ATOM     12  C   UNL     1       2.292   8.315  17.555  0.00  0.00    +0.000 A 
ATOM     13  C   UNL     1       1.449   9.451  17.780  0.00  0.00    +0.000 A 
ATOM     14  C   UNL     1       1.037   9.554  19.096  0.00  0.00    +0.000 A 
ATOM     15  S   UNL     1       1.778   8.349  20.056  0.00  0.00    +0.000 S 
BRANCH  14  16
ATOM     16  C   UNL     1       0.108  10.518  19.670  0.00  0.00    +0.000 C 
ATOM     17  O   UNL     1      -0.286  11.509  19.057  0.00  0.00    +0.000 OA
ATOM     18  N   UNL     1      -0.323  10.221  20.950  0.00  0.00    +0.000 N 
ATOM     19  H   UNL     1       0.049   9.386  21.385  0.00  0.00    +0.000 HD
BRANCH  18  20
ATOM     20  C   UNL     1      -1.238  11.024  21.688  0.00  0.00    +0.000 C 
ATOM     21  C   UNL     1      -1.259  10.964  23.192  0.00  0.00    +0.000 C 
ATOM     22  C   UNL     1      -0.734  12.185  22.498  0.00  0.00    +0.000 C 
ENDBRANCH  18  20
ENDBRANCH  14  16
ENDBRANCH  10  11
BRANCH   1  24
ATOM     23  C   UNL     1       0.958   3.690  20.382  0.00  0.00    +0.000 C 
ATOM     24  C   UNL     1       1.494   5.112  20.384  0.00  0.00    +0.000 C 
ENDBRANCH   1  24
TORSDOF 4
ENDMDL
MODEL 8
REMARK VINA RESULT:      -7.2      4.064      8.065
REMARK  Name = 
REMARK  5 active torsions:
REMARK  status: ('A' for Active; 'I' for Inactive)
REMARK    1  A    between atoms: C_1  and  C_2
REMARK    2  A    between atoms: C_2  and  C_3
REMARK    3  A    between atoms: N_12  and  C_13
REMARK    4  A    between atoms: C_16  and  C_17
REMARK    5  A    between atoms: N_19  and  C_20
REMARK                            x       y       z     vdW  Elec       q    Type
REMARK                         _______ _______ _______ _____ _____    ______ ____
ROOT
ATOM      1  C   UNL     1       2.528   4.232  17.790  0.00  0.00    +0.000 A 
ATOM      2  N   UNL     1       3.370   3.504  17.085  0.00  0.00    +0.000 NA
ATOM      3  C   UNL     1       4.436   4.311  16.813  0.00  0.00    +0.000 A 
ATOM      4  C   UNL     1       5.606   4.003  16.104  0.00  0.00    +0.000 A 
ATOM      5  C   UNL     1       6.576   4.991  15.970  0.00  0.00    +0.000 A 
ATOM      6  F   UNL     1       7.709   4.711  15.312  0.00  0.00    +0.000 F 
ATOM      7  C   UNL     1       6.412   6.254  16.525  0.00  0.00    +0.000 A 
ATOM      8  C   UNL     1       5.253   6.573  17.239  0.00  0.00    +0.000 A 
ATOM      9  C   UNL     1       4.261   5.580  17.362  0.00  0.00    +0.000 A 
ATOM     10  N   UNL     1       3.041   5.517  18.043  0.00  0.00    +0.000 N 
ENDROOT
BRANCH  10  11
ATOM     11  C   UNL     1       2.470   6.550  18.807  0.00  0.00    +0.000 A 
ATOM     12  C   UNL     1       2.194   6.570  20.155  0.00  0.00    +0.000 A 
ATOM     13  C   UNL     1       1.673   7.841  20.560  0.00  0.00    +0.000 A 
ATOM     14  C   UNL     1       1.548   8.725  19.504  0.00  0.00    +0.000 A 
ATOM     15  S   UNL     1       1.944   7.960  18.028  0.00  0.00    +0.000 S 
BRANCH  14  16
ATOM     16  C   UNL     1       1.145  10.124  19.551  0.00  0.00    +0.000 C 
ATOM     17  O   UNL     1       1.244  10.877  18.584  0.00  0.00    +0.000 OA
ATOM     18  N   UNL     1       0.613  10.537  20.758  0.00  0.00    +0.000 N 
ATOM     19  H   UNL     1       0.566   9.855  21.505  0.00  0.00    +0.000 HD
BRANCH  18  20
ATOM     20  C   UNL     1       0.148  11.859  21.012  0.00  0.00    +0.000 C 
ATOM     21  C   UNL     1      -1.318  12.181  20.907  0.00  0.00    +0.000 C 
ATOM     22  C   UNL     1      -0.652  12.149  22.250  0.00  0.00    +0.000 C 
ENDBRANCH  18  20
ENDBRANCH  14  16
ENDBRANCH  10  11
BRANCH   1  24
ATOM     23  C   UNL     1       1.157   3.077  19.577  0.00  0.00    +0.000 C 
ATOM     24  C   UNL     1       1.169   3.754  18.217  0.00  0.00    +0.000 C 
ENDBRANCH   1  24
TORSDOF 4
ENDMDL
MODEL 9
REMARK VINA RESULT:      -7.1      4.052      7.759
REMARK  Name = 
REMARK  5 active torsions:
REMARK  status: ('A' for Active; 'I' for Inactive)
REMARK    1  A    between atoms: C_1  and  C_2
REMARK    2  A    between atoms: C_2  and  C_3
REMARK    3  A    between atoms: N_12  and  C_13
REMARK    4  A    between atoms: C_16  and  C_17
REMARK    5  A    between atoms: N_19  and  C_20
REMARK                            x       y       z     vdW  Elec       q    Type
REMARK                         _______ _______ _______ _____ _____    ______ ____
ROOT
ATOM      1  C   UNL     1       2.524   4.234  17.876  0.00  0.00    +0.000 A 
ATOM      2  N   UNL     1       3.382   3.534  17.160  0.00  0.00    +0.000 NA
ATOM      3  C   UNL     1       4.422   4.373  16.887  0.00  0.00    +0.000 A 
ATOM      4  C   UNL     1       5.596   4.103  16.168  0.00  0.00    +0.000 A 
ATOM      5  C   UNL     1       6.537   5.118  16.035  0.00  0.00    +0.000 A 
ATOM      6  F   UNL     1       7.673   4.875  15.367  0.00  0.00    +0.000 F 
ATOM      7  C   UNL     1       6.341   6.372  16.599  0.00  0.00    +0.000 A 
ATOM      8  C   UNL     1       5.179   6.654  17.324  0.00  0.00    +0.000 A 
ATOM      9  C   UNL     1       4.216   5.633  17.446  0.00  0.00    +0.000 A 
ATOM     10  N   UNL     1       3.003   5.531  18.135  0.00  0.00    +0.000 N 
ENDROOT
BRANCH  10  11
ATOM     11  C   UNL     1       2.409   6.542  18.910  0.00  0.00    +0.000 A 
ATOM     12  C   UNL     1       2.185   6.564  20.268  0.00  0.00    +0.000 A 
ATOM     13  C   UNL     1       1.614   7.811  20.680  0.00  0.00    +0.000 A 
ATOM     14  C   UNL     1       1.402   8.674  19.621  0.00  0.00    +0.000 A 
ATOM     15  S   UNL     1       1.780   7.913  18.138  0.00  0.00    +0.000 S 
BRANCH  14  16
ATOM     16  C   UNL     1       0.928  10.051  19.669  0.00  0.00    +0.000 C 
ATOM     17  O   UNL     1       1.292  10.850  20.530  0.00  0.00    +0.000 OA
ATOM     18  N   UNL     1       0.057  10.402  18.654  0.00  0.00    +0.000 N 
ATOM     19  H   UNL     1      -0.193   9.686  17.985  0.00  0.00    +0.000 HD
BRANCH  18  20
ATOM     20  C   UNL     1      -0.515  11.699  18.511  0.00  0.00    +0.000 C 
ATOM     21  C   UNL     1      -1.851  11.869  17.838  0.00  0.00    +0.000 C 
ATOM     22  C   UNL     1      -1.723  12.080  19.318  0.00  0.00    +0.000 C 
ENDBRANCH  18  20
ENDBRANCH  14  16
ENDBRANCH  10  11
BRANCH   1  24
ATOM     23  C   UNL     1       1.227   2.884  19.580  0.00  0.00    +0.000 C 
ATOM     24  C   UNL     1       1.182   3.715  18.308  0.00  0.00    +0.000 C 
ENDBRANCH   1  24
TORSDOF 4
ENDMDL
