MODEL 1
REMARK VINA RESULT:      -8.2      0.000      0.000
REMARK  Name = 
REMARK  6 active torsions:
REMARK  status: ('A' for Active; 'I' for Inactive)
REMARK    1  A    between atoms: C_2  and  C_3
REMARK    2  A    between atoms: C_3  and  C_4
REMARK    3  A    between atoms: C_4  and  C_5
REMARK    4  A    between atoms: C_5  and  O_6
REMARK    5  A    between atoms: O_6  and  C_7
REMARK    6  A    between atoms: N_21  and  C_22
REMARK                            x       y       z     vdW  Elec       q    Type
REMARK                         _______ _______ _______ _____ _____    ______ ____
ROOT
ATOM      1  O   UNL     1       1.628   5.642  20.660  0.00  0.00    +0.000 OA
ATOM      2  C   UNL     1       2.002   6.134  19.596  0.00  0.00    +0.000 C 
ATOM      3  N   UNL     1       2.041   7.502  19.405  0.00  0.00    +0.000 N 
ATOM      4  C   UNL     1       2.534   8.215  18.215  0.00  0.00    +0.000 C 
ATOM      5  C   UNL     1       1.485   9.218  17.695  0.00  0.00    +0.000 C 
ATOM      6  N   UNL     1       0.997  10.092  18.775  0.00  0.00    +0.000 N 
ATOM      7  C   UNL     1       0.525   9.391  19.986  0.00  0.00    +0.000 C 
ATOM      8  C   UNL     1       1.588   8.391  20.483  0.00  0.00    +0.000 C 
ENDROOT
BRANCH   6   9
ATOM      9  C   UNL     1       1.175  11.465  18.771  0.00  0.00    +0.000 A 
ATOM     10  C   UNL     1       2.347  12.027  18.233  0.00  0.00    +0.000 A 
ATOM     11  C   UNL     1       2.578  13.408  18.222  0.00  0.00    +0.000 A 
ATOM     12  C   UNL     1       1.636  14.277  18.757  0.00  0.00    +0.000 A 
ATOM     13  C   UNL     1       0.466  13.760  19.302  0.00  0.00    +0.000 A 
ATOM     14  C   UNL     1       0.245  12.379  19.306  0.00  0.00    +0.000 A 
ATOM     15  F   UNL     1      -0.925  11.949  19.805  0.00  0.00    +0.000 F 
ENDBRANCH   6   9
BRANCH   2  16
ATOM     16  C   UNL     1       2.413   5.253  18.424  0.00  0.00    +0.000 C 
BRANCH  16  17
ATOM     17  C   UNL     1       3.175   3.990  18.843  0.00  0.00    +0.000 C 
BRANCH  17  18
ATOM     18  C   UNL     1       4.425   4.289  19.671  0.00  0.00    +0.000 C 
BRANCH  18  19
ATOM     19  O   UNL     1       5.577   3.821  18.960  0.00  0.00    +0.000 OA
BRANCH  19  20
ATOM     20  C   UNL     1       6.306   4.762  18.258  0.00  0.00    +0.000 A 
ATOM     21  C   UNL     1       6.987   5.791  18.779  0.00  0.00    +0.000 A 
ATOM     22  C   UNL     1       7.740   6.752  17.962  0.00  0.00    +0.000 A 
ATOM     23  O   UNL     1       8.371   7.658  18.495  0.00  0.00    +0.000 OA
ATOM     24  O   UNL     1       7.704   6.586  16.590  0.00  0.00    +0.000 OA
ATOM     25  C   UNL     1       7.000   5.514  16.014  0.00  0.00    +0.000 A 
ATOM     26  C   UNL     1       7.039   5.423  14.622  0.00  0.00    +0.000 A 
ATOM     27  C   UNL     1       6.370   4.379  13.989  0.00  0.00    +0.000 A 
ATOM     28  C   UNL     1       5.671   3.443  14.751  0.00  0.00    +0.000 A 
ATOM     29  C   UNL     1       5.636   3.550  16.147  0.00  0.00    +0.000 A 
ATOM     30  C   UNL     1       6.307   4.592  16.800  0.00  0.00    +0.000 A 
ENDBRANCH  19  20
ENDBRANCH  18  19
ENDBRANCH  17  18
ENDBRANCH  16  17
ENDBRANCH   2  16
TORSDOF 6
ENDMDL
MODEL 2
REMARK VINA RESULT:      -8.1      5.075      8.557
REMARK  Name = 
REMARK  6 active torsions:
REMARK  status: ('A' for Active; 'I' for Inactive)
REMARK    1  A    between atoms: C_2  and  C_3
REMARK    2  A    between atoms: C_3  and  C_4
REMARK    3  A    between atoms: C_4  and  C_5
REMARK    4  A    between atoms: C_5  and  O_6
REMARK    5  A    between atoms: O_6  and  C_7
REMARK    6  A    between atoms: N_21  and  C_22
REMARK                            x       y       z     vdW  Elec       q    Type
REMARK                         _______ _______ _______ _____ _____    ______ ____
ROOT
ATOM      1  O   UNL     1       8.450   6.239  18.860  0.00  0.00    +0.000 OA
ATOM      2  C   UNL     1       7.463   6.645  18.247  0.00  0.00    +0.000 C 
ATOM      3  N   UNL     1       6.201   6.140  18.493  0.00  0.00    +0.000 N 
ATOM      4  C   UNL     1       4.936   6.587  17.886  0.00  0.00    +0.000 C 
ATOM      5  C   UNL     1       4.160   5.401  17.282  0.00  0.00    +0.000 C 
ATOM      6  N   UNL     1       4.020   4.303  18.254  0.00  0.00    +0.000 N 
ATOM      7  C   UNL     1       5.277   3.862  18.891  0.00  0.00    +0.000 C 
ATOM      8  C   UNL     1       6.036   5.066  19.481  0.00  0.00    +0.000 C 
ENDROOT
BRANCH   6   9
ATOM      9  C   UNL     1       2.792   3.862  18.721  0.00  0.00    +0.000 A 
ATOM     10  C   UNL     1       2.173   4.510  19.806  0.00  0.00    +0.000 A 
ATOM     11  C   UNL     1       0.941   4.090  20.324  0.00  0.00    +0.000 A 
ATOM     12  C   UNL     1       0.286   2.999  19.768  0.00  0.00    +0.000 A 
ATOM     13  C   UNL     1       0.868   2.330  18.696  0.00  0.00    +0.000 A 
ATOM     14  C   UNL     1       2.098   2.759  18.187  0.00  0.00    +0.000 A 
ATOM     15  F   UNL     1       2.582   2.099  17.122  0.00  0.00    +0.000 F 
ENDBRANCH   6   9
BRANCH   2  16
ATOM     16  C   UNL     1       7.593   7.706  17.163  0.00  0.00    +0.000 C 
BRANCH  16  17
ATOM     17  C   UNL     1       7.757   9.128  17.710  0.00  0.00    +0.000 C 
BRANCH  17  18
ATOM     18  C   UNL     1       9.012   9.302  18.566  0.00  0.00    +0.000 C 
BRANCH  18  19
ATOM     19  O   UNL     1       8.854  10.461  19.393  0.00  0.00    +0.000 OA
BRANCH  19  20
ATOM     20  C   UNL     1       9.654  11.551  19.104  0.00  0.00    +0.000 A 
ATOM     21  C   UNL     1      10.378  11.732  17.991  0.00  0.00    +0.000 A 
ATOM     22  C   UNL     1      11.207  12.923  17.758  0.00  0.00    +0.000 A 
ATOM     23  O   UNL     1      11.825  13.051  16.707  0.00  0.00    +0.000 OA
ATOM     24  O   UNL     1      11.251  13.873  18.761  0.00  0.00    +0.000 OA
ATOM     25  C   UNL     1      10.499  13.712  19.938  0.00  0.00    +0.000 A 
ATOM     26  C   UNL     1      10.598  14.735  20.882  0.00  0.00    +0.000 A 
ATOM     27  C   UNL     1       9.873  14.641  22.066  0.00  0.00    +0.000 A 
ATOM     28  C   UNL     1       9.060  13.529  22.293  0.00  0.00    +0.000 A 
ATOM     29  C   UNL     1       8.976  12.508  21.339  0.00  0.00    +0.000 A 
ATOM     30  C   UNL     1       9.697  12.589  20.141  0.00  0.00    +0.000 A 
ENDBRANCH  19  20
ENDBRANCH  18  19
ENDBRANCH  17  18
ENDBRANCH  16  17
ENDBRANCH   2  16
TORSDOF 6
ENDMDL
MODEL 3
REMARK VINA RESULT:      -8.0      1.998      2.767
REMARK  Name = 
REMARK  6 active torsions:
REMARK  status: ('A' for Active; 'I' for Inactive)
REMARK    1  A    between atoms: C_2  and  C_3
REMARK    2  A    between atoms: C_3  and  C_4
REMARK    3  A    between atoms: C_4  and  C_5
REMARK    4  A    between atoms: C_5  and  O_6
REMARK    5  A    between atoms: O_6  and  C_7
REMARK    6  A    between atoms: N_21  and  C_22
REMARK                            x       y       z     vdW  Elec       q    Type
REMARK                         _______ _______ _______ _____ _____    ______ ____
ROOT
ATOM      1  O   UNL     1       2.609   8.529  17.386  0.00  0.00    +0.000 OA
ATOM      2  C   UNL     1       2.148   8.300  18.504  0.00  0.00    +0.000 C 
ATOM      3  N   UNL     1       1.289   9.185  19.127  0.00  0.00    +0.000 N 
ATOM      4  C   UNL     1       0.615   8.998  20.422  0.00  0.00    +0.000 C 
ATOM      5  C   UNL     1       0.864  10.199  21.356  0.00  0.00    +0.000 C 
ATOM      6  N   UNL     1       0.558  11.473  20.683  0.00  0.00    +0.000 N 
ATOM      7  C   UNL     1       1.206  11.662  19.370  0.00  0.00    +0.000 C 
ATOM      8  C   UNL     1       0.947  10.446  18.458  0.00  0.00    +0.000 C 
ENDROOT
BRANCH   6   9
ATOM      9  C   UNL     1      -0.436  12.334  21.117  0.00  0.00    +0.000 A 
ATOM     10  C   UNL     1      -0.156  13.301  22.100  0.00  0.00    +0.000 A 
ATOM     11  C   UNL     1      -1.132  14.183  22.582  0.00  0.00    +0.000 A 
ATOM     12  C   UNL     1      -2.430  14.121  22.092  0.00  0.00    +0.000 A 
ATOM     13  C   UNL     1      -2.747  13.176  21.122  0.00  0.00    +0.000 A 
ATOM     14  C   UNL     1      -1.764  12.302  20.647  0.00  0.00    +0.000 A 
ATOM     15  F   UNL     1      -2.124  11.446  19.677  0.00  0.00    +0.000 F 
ENDBRANCH   6   9
BRANCH   2  16
ATOM     16  C   UNL     1       2.530   7.040  19.268  0.00  0.00    +0.000 C 
BRANCH  16  17
ATOM     17  C   UNL     1       2.070   5.745  18.588  0.00  0.00    +0.000 C 
BRANCH  17  18
ATOM     18  C   UNL     1       2.706   4.492  19.189  0.00  0.00    +0.000 C 
BRANCH  18  19
ATOM     19  O   UNL     1       3.598   3.916  18.227  0.00  0.00    +0.000 OA
BRANCH  19  20
ATOM     20  C   UNL     1       4.896   4.392  18.213  0.00  0.00    +0.000 A 
ATOM     21  C   UNL     1       5.615   4.771  19.278  0.00  0.00    +0.000 A 
ATOM     22  C   UNL     1       6.994   5.267  19.180  0.00  0.00    +0.000 A 
ATOM     23  O   UNL     1       7.617   5.571  20.191  0.00  0.00    +0.000 OA
ATOM     24  O   UNL     1       7.545   5.370  17.916  0.00  0.00    +0.000 OA
ATOM     25  C   UNL     1       6.816   4.977  16.780  0.00  0.00    +0.000 A 
ATOM     26  C   UNL     1       7.466   5.102  15.552  0.00  0.00    +0.000 A 
ATOM     27  C   UNL     1       6.802   4.723  14.388  0.00  0.00    +0.000 A 
ATOM     28  C   UNL     1       5.501   4.225  14.465  0.00  0.00    +0.000 A 
ATOM     29  C   UNL     1       4.860   4.110  15.705  0.00  0.00    +0.000 A 
ATOM     30  C   UNL     1       5.514   4.484  16.885  0.00  0.00    +0.000 A 
ENDBRANCH  19  20
ENDBRANCH  18  19
ENDBRANCH  17  18
ENDBRANCH  16  17
ENDBRANCH   2  16
TORSDOF 6
ENDMDL
MODEL 4
REMARK VINA RESULT:      -8.0      3.325      5.274
REMARK  Name = 
REMARK  6 active torsions:
REMARK  status: ('A' for Active; 'I' for Inactive)
REMARK    1  A    between atoms: C_2  and  C_3
REMARK    2  A    between atoms: C_3  and  C_4
REMARK    3  A    between atoms: C_4  and  C_5
REMARK    4  A    between atoms: C_5  and  O_6
REMARK    5  A    between atoms: O_6  and  C_7
REMARK    6  A    between atoms: N_21  and  C_22
REMARK                            x       y       z     vdW  Elec       q    Type
REMARK                         _______ _______ _______ _____ _____    ______ ____
ROOT
ATOM      1  O   UNL     1       1.270   8.373  20.768  0.00  0.00    +0.000 OA
ATOM      2  C   UNL     1       0.971   9.443  20.240  0.00  0.00    +0.000 C 
ATOM      3  N   UNL     1       0.455  10.493  20.975  0.00  0.00    +0.000 N 
ATOM      4  C   UNL     1       0.127  11.841  20.481  0.00  0.00    +0.000 C 
ATOM      5  C   UNL     1      -1.316  12.232  20.854  0.00  0.00    +0.000 C 
ATOM      6  N   UNL     1      -1.575  12.025  22.289  0.00  0.00    +0.000 N 
ATOM      7  C   UNL     1      -1.225  10.686  22.804  0.00  0.00    +0.000 C 
ATOM      8  C   UNL     1       0.220  10.315  22.414  0.00  0.00    +0.000 C 
ENDROOT
BRANCH   6   9
ATOM      9  C   UNL     1      -1.898  13.058  23.153  0.00  0.00    +0.000 A 
ATOM     10  C   UNL     1      -0.969  14.082  23.413  0.00  0.00    +0.000 A 
ATOM     11  C   UNL     1      -1.245  15.137  24.291  0.00  0.00    +0.000 A 
ATOM     12  C   UNL     1      -2.469  15.199  24.945  0.00  0.00    +0.000 A 
ATOM     13  C   UNL     1      -3.412  14.202  24.718  0.00  0.00    +0.000 A 
ATOM     14  C   UNL     1      -3.127  13.154  23.837  0.00  0.00    +0.000 A 
ATOM     15  F   UNL     1      -4.098  12.251  23.626  0.00  0.00    +0.000 F 
ENDBRANCH   6   9
BRANCH   2  16
ATOM     16  C   UNL     1       1.130   9.651  18.740  0.00  0.00    +0.000 C 
BRANCH  16  17
ATOM     17  C   UNL     1       1.433   8.361  17.969  0.00  0.00    +0.000 C 
BRANCH  17  18
ATOM     18  C   UNL     1       2.930   8.098  17.805  0.00  0.00    +0.000 C 
BRANCH  18  19
ATOM     19  O   UNL     1       3.321   7.056  18.707  0.00  0.00    +0.000 OA
BRANCH  19  20
ATOM     20  C   UNL     1       3.509   5.797  18.168  0.00  0.00    +0.000 A 
ATOM     21  C   UNL     1       4.365   5.471  17.190  0.00  0.00    +0.000 A 
ATOM     22  C   UNL     1       4.506   4.105  16.670  0.00  0.00    +0.000 A 
ATOM     23  O   UNL     1       5.328   3.857  15.794  0.00  0.00    +0.000 OA
ATOM     24  O   UNL     1       3.685   3.131  17.207  0.00  0.00    +0.000 OA
ATOM     25  C   UNL     1       2.779   3.442  18.236  0.00  0.00    +0.000 A 
ATOM     26  C   UNL     1       2.007   2.387  18.723  0.00  0.00    +0.000 A 
ATOM     27  C   UNL     1       1.097   2.626  19.749  0.00  0.00    +0.000 A 
ATOM     28  C   UNL     1       0.967   3.913  20.273  0.00  0.00    +0.000 A 
ATOM     29  C   UNL     1       1.745   4.963  19.770  0.00  0.00    +0.000 A 
ATOM     30  C   UNL     1       2.668   4.739  18.740  0.00  0.00    +0.000 A 
ENDBRANCH  19  20
ENDBRANCH  18  19
ENDBRANCH  17  18
ENDBRANCH  16  17
ENDBRANCH   2  16
TORSDOF 6
ENDMDL
MODEL 5
REMARK VINA RESULT:      -7.8      3.227      4.663
REMARK  Name = 
REMARK  6 active torsions:
REMARK  status: ('A' for Active; 'I' for Inactive)
REMARK    1  A    between atoms: C_2  and  C_3
REMARK    2  A    between atoms: C_3  and  C_4
REMARK    3  A    between atoms: C_4  and  C_5
REMARK    4  A    between atoms: C_5  and  O_6
REMARK    5  A    between atoms: O_6  and  C_7
REMARK    6  A    between atoms: N_21  and  C_22
REMARK                            x       y       z     vdW  Elec       q    Type
REMARK                         _______ _______ _______ _____ _____    ______ ____
ROOT
ATOM      1  O   UNL     1       1.234   7.927  21.379  0.00  0.00    +0.000 OA
ATOM      2  C   UNL     1       1.070   8.975  20.754  0.00  0.00    +0.000 C 
ATOM      3  N   UNL     1       0.572  10.110  21.364  0.00  0.00    +0.000 N 
ATOM      4  C   UNL     1       0.398  11.437  20.751  0.00  0.00    +0.000 C 
ATOM      5  C   UNL     1      -1.039  11.958  20.952  0.00  0.00    +0.000 C 
ATOM      6  N   UNL     1      -1.445  11.876  22.366  0.00  0.00    +0.000 N 
ATOM      7  C   UNL     1      -1.251  10.557  23.001  0.00  0.00    +0.000 C 
ATOM      8  C   UNL     1       0.190  10.057  22.781  0.00  0.00    +0.000 C 
ENDROOT
BRANCH   6   9
ATOM      9  C   UNL     1      -1.766  12.990  23.123  0.00  0.00    +0.000 A 
ATOM     10  C   UNL     1      -0.862  14.064  23.223  0.00  0.00    +0.000 A 
ATOM     11  C   UNL     1      -1.135  15.204  23.990  0.00  0.00    +0.000 A 
ATOM     12  C   UNL     1      -2.331  15.303  24.689  0.00  0.00    +0.000 A 
ATOM     13  C   UNL     1      -3.248  14.261  24.619  0.00  0.00    +0.000 A 
ATOM     14  C   UNL     1      -2.966  13.129  23.849  0.00  0.00    +0.000 A 
ATOM     15  F   UNL     1      -3.914  12.180  23.786  0.00  0.00    +0.000 F 
ENDBRANCH   6   9
BRANCH   2  16
ATOM     16  C   UNL     1       1.384   9.059  19.267  0.00  0.00    +0.000 C 
BRANCH  16  17
ATOM     17  C   UNL     1       1.957   7.762  18.685  0.00  0.00    +0.000 C 
BRANCH  17  18
ATOM     18  C   UNL     1       3.162   7.994  17.773  0.00  0.00    +0.000 C 
BRANCH  18  19
ATOM     19  O   UNL     1       3.518   6.755  17.148  0.00  0.00    +0.000 OA
BRANCH  19  20
ATOM     20  C   UNL     1       4.266   5.866  17.897  0.00  0.00    +0.000 A 
ATOM     21  C   UNL     1       5.502   6.072  18.373  0.00  0.00    +0.000 A 
ATOM     22  C   UNL     1       6.233   5.074  19.164  0.00  0.00    +0.000 A 
ATOM     23  O   UNL     1       7.351   5.328  19.601  0.00  0.00    +0.000 OA
ATOM     24  O   UNL     1       5.612   3.860  19.389  0.00  0.00    +0.000 OA
ATOM     25  C   UNL     1       4.314   3.616  18.904  0.00  0.00    +0.000 A 
ATOM     26  C   UNL     1       3.767   2.367  19.200  0.00  0.00    +0.000 A 
ATOM     27  C   UNL     1       2.483   2.065  18.757  0.00  0.00    +0.000 A 
ATOM     28  C   UNL     1       1.763   3.011  18.026  0.00  0.00    +0.000 A 
ATOM     29  C   UNL     1       2.327   4.258  17.732  0.00  0.00    +0.000 A 
ATOM     30  C   UNL     1       3.617   4.579  18.174  0.00  0.00    +0.000 A 
ENDBRANCH  19  20
ENDBRANCH  18  19
ENDBRANCH  17  18
ENDBRANCH  16  17
ENDBRANCH   2  16
TORSDOF 6
ENDMDL
MODEL 6
REMARK VINA RESULT:      -7.8      3.256      5.274
REMARK  Name = 
REMARK  6 active torsions:
REMARK  status: ('A' for Active; 'I' for Inactive)
REMARK    1  A    between atoms: C_2  and  C_3
REMARK    2  A    between atoms: C_3  and  C_4
REMARK    3  A    between atoms: C_4  and  C_5
REMARK    4  A    between atoms: C_5  and  O_6
REMARK    5  A    between atoms: O_6  and  C_7
REMARK    6  A    between atoms: N_21  and  C_22
REMARK                            x       y       z     vdW  Elec       q    Type
REMARK                         _______ _______ _______ _____ _____    ______ ____
ROOT
ATOM      1  O   UNL     1       1.349   8.523  20.639  0.00  0.00    +0.000 OA
ATOM      2  C   UNL     1       1.149   9.649  20.184  0.00  0.00    +0.000 C 
ATOM      3  N   UNL     1       0.591  10.651  20.953  0.00  0.00    +0.000 N 
ATOM      4  C   UNL     1       0.369  12.051  20.555  0.00  0.00    +0.000 C 
ATOM      5  C   UNL     1      -1.092  12.474  20.802  0.00  0.00    +0.000 C 
ATOM      6  N   UNL     1      -1.519  12.151  22.174  0.00  0.00    +0.000 N 
ATOM      7  C   UNL     1      -1.278  10.757  22.597  0.00  0.00    +0.000 C 
ATOM      8  C   UNL     1       0.187  10.357  22.334  0.00  0.00    +0.000 C 
ENDROOT
BRANCH   6   9
ATOM      9  C   UNL     1      -1.902  13.116  23.091  0.00  0.00    +0.000 A 
ATOM     10  C   UNL     1      -0.975  14.077  23.538  0.00  0.00    +0.000 A 
ATOM     11  C   UNL     1      -1.311  15.061  24.476  0.00  0.00    +0.000 A 
ATOM     12  C   UNL     1      -2.595  15.113  25.002  0.00  0.00    +0.000 A 
ATOM     13  C   UNL     1      -3.539  14.178  24.588  0.00  0.00    +0.000 A 
ATOM     14  C   UNL     1      -3.192  13.201  23.650  0.00  0.00    +0.000 A 
ATOM     15  F   UNL     1      -4.162  12.359  23.259  0.00  0.00    +0.000 F 
ENDBRANCH   6   9
BRANCH   2  16
ATOM     16  C   UNL     1       1.484   9.982  18.736  0.00  0.00    +0.000 C 
BRANCH  16  17
ATOM     17  C   UNL     1       1.473   8.763  17.806  0.00  0.00    +0.000 C 
BRANCH  17  18
ATOM     18  C   UNL     1       2.719   7.888  17.948  0.00  0.00    +0.000 C 
BRANCH  18  19
ATOM     19  O   UNL     1       2.315   6.517  18.042  0.00  0.00    +0.000 OA
BRANCH  19  20
ATOM     20  C   UNL     1       3.288   5.600  18.392  0.00  0.00    +0.000 A 
ATOM     21  C   UNL     1       4.540   5.549  17.917  0.00  0.00    +0.000 A 
ATOM     22  C   UNL     1       5.518   4.539  18.340  0.00  0.00    +0.000 A 
ATOM     23  O   UNL     1       6.661   4.557  17.895  0.00  0.00    +0.000 OA
ATOM     24  O   UNL     1       5.097   3.587  19.250  0.00  0.00    +0.000 OA
ATOM     25  C   UNL     1       3.790   3.616  19.769  0.00  0.00    +0.000 A 
ATOM     26  C   UNL     1       3.468   2.623  20.694  0.00  0.00    +0.000 A 
ATOM     27  C   UNL     1       2.193   2.601  21.253  0.00  0.00    +0.000 A 
ATOM     28  C   UNL     1       1.258   3.569  20.881  0.00  0.00    +0.000 A 
ATOM     29  C   UNL     1       1.595   4.556  19.947  0.00  0.00    +0.000 A 
ATOM     30  C   UNL     1       2.874   4.594  19.378  0.00  0.00    +0.000 A 
ENDBRANCH  19  20
ENDBRANCH  18  19
ENDBRANCH  17  18
ENDBRANCH  16  17
ENDBRANCH   2  16
TORSDOF 6
ENDMDL
MODEL 7
REMARK VINA RESULT:      -7.7      1.301      1.517
REMARK  Name = 
REMARK  6 active torsions:
REMARK  status: ('A' for Active; 'I' for Inactive)
REMARK    1  A    between atoms: C_2  and  C_3
REMARK    2  A    between atoms: C_3  and  C_4
REMARK    3  A    between atoms: C_4  and  C_5
REMARK    4  A    between atoms: C_5  and  O_6
REMARK    5  A    between atoms: O_6  and  C_7
REMARK    6  A    between atoms: N_21  and  C_22
REMARK                            x       y       z     vdW  Elec       q    Type
REMARK                         _______ _______ _______ _____ _____    ______ ____
ROOT
ATOM      1  O   UNL     1       1.862   6.012  20.592  0.00  0.00    +0.000 OA
ATOM      2  C   UNL     1       2.013   6.634  19.541  0.00  0.00    +0.000 C 
ATOM      3  N   UNL     1       1.868   8.007  19.486  0.00  0.00    +0.000 N 
ATOM      4  C   UNL     1       2.091   8.873  18.316  0.00  0.00    +0.000 C 
ATOM      5  C   UNL     1       0.870   9.775  18.053  0.00  0.00    +0.000 C 
ATOM      6  N   UNL     1       0.456  10.488  19.275  0.00  0.00    +0.000 N 
ATOM      7  C   UNL     1       0.255   9.634  20.463  0.00  0.00    +0.000 C 
ATOM      8  C   UNL     1       1.487   8.738  20.701  0.00  0.00    +0.000 C 
ENDROOT
BRANCH   6   9
ATOM      9  C   UNL     1       0.476  11.868  19.385  0.00  0.00    +0.000 A 
ATOM     10  C   UNL     1       1.421  12.500  20.213  0.00  0.00    +0.000 A 
ATOM     11  C   UNL     1       1.469  13.891  20.369  0.00  0.00    +0.000 A 
ATOM     12  C   UNL     1       0.561  14.699  19.696  0.00  0.00    +0.000 A 
ATOM     13  C   UNL     1      -0.391  14.112  18.870  0.00  0.00    +0.000 A 
ATOM     14  C   UNL     1      -0.428  12.722  18.721  0.00  0.00    +0.000 A 
ATOM     15  F   UNL     1      -1.341  12.222  17.873  0.00  0.00    +0.000 F 
ENDBRANCH   6   9
BRANCH   2  16
ATOM     16  C   UNL     1       2.337   5.912  18.240  0.00  0.00    +0.000 C 
BRANCH  16  17
ATOM     17  C   UNL     1       1.988   4.420  18.261  0.00  0.00    +0.000 C 
BRANCH  17  18
ATOM     18  C   UNL     1       2.675   3.625  17.151  0.00  0.00    +0.000 C 
BRANCH  18  19
ATOM     19  O   UNL     1       3.856   3.012  17.680  0.00  0.00    +0.000 OA
BRANCH  19  20
ATOM     20  C   UNL     1       4.980   3.807  17.793  0.00  0.00    +0.000 A 
ATOM     21  C   UNL     1       5.499   4.294  18.929  0.00  0.00    +0.000 A 
ATOM     22  C   UNL     1       6.702   5.136  18.965  0.00  0.00    +0.000 A 
ATOM     23  O   UNL     1       7.151   5.529  20.037  0.00  0.00    +0.000 OA
ATOM     24  O   UNL     1       7.292   5.455  17.757  0.00  0.00    +0.000 OA
ATOM     25  C   UNL     1       6.772   4.957  16.549  0.00  0.00    +0.000 A 
ATOM     26  C   UNL     1       7.450   5.322  15.385  0.00  0.00    +0.000 A 
ATOM     27  C   UNL     1       6.992   4.856  14.156  0.00  0.00    +0.000 A 
ATOM     28  C   UNL     1       5.865   4.034  14.105  0.00  0.00    +0.000 A 
ATOM     29  C   UNL     1       5.193   3.681  15.281  0.00  0.00    +0.000 A 
ATOM     30  C   UNL     1       5.643   4.139  16.525  0.00  0.00    +0.000 A 
ENDBRANCH  19  20
ENDBRANCH  18  19
ENDBRANCH  17  18
ENDBRANCH  16  17
ENDBRANCH   2  16
TORSDOF 6
ENDMDL
MODEL 8
REMARK VINA RESULT:      -7.7      3.465      5.109
REMARK  Name = 
REMARK  6 active torsions:
REMARK  status: ('A' for Active; 'I' for Inactive)
REMARK    1  A    between atoms: C_2  and  C_3
REMARK    2  A    between atoms: C_3  and  C_4
REMARK    3  A    between atoms: C_4  and  C_5
REMARK    4  A    between atoms: C_5  and  O_6
REMARK    5  A    between atoms: O_6  and  C_7
REMARK    6  A    between atoms: N_21  and  C_22
REMARK                            x       y       z     vdW  Elec       q    Type
REMARK                         _______ _______ _______ _____ _____    ______ ____
ROOT
ATOM      1  O   UNL     1       1.154   8.722  20.850  0.00  0.00    +0.000 OA
ATOM      2  C   UNL     1       0.689   9.711  20.283  0.00  0.00    +0.000 C 
ATOM      3  N   UNL     1       0.134  10.757  20.994  0.00  0.00    +0.000 N 
ATOM      4  C   UNL     1      -0.387  12.021  20.444  0.00  0.00    +0.000 C 
ATOM      5  C   UNL     1      -1.822  12.291  20.937  0.00  0.00    +0.000 C 
ATOM      6  N   UNL     1      -1.916  12.174  22.403  0.00  0.00    +0.000 N 
ATOM      7  C   UNL     1      -1.373  10.924  22.970  0.00  0.00    +0.000 C 
ATOM      8  C   UNL     1       0.059  10.673  22.458  0.00  0.00    +0.000 C 
ENDROOT
BRANCH   6   9
ATOM      9  C   UNL     1      -2.266  13.234  23.222  0.00  0.00    +0.000 A 
ATOM     10  C   UNL     1      -1.273  14.078  23.754  0.00  0.00    +0.000 A 
ATOM     11  C   UNL     1      -1.577  15.151  24.600  0.00  0.00    +0.000 A 
ATOM     12  C   UNL     1      -2.896  15.415  24.945  0.00  0.00    +0.000 A 
ATOM     13  C   UNL     1      -3.906  14.602  24.442  0.00  0.00    +0.000 A 
ATOM     14  C   UNL     1      -3.591  13.534  23.597  0.00  0.00    +0.000 A 
ATOM     15  F   UNL     1      -4.616  12.817  23.109  0.00  0.00    +0.000 F 
ENDBRANCH   6   9
BRANCH   2  16
ATOM     16  C   UNL     1       0.678   9.812  18.764  0.00  0.00    +0.000 C 
BRANCH  16  17
ATOM     17  C   UNL     1       2.062   9.650  18.126  0.00  0.00    +0.000 C 
BRANCH  17  18
ATOM     18  C   UNL     1       2.258   8.292  17.452  0.00  0.00    +0.000 C 
BRANCH  18  19
ATOM     19  O   UNL     1       2.995   7.437  18.333  0.00  0.00    +0.000 OA
BRANCH  19  20
ATOM     20  C   UNL     1       3.144   6.118  17.949  0.00  0.00    +0.000 A 
ATOM     21  C   UNL     1       2.220   5.153  18.046  0.00  0.00    +0.000 A 
ATOM     22  C   UNL     1       2.456   3.769  17.614  0.00  0.00    +0.000 A 
ATOM     23  O   UNL     1       1.563   2.933  17.698  0.00  0.00    +0.000 OA
ATOM     24  O   UNL     1       3.708   3.463  17.114  0.00  0.00    +0.000 OA
ATOM     25  C   UNL     1       4.698   4.456  16.998  0.00  0.00    +0.000 A 
ATOM     26  C   UNL     1       5.922   4.051  16.466  0.00  0.00    +0.000 A 
ATOM     27  C   UNL     1       6.942   4.986  16.315  0.00  0.00    +0.000 A 
ATOM     28  C   UNL     1       6.727   6.311  16.697  0.00  0.00    +0.000 A 
ATOM     29  C   UNL     1       5.494   6.701  17.234  0.00  0.00    +0.000 A 
ATOM     30  C   UNL     1       4.457   5.773  17.389  0.00  0.00    +0.000 A 
ENDBRANCH  19  20
ENDBRANCH  18  19
ENDBRANCH  17  18
ENDBRANCH  16  17
ENDBRANCH   2  16
TORSDOF 6
ENDMDL
MODEL 9
REMARK VINA RESULT:      -7.6      3.361      5.199
REMARK  Name = 
REMARK  6 active torsions:
REMARK  status: ('A' for Active; 'I' for Inactive)
REMARK    1  A    between atoms: C_2  and  C_3
REMARK    2  A    between atoms: C_3  and  C_4
REMARK    3  A    between atoms: C_4  and  C_5
REMARK    4  A    between atoms: C_5  and  O_6
REMARK    5  A    between atoms: O_6  and  C_7
REMARK    6  A    between atoms: N_21  and  C_22
REMARK                            x       y       z     vdW  Elec       q    Type
REMARK                         _______ _______ _______ _____ _____    ______ ____
ROOT
ATOM      1  O   UNL     1       1.021   8.493  20.853  0.00  0.00    +0.000 OA
ATOM      2  C   UNL     1       0.878   9.616  20.371  0.00  0.00    +0.000 C 
ATOM      3  N   UNL     1       0.402  10.671  21.126  0.00  0.00    +0.000 N 
ATOM      4  C   UNL     1       0.254  12.071  20.694  0.00  0.00    +0.000 C 
ATOM      5  C   UNL     1      -1.172  12.588  20.966  0.00  0.00    +0.000 C 
ATOM      6  N   UNL     1      -1.580  12.329  22.357  0.00  0.00    +0.000 N 
ATOM      7  C   UNL     1      -1.412  10.935  22.813  0.00  0.00    +0.000 C 
ATOM      8  C   UNL     1       0.020  10.440  22.525  0.00  0.00    +0.000 C 
ENDROOT
BRANCH   6   9
ATOM      9  C   UNL     1      -1.878  13.341  23.255  0.00  0.00    +0.000 A 
ATOM     10  C   UNL     1      -3.069  13.296  24.004  0.00  0.00    +0.000 A 
ATOM     11  C   UNL     1      -3.421  14.303  24.912  0.00  0.00    +0.000 A 
ATOM     12  C   UNL     1      -2.586  15.397  25.097  0.00  0.00    +0.000 A 
ATOM     13  C   UNL     1      -1.401  15.480  24.372  0.00  0.00    +0.000 A 
ATOM     14  C   UNL     1      -1.060  14.468  23.470  0.00  0.00    +0.000 A 
ATOM     15  F   UNL     1       0.119  14.585  22.838  0.00  0.00    +0.000 F 
ENDBRANCH   6   9
BRANCH   2  16
ATOM     16  C   UNL     1       1.192   9.889  18.907  0.00  0.00    +0.000 C 
BRANCH  16  17
ATOM     17  C   UNL     1       1.355   8.618  18.066  0.00  0.00    +0.000 C 
BRANCH  17  18
ATOM     18  C   UNL     1       2.816   8.264  17.787  0.00  0.00    +0.000 C 
BRANCH  18  19
ATOM     19  O   UNL     1       3.179   7.128  18.581  0.00  0.00    +0.000 OA
BRANCH  19  20
ATOM     20  C   UNL     1       3.592   5.996  17.905  0.00  0.00    +0.000 A 
ATOM     21  C   UNL     1       4.595   5.922  17.018  0.00  0.00    +0.000 A 
ATOM     22  C   UNL     1       4.974   4.676  16.339  0.00  0.00    +0.000 A 
ATOM     23  O   UNL     1       5.920   4.659  15.559  0.00  0.00    +0.000 OA
ATOM     24  O   UNL     1       4.228   3.547  16.617  0.00  0.00    +0.000 OA
ATOM     25  C   UNL     1       3.172   3.593  17.545  0.00  0.00    +0.000 A 
ATOM     26  C   UNL     1       2.492   2.396  17.770  0.00  0.00    +0.000 A 
ATOM     27  C   UNL     1       1.441   2.372  18.684  0.00  0.00    +0.000 A 
ATOM     28  C   UNL     1       1.083   3.540  19.358  0.00  0.00    +0.000 A 
ATOM     29  C   UNL     1       1.772   4.735  19.117  0.00  0.00    +0.000 A 
ATOM     30  C   UNL     1       2.833   4.776  18.204  0.00  0.00    +0.000 A 
ENDBRANCH  19  20
ENDBRANCH  18  19
ENDBRANCH  17  18
ENDBRANCH  16  17
ENDBRANCH   2  16
TORSDOF 6
ENDMDL
