MODEL 1
REMARK VINA RESULT:      -5.5      0.000      0.000
REMARK  Name = 
REMARK  8 active torsions:
REMARK  status: ('A' for Active; 'I' for Inactive)
REMARK    1  A    between atoms: C_2  and  C_3
REMARK    2  A    between atoms: C_3  and  N_4
REMARK    3  A    between atoms: N_4  and  C_5
REMARK    4  A    between atoms: N_4  and  P_8
REMARK    5  A    between atoms: C_5  and  C_6
REMARK    6  A    between atoms: P_8  and  N_10
REMARK    7  A    between atoms: P_8  and  N_13
REMARK    8  A    between atoms: C_15  and  C_16
REMARK                            x       y       z     vdW  Elec       q    Type
REMARK                         _______ _______ _______ _____ _____    ______ ____
ROOT
ATOM      1  P   UNL     1       4.362   4.269  18.146  0.00  0.00    +0.000 P 
ATOM      2  S   UNL     1       4.525   2.948  19.702  0.00  0.00    +0.000 S 
ENDROOT
BRANCH   1   3
ATOM      3  N   UNL     1       2.613   3.976  18.302  0.00  0.00    +0.000 NA
ATOM      4  C   UNL     1       1.919   2.743  17.960  0.00  0.00    +0.000 C 
ATOM      5  C   UNL     1       2.096   3.145  19.387  0.00  0.00    +0.000 C 
ATOM      6  C   UNL     1       0.836   3.452  20.109  0.00  0.00    +0.000 C 
ENDBRANCH   1   3
BRANCH   1   7
ATOM      7  N   UNL     1       4.136   5.934  18.603  0.00  0.00    +0.000 NA
ATOM      8  C   UNL     1       3.723   6.983  17.648  0.00  0.00    +0.000 C 
ATOM      9  C   UNL     1       2.791   6.530  18.697  0.00  0.00    +0.000 C 
ENDBRANCH   1   7
BRANCH   1  10
ATOM     10  N   UNL     1       6.111   4.561  17.988  0.00  0.00    +0.000 NA
BRANCH  10  11
ATOM     11  C   UNL     1       6.829   4.251  16.747  0.00  0.00    +0.000 C 
BRANCH  11  13
ATOM     12  C   UNL     1       5.680   5.472  14.876  0.00  0.00    +0.000 C 
ATOM     13  C   UNL     1       6.018   4.321  15.479  0.00  0.00    +0.000 C 
ENDBRANCH  11  13
ENDBRANCH  10  11
BRANCH  10  14
ATOM     14  C   UNL     1       6.738   5.509  18.886  0.00  0.00    +0.000 C 
BRANCH  14  15
ATOM     15  C   UNL     1       7.756   6.491  18.375  0.00  0.00    +0.000 C 
ATOM     16  C   UNL     1       7.578   7.596  17.631  0.00  0.00    +0.000 C 
ENDBRANCH  14  15
ENDBRANCH  10  14
ENDBRANCH   1  10
TORSDOF 7
ENDMDL
MODEL 2
REMARK VINA RESULT:      -5.4      1.048      1.219
REMARK  Name = 
REMARK  8 active torsions:
REMARK  status: ('A' for Active; 'I' for Inactive)
REMARK    1  A    between atoms: C_2  and  C_3
REMARK    2  A    between atoms: C_3  and  N_4
REMARK    3  A    between atoms: N_4  and  C_5
REMARK    4  A    between atoms: N_4  and  P_8
REMARK    5  A    between atoms: C_5  and  C_6
REMARK    6  A    between atoms: P_8  and  N_10
REMARK    7  A    between atoms: P_8  and  N_13
REMARK    8  A    between atoms: C_15  and  C_16
REMARK                            x       y       z     vdW  Elec       q    Type
REMARK                         _______ _______ _______ _____ _____    ______ ____
ROOT
ATOM      1  P   UNL     1       3.712   5.113  17.841  0.00  0.00    +0.000 P 
ATOM      2  S   UNL     1       4.520   3.649  19.023  0.00  0.00    +0.000 S 
ENDROOT
BRANCH   1   3
ATOM      3  N   UNL     1       2.168   4.622  18.579  0.00  0.00    +0.000 NA
ATOM      4  C   UNL     1       1.429   3.403  18.282  0.00  0.00    +0.000 C 
ATOM      5  C   UNL     1       2.134   3.566  19.588  0.00  0.00    +0.000 C 
ATOM      6  C   UNL     1       1.244   3.614  20.776  0.00  0.00    +0.000 C 
ENDBRANCH   1   3
BRANCH   1   7
ATOM      7  N   UNL     1       3.582   6.683  18.585  0.00  0.00    +0.000 NA
ATOM      8  C   UNL     1       2.899   7.825  17.942  0.00  0.00    +0.000 C 
ATOM      9  C   UNL     1       2.301   7.175  19.123  0.00  0.00    +0.000 C 
ENDBRANCH   1   7
BRANCH   1  10
ATOM     10  N   UNL     1       5.255   5.604  17.102  0.00  0.00    +0.000 NA
BRANCH  10  11
ATOM     11  C   UNL     1       5.330   6.029  15.699  0.00  0.00    +0.000 C 
BRANCH  11  13
ATOM     12  C   UNL     1       6.108   3.737  15.026  0.00  0.00    +0.000 C 
ATOM     13  C   UNL     1       5.933   5.037  14.739  0.00  0.00    +0.000 C 
ENDBRANCH  11  13
ENDBRANCH  10  11
BRANCH  10  14
ATOM     14  C   UNL     1       6.336   6.024  17.970  0.00  0.00    +0.000 C 
BRANCH  14  15
ATOM     15  C   UNL     1       7.472   6.852  17.435  0.00  0.00    +0.000 C 
ATOM     16  C   UNL     1       7.755   8.149  17.643  0.00  0.00    +0.000 C 
ENDBRANCH  14  15
ENDBRANCH  10  14
ENDBRANCH   1  10
TORSDOF 7
ENDMDL
MODEL 3
REMARK VINA RESULT:      -5.4      0.932      2.436
REMARK  Name = 
REMARK  8 active torsions:
REMARK  status: ('A' for Active; 'I' for Inactive)
REMARK    1  A    between atoms: C_2  and  C_3
REMARK    2  A    between atoms: C_3  and  N_4
REMARK    3  A    between atoms: N_4  and  C_5
REMARK    4  A    between atoms: N_4  and  P_8
REMARK    5  A    between atoms: C_5  and  C_6
REMARK    6  A    between atoms: P_8  and  N_10
REMARK    7  A    between atoms: P_8  and  N_13
REMARK    8  A    between atoms: C_15  and  C_16
REMARK                            x       y       z     vdW  Elec       q    Type
REMARK                         _______ _______ _______ _____ _____    ______ ____
ROOT
ATOM      1  P   UNL     1       3.699   4.593  18.112  0.00  0.00    +0.000 P 
ATOM      2  S   UNL     1       4.520   3.147  19.308  0.00  0.00    +0.000 S 
ENDROOT
BRANCH   1   3
ATOM      3  N   UNL     1       2.172   4.152  18.915  0.00  0.00    +0.000 NA
ATOM      4  C   UNL     1       1.328   3.015  18.580  0.00  0.00    +0.000 C 
ATOM      5  C   UNL     1       2.123   3.025  19.844  0.00  0.00    +0.000 C 
ATOM      6  C   UNL     1       1.315   3.040  21.089  0.00  0.00    +0.000 C 
ENDBRANCH   1   3
BRANCH   1   7
ATOM      7  N   UNL     1       3.623   6.185  18.815  0.00  0.00    +0.000 NA
ATOM      8  C   UNL     1       2.876   7.302  18.199  0.00  0.00    +0.000 C 
ATOM      9  C   UNL     1       2.391   6.687  19.449  0.00  0.00    +0.000 C 
ENDBRANCH   1   7
BRANCH   1  10
ATOM     10  N   UNL     1       5.225   5.033  17.308  0.00  0.00    +0.000 NA
BRANCH  10  11
ATOM     11  C   UNL     1       6.525   4.737  17.921  0.00  0.00    +0.000 C 
BRANCH  11  13
ATOM     12  C   UNL     1       7.754   6.926  18.011  0.00  0.00    +0.000 C 
ATOM     13  C   UNL     1       7.192   5.881  18.640  0.00  0.00    +0.000 C 
ENDBRANCH  11  13
ENDBRANCH  10  11
BRANCH  10  14
ATOM     14  C   UNL     1       5.214   5.257  15.877  0.00  0.00    +0.000 C 
BRANCH  14  15
ATOM     15  C   UNL     1       6.354   4.785  15.018  0.00  0.00    +0.000 C 
ATOM     16  C   UNL     1       6.333   4.006  13.923  0.00  0.00    +0.000 C 
ENDBRANCH  14  15
ENDBRANCH  10  14
ENDBRANCH   1  10
TORSDOF 7
ENDMDL
MODEL 4
REMARK VINA RESULT:      -5.4      1.007      1.143
REMARK  Name = 
REMARK  8 active torsions:
REMARK  status: ('A' for Active; 'I' for Inactive)
REMARK    1  A    between atoms: C_2  and  C_3
REMARK    2  A    between atoms: C_3  and  N_4
REMARK    3  A    between atoms: N_4  and  C_5
REMARK    4  A    between atoms: N_4  and  P_8
REMARK    5  A    between atoms: C_5  and  C_6
REMARK    6  A    between atoms: P_8  and  N_10
REMARK    7  A    between atoms: P_8  and  N_13
REMARK    8  A    between atoms: C_15  and  C_16
REMARK                            x       y       z     vdW  Elec       q    Type
REMARK                         _______ _______ _______ _____ _____    ______ ____
ROOT
ATOM      1  P   UNL     1       3.602   4.136  18.132  0.00  0.00    +0.000 P 
ATOM      2  S   UNL     1       4.345   2.661  19.343  0.00  0.00    +0.000 S 
ENDROOT
BRANCH   1   3
ATOM      3  N   UNL     1       2.082   3.865  19.019  0.00  0.00    +0.000 NA
ATOM      4  C   UNL     1       1.138   2.782  18.785  0.00  0.00    +0.000 C 
ATOM      5  C   UNL     1       1.986   2.799  20.013  0.00  0.00    +0.000 C 
ATOM      6  C   UNL     1       1.237   2.948  21.286  0.00  0.00    +0.000 C 
ENDBRANCH   1   3
BRANCH   1   7
ATOM      7  N   UNL     1       3.704   5.751  18.777  0.00  0.00    +0.000 NA
ATOM      8  C   UNL     1       3.091   6.922  18.116  0.00  0.00    +0.000 C 
ATOM      9  C   UNL     1       2.535   6.412  19.383  0.00  0.00    +0.000 C 
ENDBRANCH   1   7
BRANCH   1  10
ATOM     10  N   UNL     1       5.121   4.407  17.244  0.00  0.00    +0.000 NA
BRANCH  10  11
ATOM     11  C   UNL     1       5.127   4.656  15.798  0.00  0.00    +0.000 C 
BRANCH  11  13
ATOM     12  C   UNL     1       6.167   3.884  13.647  0.00  0.00    +0.000 C 
ATOM     13  C   UNL     1       6.042   3.783  14.979  0.00  0.00    +0.000 C 
ENDBRANCH  11  13
ENDBRANCH  10  11
BRANCH  10  14
ATOM     14  C   UNL     1       6.290   4.834  17.986  0.00  0.00    +0.000 C 
BRANCH  14  15
ATOM     15  C   UNL     1       7.024   6.089  17.603  0.00  0.00    +0.000 C 
ATOM     16  C   UNL     1       7.843   6.858  18.341  0.00  0.00    +0.000 C 
ENDBRANCH  14  15
ENDBRANCH  10  14
ENDBRANCH   1  10
TORSDOF 7
ENDMDL
MODEL 5
REMARK VINA RESULT:      -5.1      1.280      2.653
REMARK  Name = 
REMARK  8 active torsions:
REMARK  status: ('A' for Active; 'I' for Inactive)
REMARK    1  A    between atoms: C_2  and  C_3
REMARK    2  A    between atoms: C_3  and  N_4
REMARK    3  A    between atoms: N_4  and  C_5
REMARK    4  A    between atoms: N_4  and  P_8
REMARK    5  A    between atoms: C_5  and  C_6
REMARK    6  A    between atoms: P_8  and  N_10
REMARK    7  A    between atoms: P_8  and  N_13
REMARK    8  A    between atoms: C_15  and  C_16
REMARK                            x       y       z     vdW  Elec       q    Type
REMARK                         _______ _______ _______ _____ _____    ______ ____
ROOT
ATOM      1  P   UNL     1       3.667   5.519  17.773  0.00  0.00    +0.000 P 
ATOM      2  S   UNL     1       4.576   4.081  18.913  0.00  0.00    +0.000 S 
ENDROOT
BRANCH   1   3
ATOM      3  N   UNL     1       2.160   4.884  18.476  0.00  0.00    +0.000 NA
ATOM      4  C   UNL     1       1.568   3.583  18.198  0.00  0.00    +0.000 C 
ATOM      5  C   UNL     1       2.203   3.863  19.520  0.00  0.00    +0.000 C 
ATOM      6  C   UNL     1       1.270   3.850  20.675  0.00  0.00    +0.000 C 
ENDBRANCH   1   3
BRANCH   1   7
ATOM      7  N   UNL     1       3.409   7.047  18.568  0.00  0.00    +0.000 NA
ATOM      8  C   UNL     1       2.620   8.144  17.969  0.00  0.00    +0.000 C 
ATOM      9  C   UNL     1       2.096   7.407  19.134  0.00  0.00    +0.000 C 
ENDBRANCH   1   7
BRANCH   1  10
ATOM     10  N   UNL     1       5.174   6.153  17.068  0.00  0.00    +0.000 NA
BRANCH  10  11
ATOM     11  C   UNL     1       6.408   6.241  17.856  0.00  0.00    +0.000 C 
BRANCH  11  13
ATOM     12  C   UNL     1       7.977   8.201  17.947  0.00  0.00    +0.000 C 
ATOM     13  C   UNL     1       7.487   7.132  17.298  0.00  0.00    +0.000 C 
ENDBRANCH  11  13
ENDBRANCH  10  11
BRANCH  10  14
ATOM     14  C   UNL     1       5.318   6.153  15.626  0.00  0.00    +0.000 C 
BRANCH  14  15
ATOM     15  C   UNL     1       6.090   5.065  14.934  0.00  0.00    +0.000 C 
ATOM     16  C   UNL     1       5.924   3.733  14.988  0.00  0.00    +0.000 C 
ENDBRANCH  14  15
ENDBRANCH  10  14
ENDBRANCH   1  10
TORSDOF 7
ENDMDL
MODEL 6
REMARK VINA RESULT:      -4.9      1.037      2.608
REMARK  Name = 
REMARK  8 active torsions:
REMARK  status: ('A' for Active; 'I' for Inactive)
REMARK    1  A    between atoms: C_2  and  C_3
REMARK    2  A    between atoms: C_3  and  N_4
REMARK    3  A    between atoms: N_4  and  C_5
REMARK    4  A    between atoms: N_4  and  P_8
REMARK    5  A    between atoms: C_5  and  C_6
REMARK    6  A    between atoms: P_8  and  N_10
REMARK    7  A    between atoms: P_8  and  N_13
REMARK    8  A    between atoms: C_15  and  C_16
REMARK                            x       y       z     vdW  Elec       q    Type
REMARK                         _______ _______ _______ _____ _____    ______ ____
ROOT
ATOM      1  P   UNL     1       3.767   4.228  17.618  0.00  0.00    +0.000 P 
ATOM      2  S   UNL     1       4.696   3.665  19.354  0.00  0.00    +0.000 S 
ENDROOT
BRANCH   1   3
ATOM      3  N   UNL     1       2.337   3.437  18.324  0.00  0.00    +0.000 NA
ATOM      4  C   UNL     1       2.218   2.024  18.653  0.00  0.00    +0.000 C 
ATOM      5  C   UNL     1       2.327   3.049  19.733  0.00  0.00    +0.000 C 
ATOM      6  C   UNL     1       1.126   3.176  20.596  0.00  0.00    +0.000 C 
ENDBRANCH   1   3
BRANCH   1   7
ATOM      7  N   UNL     1       2.957   5.769  17.673  0.00  0.00    +0.000 NA
ATOM      8  C   UNL     1       2.973   6.645  18.863  0.00  0.00    +0.000 C 
ATOM      9  C   UNL     1       3.711   7.035  17.648  0.00  0.00    +0.000 C 
ENDBRANCH   1   7
BRANCH   1  10
ATOM     10  N   UNL     1       5.197   5.019  16.910  0.00  0.00    +0.000 NA
BRANCH  10  11
ATOM     11  C   UNL     1       6.437   5.183  17.678  0.00  0.00    +0.000 C 
BRANCH  11  13
ATOM     12  C   UNL     1       7.543   7.437  17.746  0.00  0.00    +0.000 C 
ATOM     13  C   UNL     1       7.393   6.232  17.173  0.00  0.00    +0.000 C 
ENDBRANCH  11  13
ENDBRANCH  10  11
BRANCH  10  14
ATOM     14  C   UNL     1       5.307   5.088  15.468  0.00  0.00    +0.000 C 
BRANCH  14  15
ATOM     15  C   UNL     1       5.856   3.927  14.685  0.00  0.00    +0.000 C 
ATOM     16  C   UNL     1       6.308   3.888  13.420  0.00  0.00    +0.000 C 
ENDBRANCH  14  15
ENDBRANCH  10  14
ENDBRANCH   1  10
TORSDOF 7
ENDMDL
MODEL 7
REMARK VINA RESULT:      -4.8      1.767      2.587
REMARK  Name = 
REMARK  8 active torsions:
REMARK  status: ('A' for Active; 'I' for Inactive)
REMARK    1  A    between atoms: C_2  and  C_3
REMARK    2  A    between atoms: C_3  and  N_4
REMARK    3  A    between atoms: N_4  and  C_5
REMARK    4  A    between atoms: N_4  and  P_8
REMARK    5  A    between atoms: C_5  and  C_6
REMARK    6  A    between atoms: P_8  and  N_10
REMARK    7  A    between atoms: P_8  and  N_13
REMARK    8  A    between atoms: C_15  and  C_16
REMARK                            x       y       z     vdW  Elec       q    Type
REMARK                         _______ _______ _______ _____ _____    ______ ____
ROOT
ATOM      1  P   UNL     1       4.362   4.725  18.129  0.00  0.00    +0.000 P 
ATOM      2  S   UNL     1       3.760   6.628  17.672  0.00  0.00    +0.000 S 
ENDROOT
BRANCH   1   3
ATOM      3  N   UNL     1       2.937   4.711  19.196  0.00  0.00    +0.000 NA
ATOM      4  C   UNL     1       2.916   4.288  20.589  0.00  0.00    +0.000 C 
ATOM      5  C   UNL     1       2.777   5.730  20.230  0.00  0.00    +0.000 C 
ATOM      6  C   UNL     1       1.464   6.334  20.572  0.00  0.00    +0.000 C 
ENDBRANCH   1   3
BRANCH   1   7
ATOM      7  N   UNL     1       3.658   3.467  17.151  0.00  0.00    +0.000 NA
ATOM      8  C   UNL     1       3.529   2.068  17.610  0.00  0.00    +0.000 C 
ATOM      9  C   UNL     1       2.328   2.910  17.457  0.00  0.00    +0.000 C 
ENDBRANCH   1   7
BRANCH   1  10
ATOM     10  N   UNL     1       5.788   4.739  17.063  0.00  0.00    +0.000 NA
BRANCH  10  11
ATOM     11  C   UNL     1       5.696   5.186  15.669  0.00  0.00    +0.000 C 
BRANCH  11  13
ATOM     12  C   UNL     1       6.207   3.834  13.615  0.00  0.00    +0.000 C 
ATOM     13  C   UNL     1       6.627   4.512  14.695  0.00  0.00    +0.000 C 
ENDBRANCH  11  13
ENDBRANCH  10  11
BRANCH  10  14
ATOM     14  C   UNL     1       7.105   4.754  17.668  0.00  0.00    +0.000 C 
BRANCH  14  15
ATOM     15  C   UNL     1       7.608   5.980  18.379  0.00  0.00    +0.000 C 
ATOM     16  C   UNL     1       7.762   7.232  17.915  0.00  0.00    +0.000 C 
ENDBRANCH  14  15
ENDBRANCH  10  14
ENDBRANCH   1  10
TORSDOF 7
ENDMDL
MODEL 8
REMARK VINA RESULT:      -4.8      1.748      3.401
REMARK  Name = 
REMARK  8 active torsions:
REMARK  status: ('A' for Active; 'I' for Inactive)
REMARK    1  A    between atoms: C_2  and  C_3
REMARK    2  A    between atoms: C_3  and  N_4
REMARK    3  A    between atoms: N_4  and  C_5
REMARK    4  A    between atoms: N_4  and  P_8
REMARK    5  A    between atoms: C_5  and  C_6
REMARK    6  A    between atoms: P_8  and  N_10
REMARK    7  A    between atoms: P_8  and  N_13
REMARK    8  A    between atoms: C_15  and  C_16
REMARK                            x       y       z     vdW  Elec       q    Type
REMARK                         _______ _______ _______ _____ _____    ______ ____
ROOT
ATOM      1  P   UNL     1       4.418   4.095  18.514  0.00  0.00    +0.000 P 
ATOM      2  S   UNL     1       3.390   5.819  18.111  0.00  0.00    +0.000 S 
ENDROOT
BRANCH   1   3
ATOM      3  N   UNL     1       3.157   3.830  19.742  0.00  0.00    +0.000 NA
ATOM      4  C   UNL     1       2.885   4.687  20.887  0.00  0.00    +0.000 C 
ATOM      5  C   UNL     1       1.937   4.634  19.735  0.00  0.00    +0.000 C 
ATOM      6  C   UNL     1       0.599   4.074  20.053  0.00  0.00    +0.000 C 
ENDBRANCH   1   3
BRANCH   1   7
ATOM      7  N   UNL     1       3.882   2.687  17.641  0.00  0.00    +0.000 NA
ATOM      8  C   UNL     1       3.941   1.321  18.201  0.00  0.00    +0.000 C 
ATOM      9  C   UNL     1       2.638   1.984  18.005  0.00  0.00    +0.000 C 
ENDBRANCH   1   7
BRANCH   1  10
ATOM     10  N   UNL     1       5.681   4.360  17.287  0.00  0.00    +0.000 NA
BRANCH  10  11
ATOM     11  C   UNL     1       7.076   4.608  17.668  0.00  0.00    +0.000 C 
BRANCH  11  13
ATOM     12  C   UNL     1       7.403   7.088  17.444  0.00  0.00    +0.000 C 
ATOM     13  C   UNL     1       7.382   5.983  18.205  0.00  0.00    +0.000 C 
ENDBRANCH  11  13
ENDBRANCH  10  11
BRANCH  10  14
ATOM     14  C   UNL     1       5.446   3.888  15.938  0.00  0.00    +0.000 C 
BRANCH  14  15
ATOM     15  C   UNL     1       6.137   4.534  14.769  0.00  0.00    +0.000 C 
ATOM     16  C   UNL     1       6.392   4.036  13.547  0.00  0.00    +0.000 C 
ENDBRANCH  14  15
ENDBRANCH  10  14
ENDBRANCH   1  10
TORSDOF 7
ENDMDL
MODEL 9
REMARK VINA RESULT:      -4.8      1.728      3.377
REMARK  Name = 
REMARK  8 active torsions:
REMARK  status: ('A' for Active; 'I' for Inactive)
REMARK    1  A    between atoms: C_2  and  C_3
REMARK    2  A    between atoms: C_3  and  N_4
REMARK    3  A    between atoms: N_4  and  C_5
REMARK    4  A    between atoms: N_4  and  P_8
REMARK    5  A    between atoms: C_5  and  C_6
REMARK    6  A    between atoms: P_8  and  N_10
REMARK    7  A    between atoms: P_8  and  N_13
REMARK    8  A    between atoms: C_15  and  C_16
REMARK                            x       y       z     vdW  Elec       q    Type
REMARK                         _______ _______ _______ _____ _____    ______ ____
ROOT
ATOM      1  P   UNL     1       4.284   4.637  18.891  0.00  0.00    +0.000 P 
ATOM      2  S   UNL     1       2.660   4.665  17.643  0.00  0.00    +0.000 S 
ENDROOT
BRANCH   1   3
ATOM      3  N   UNL     1       3.074   4.469  20.186  0.00  0.00    +0.000 NA
ATOM      4  C   UNL     1       2.085   5.467  20.567  0.00  0.00    +0.000 C 
ATOM      5  C   UNL     1       1.672   4.218  19.861  0.00  0.00    +0.000 C 
ATOM      6  C   UNL     1       0.810   3.308  20.656  0.00  0.00    +0.000 C 
ENDBRANCH   1   3
BRANCH   1   7
ATOM      7  N   UNL     1       4.914   3.056  19.257  0.00  0.00    +0.000 NA
ATOM      8  C   UNL     1       4.458   2.254  20.411  0.00  0.00    +0.000 C 
ATOM      9  C   UNL     1       4.112   1.839  19.039  0.00  0.00    +0.000 C 
ENDBRANCH   1   7
BRANCH   1  10
ATOM     10  N   UNL     1       5.494   4.807  17.595  0.00  0.00    +0.000 NA
BRANCH  10  11
ATOM     11  C   UNL     1       6.930   4.854  17.893  0.00  0.00    +0.000 C 
BRANCH  11  13
ATOM     12  C   UNL     1       7.569   7.262  17.581  0.00  0.00    +0.000 C 
ATOM     13  C   UNL     1       7.465   6.180  18.367  0.00  0.00    +0.000 C 
ENDBRANCH  11  13
ENDBRANCH  10  11
BRANCH  10  14
ATOM     14  C   UNL     1       5.117   4.444  16.244  0.00  0.00    +0.000 C 
BRANCH  14  15
ATOM     15  C   UNL     1       6.102   4.569  15.115  0.00  0.00    +0.000 C 
ATOM     16  C   UNL     1       6.094   3.981  13.907  0.00  0.00    +0.000 C 
ENDBRANCH  14  15
ENDBRANCH  10  14
ENDBRANCH   1  10
TORSDOF 7
ENDMDL
