MODEL 1
REMARK VINA RESULT:      -6.9      0.000      0.000
REMARK  Name = 
REMARK  8 active torsions:
REMARK  status: ('A' for Active; 'I' for Inactive)
REMARK    1  A    between atoms: C_1  and  C_2
REMARK    2  A    between atoms: C_2  and  O_3
REMARK    3  A    between atoms: N_7  and  S_8
REMARK    4  A    between atoms: S_8  and  C_11
REMARK    5  A    between atoms: C_14  and  C_15
REMARK    6  A    between atoms: C_15  and  C_16
REMARK    7  A    between atoms: C_15  and  C_17
REMARK    8  A    between atoms: C_15  and  C_18
REMARK                            x       y       z     vdW  Elec       q    Type
REMARK                         _______ _______ _______ _____ _____    ______ ____
ROOT
ATOM      1  S   UNL     1       0.937  10.489  19.612  0.00  0.00    +0.000 S 
ATOM      2  O   UNL     1       1.381  11.515  18.695  0.00  0.00    +0.000 OA
ATOM      3  O   UNL     1       1.145  10.638  21.042  0.00  0.00    +0.000 OA
ENDROOT
BRANCH   1   9
ATOM      4  C   UNL     1      -4.459  11.192  16.528  0.00  0.00    +0.000 C 
ATOM      5  C   UNL     1      -3.121  11.279  17.271  0.00  0.00    +0.000 C 
ATOM      6  C   UNL     1      -3.302  12.180  18.503  0.00  0.00    +0.000 C 
ATOM      7  C   UNL     1      -2.054  12.322  19.361  0.00  0.00    +0.000 C 
ATOM      8  C   UNL     1      -1.681  11.048  20.102  0.00  0.00    +0.000 C 
ATOM      9  N   UNL     1      -0.739  10.205  19.344  0.00  0.00    +0.000 NA
ATOM     10  C   UNL     1      -1.112   9.808  17.960  0.00  0.00    +0.000 C 
ATOM     11  C   UNL     1      -2.607   9.868  17.625  0.00  0.00    +0.000 C 
BRANCH   5  12
ATOM     12  O   UNL     1      -2.191  11.881  16.364  0.00  0.00    +0.000 OA
ATOM     13  H   UNL     1      -2.499  11.734  15.452  0.00  0.00    +0.000 HD
ENDBRANCH   5  12
ENDBRANCH   1   9
BRANCH   1  14
ATOM     14  C   UNL     1       1.695   8.953  19.121  0.00  0.00    +0.000 A 
ATOM     15  C   UNL     1       1.741   7.887  20.018  0.00  0.00    +0.000 A 
ATOM     16  C   UNL     1       2.452   6.731  19.676  0.00  0.00    +0.000 A 
ATOM     17  C   UNL     1       3.078   6.589  18.422  0.00  0.00    +0.000 A 
ATOM     18  C   UNL     1       2.977   7.669  17.524  0.00  0.00    +0.000 A 
ATOM     19  C   UNL     1       2.287   8.837  17.863  0.00  0.00    +0.000 A 
BRANCH  17  20
ATOM     20  C   UNL     1       3.805   5.294  18.009  0.00  0.00    +0.000 C 
ATOM     21  C   UNL     1       4.694   5.486  16.760  0.00  0.00    +0.000 C 
ATOM     22  C   UNL     1       4.711   4.828  19.169  0.00  0.00    +0.000 C 
ATOM     23  C   UNL     1       2.809   4.159  17.687  0.00  0.00    +0.000 C 
ENDBRANCH  17  20
ENDBRANCH   1  14
TORSDOF 4
ENDMDL
MODEL 2
REMARK VINA RESULT:      -6.8      4.489      7.960
REMARK  Name = 
REMARK  8 active torsions:
REMARK  status: ('A' for Active; 'I' for Inactive)
REMARK    1  A    between atoms: C_1  and  C_2
REMARK    2  A    between atoms: C_2  and  O_3
REMARK    3  A    between atoms: N_7  and  S_8
REMARK    4  A    between atoms: S_8  and  C_11
REMARK    5  A    between atoms: C_14  and  C_15
REMARK    6  A    between atoms: C_15  and  C_16
REMARK    7  A    between atoms: C_15  and  C_17
REMARK    8  A    between atoms: C_15  and  C_18
REMARK                            x       y       z     vdW  Elec       q    Type
REMARK                         _______ _______ _______ _____ _____    ______ ____
ROOT
ATOM      1  S   UNL     1       3.001   3.444  18.337  0.00  0.00    +0.000 S 
ATOM      2  O   UNL     1       2.377   3.270  17.044  0.00  0.00    +0.000 OA
ATOM      3  O   UNL     1       2.924   2.395  19.339  0.00  0.00    +0.000 OA
ENDROOT
BRANCH   1   9
ATOM      4  C   UNL     1       7.787   7.373  17.451  0.00  0.00    +0.000 C 
ATOM      5  C   UNL     1       6.497   6.546  17.479  0.00  0.00    +0.000 C 
ATOM      6  C   UNL     1       6.256   5.965  16.076  0.00  0.00    +0.000 C 
ATOM      7  C   UNL     1       5.023   5.081  15.969  0.00  0.00    +0.000 C 
ATOM      8  C   UNL     1       5.159   3.760  16.709  0.00  0.00    +0.000 C 
ATOM      9  N   UNL     1       4.661   3.830  18.094  0.00  0.00    +0.000 NA
ATOM     10  C   UNL     1       5.214   4.884  18.986  0.00  0.00    +0.000 C 
ATOM     11  C   UNL     1       6.573   5.462  18.576  0.00  0.00    +0.000 C 
BRANCH   5  12
ATOM     12  O   UNL     1       5.439   7.451  17.815  0.00  0.00    +0.000 OA
ATOM     13  H   UNL     1       5.453   7.610  18.775  0.00  0.00    +0.000 HD
ENDBRANCH   5  12
ENDBRANCH   1   9
BRANCH   1  14
ATOM     14  C   UNL     1       2.339   4.928  19.067  0.00  0.00    +0.000 A 
ATOM     15  C   UNL     1       2.387   6.128  18.359  0.00  0.00    +0.000 A 
ATOM     16  C   UNL     1       1.988   7.313  18.987  0.00  0.00    +0.000 A 
ATOM     17  C   UNL     1       1.480   7.321  20.301  0.00  0.00    +0.000 A 
ATOM     18  C   UNL     1       1.406   6.086  20.973  0.00  0.00    +0.000 A 
ATOM     19  C   UNL     1       1.823   4.898  20.362  0.00  0.00    +0.000 A 
BRANCH  17  20
ATOM     20  C   UNL     1       0.973   8.610  20.978  0.00  0.00    +0.000 C 
ATOM     21  C   UNL     1       1.869   9.053  22.156  0.00  0.00    +0.000 C 
ATOM     22  C   UNL     1       0.953   9.755  19.941  0.00  0.00    +0.000 C 
ATOM     23  C   UNL     1      -0.457   8.437  21.535  0.00  0.00    +0.000 C 
ENDBRANCH  17  20
ENDBRANCH   1  14
TORSDOF 4
ENDMDL
MODEL 3
REMARK VINA RESULT:      -6.8      0.421      1.471
REMARK  Name = 
REMARK  8 active torsions:
REMARK  status: ('A' for Active; 'I' for Inactive)
REMARK    1  A    between atoms: C_1  and  C_2
REMARK    2  A    between atoms: C_2  and  O_3
REMARK    3  A    between atoms: N_7  and  S_8
REMARK    4  A    between atoms: S_8  and  C_11
REMARK    5  A    between atoms: C_14  and  C_15
REMARK    6  A    between atoms: C_15  and  C_16
REMARK    7  A    between atoms: C_15  and  C_17
REMARK    8  A    between atoms: C_15  and  C_18
REMARK                            x       y       z     vdW  Elec       q    Type
REMARK                         _______ _______ _______ _____ _____    ______ ____
ROOT
ATOM      1  S   UNL     1       0.949  10.581  19.727  0.00  0.00    +0.000 S 
ATOM      2  O   UNL     1       1.381  11.537  18.732  0.00  0.00    +0.000 OA
ATOM      3  O   UNL     1       1.190  10.827  21.138  0.00  0.00    +0.000 OA
ENDROOT
BRANCH   1   9
ATOM      4  C   UNL     1      -4.545  11.265  16.816  0.00  0.00    +0.000 C 
ATOM      5  C   UNL     1      -3.184  11.357  17.514  0.00  0.00    +0.000 C 
ATOM      6  C   UNL     1      -3.323  12.267  18.745  0.00  0.00    +0.000 C 
ATOM      7  C   UNL     1      -2.048  12.415  19.560  0.00  0.00    +0.000 C 
ATOM      8  C   UNL     1      -1.651  11.146  20.298  0.00  0.00    +0.000 C 
ATOM      9  N   UNL     1      -0.736  10.297  19.516  0.00  0.00    +0.000 NA
ATOM     10  C   UNL     1      -1.154   9.889  18.148  0.00  0.00    +0.000 C 
ATOM     11  C   UNL     1      -2.659   9.948  17.863  0.00  0.00    +0.000 C 
BRANCH   5  12
ATOM     12  O   UNL     1      -2.283  11.951  16.572  0.00  0.00    +0.000 OA
ATOM     13  H   UNL     1      -2.199  12.900  16.773  0.00  0.00    +0.000 HD
ENDBRANCH   5  12
ENDBRANCH   1   9
BRANCH   1  14
ATOM     14  C   UNL     1       1.682   9.008  19.327  0.00  0.00    +0.000 A 
ATOM     15  C   UNL     1       2.205   8.793  18.053  0.00  0.00    +0.000 A 
ATOM     16  C   UNL     1       2.659   7.516  17.702  0.00  0.00    +0.000 A 
ATOM     17  C   UNL     1       2.658   6.450  18.623  0.00  0.00    +0.000 A 
ATOM     18  C   UNL     1       2.161   6.712  19.914  0.00  0.00    +0.000 A 
ATOM     19  C   UNL     1       1.685   7.979  20.269  0.00  0.00    +0.000 A 
BRANCH  17  20
ATOM     20  C   UNL     1       3.219   5.059  18.270  0.00  0.00    +0.000 C 
ATOM     21  C   UNL     1       3.816   4.331  19.495  0.00  0.00    +0.000 C 
ATOM     22  C   UNL     1       2.081   4.180  17.704  0.00  0.00    +0.000 C 
ATOM     23  C   UNL     1       4.336   5.148  17.207  0.00  0.00    +0.000 C 
ENDBRANCH  17  20
ENDBRANCH   1  14
TORSDOF 4
ENDMDL
MODEL 4
REMARK VINA RESULT:      -6.8      0.744      1.413
REMARK  Name = 
REMARK  8 active torsions:
REMARK  status: ('A' for Active; 'I' for Inactive)
REMARK    1  A    between atoms: C_1  and  C_2
REMARK    2  A    between atoms: C_2  and  O_3
REMARK    3  A    between atoms: N_7  and  S_8
REMARK    4  A    between atoms: S_8  and  C_11
REMARK    5  A    between atoms: C_14  and  C_15
REMARK    6  A    between atoms: C_15  and  C_16
REMARK    7  A    between atoms: C_15  and  C_17
REMARK    8  A    between atoms: C_15  and  C_18
REMARK                            x       y       z     vdW  Elec       q    Type
REMARK                         _______ _______ _______ _____ _____    ______ ____
ROOT
ATOM      1  S   UNL     1       0.976  10.412  19.584  0.00  0.00    +0.000 S 
ATOM      2  O   UNL     1       1.484  11.186  18.473  0.00  0.00    +0.000 OA
ATOM      3  O   UNL     1       1.192  10.857  20.950  0.00  0.00    +0.000 OA
ENDROOT
BRANCH   1   9
ATOM      4  C   UNL     1      -4.471  11.269  16.630  0.00  0.00    +0.000 C 
ATOM      5  C   UNL     1      -3.113  11.318  17.339  0.00  0.00    +0.000 C 
ATOM      6  C   UNL     1      -3.233  12.232  18.569  0.00  0.00    +0.000 C 
ATOM      7  C   UNL     1      -1.961  12.340  19.394  0.00  0.00    +0.000 C 
ATOM      8  C   UNL     1      -1.610  11.059  20.135  0.00  0.00    +0.000 C 
ATOM      9  N   UNL     1      -0.715  10.181  19.360  0.00  0.00    +0.000 NA
ATOM     10  C   UNL     1      -1.135   9.787  17.988  0.00  0.00    +0.000 C 
ATOM     11  C   UNL     1      -2.635   9.893  17.691  0.00  0.00    +0.000 C 
BRANCH   5  12
ATOM     12  O   UNL     1      -2.187  11.885  16.405  0.00  0.00    +0.000 OA
ATOM     13  H   UNL     1      -1.350  12.073  16.865  0.00  0.00    +0.000 HD
ENDBRANCH   5  12
ENDBRANCH   1   9
BRANCH   1  14
ATOM     14  C   UNL     1       1.636   8.764  19.449  0.00  0.00    +0.000 A 
ATOM     15  C   UNL     1       2.200   8.341  18.246  0.00  0.00    +0.000 A 
ATOM     16  C   UNL     1       2.597   7.007  18.104  0.00  0.00    +0.000 A 
ATOM     17  C   UNL     1       2.495   6.086  19.165  0.00  0.00    +0.000 A 
ATOM     18  C   UNL     1       1.958   6.556  20.379  0.00  0.00    +0.000 A 
ATOM     19  C   UNL     1       1.539   7.883  20.526  0.00  0.00    +0.000 A 
BRANCH  17  20
ATOM     20  C   UNL     1       2.991   4.632  19.041  0.00  0.00    +0.000 C 
ATOM     21  C   UNL     1       2.486   3.940  17.756  0.00  0.00    +0.000 C 
ATOM     22  C   UNL     1       4.536   4.623  19.009  0.00  0.00    +0.000 C 
ATOM     23  C   UNL     1       2.527   3.767  20.234  0.00  0.00    +0.000 C 
ENDBRANCH  17  20
ENDBRANCH   1  14
TORSDOF 4
ENDMDL
MODEL 5
REMARK VINA RESULT:      -6.8      2.809      3.846
REMARK  Name = 
REMARK  8 active torsions:
REMARK  status: ('A' for Active; 'I' for Inactive)
REMARK    1  A    between atoms: C_1  and  C_2
REMARK    2  A    between atoms: C_2  and  O_3
REMARK    3  A    between atoms: N_7  and  S_8
REMARK    4  A    between atoms: S_8  and  C_11
REMARK    5  A    between atoms: C_14  and  C_15
REMARK    6  A    between atoms: C_15  and  C_16
REMARK    7  A    between atoms: C_15  and  C_17
REMARK    8  A    between atoms: C_15  and  C_18
REMARK                            x       y       z     vdW  Elec       q    Type
REMARK                         _______ _______ _______ _____ _____    ______ ____
ROOT
ATOM      1  S   UNL     1       0.278  11.092  20.181  0.00  0.00    +0.000 S 
ATOM      2  O   UNL     1       0.882  11.472  21.438  0.00  0.00    +0.000 OA
ATOM      3  O   UNL     1      -1.159  10.903  20.081  0.00  0.00    +0.000 OA
ENDROOT
BRANCH   1   9
ATOM      4  C   UNL     1       2.560  16.582  18.236  0.00  0.00    +0.000 C 
ATOM      5  C   UNL     1       1.851  15.380  18.870  0.00  0.00    +0.000 C 
ATOM      6  C   UNL     1       0.337  15.534  18.657  0.00  0.00    +0.000 C 
ATOM      7  C   UNL     1      -0.492  14.382  19.204  0.00  0.00    +0.000 C 
ATOM      8  C   UNL     1      -0.315  13.087  18.427  0.00  0.00    +0.000 C 
ATOM      9  N   UNL     1       0.751  12.233  18.982  0.00  0.00    +0.000 NA
ATOM     10  C   UNL     1       2.105  12.824  19.153  0.00  0.00    +0.000 C 
ATOM     11  C   UNL     1       2.410  14.059  18.298  0.00  0.00    +0.000 C 
BRANCH   5  12
ATOM     12  O   UNL     1       2.149  15.424  20.270  0.00  0.00    +0.000 OA
ATOM     13  H   UNL     1       2.340  16.345  20.523  0.00  0.00    +0.000 HD
ENDBRANCH   5  12
ENDBRANCH   1   9
BRANCH   1  14
ATOM     14  C   UNL     1       1.053   9.583  19.637  0.00  0.00    +0.000 A 
ATOM     15  C   UNL     1       1.280   8.554  20.550  0.00  0.00    +0.000 A 
ATOM     16  C   UNL     1       2.005   7.427  20.149  0.00  0.00    +0.000 A 
ATOM     17  C   UNL     1       2.466   7.274  18.827  0.00  0.00    +0.000 A 
ATOM     18  C   UNL     1       2.184   8.312  17.919  0.00  0.00    +0.000 A 
ATOM     19  C   UNL     1       1.478   9.454  18.315  0.00  0.00    +0.000 A 
BRANCH  17  20
ATOM     20  C   UNL     1       3.206   6.005  18.357  0.00  0.00    +0.000 C 
ATOM     21  C   UNL     1       2.242   4.910  17.848  0.00  0.00    +0.000 C 
ATOM     22  C   UNL     1       4.160   6.373  17.199  0.00  0.00    +0.000 C 
ATOM     23  C   UNL     1       4.044   5.380  19.494  0.00  0.00    +0.000 C 
ENDBRANCH  17  20
ENDBRANCH   1  14
TORSDOF 4
ENDMDL
MODEL 6
REMARK VINA RESULT:      -6.7      3.918      7.649
REMARK  Name = 
REMARK  8 active torsions:
REMARK  status: ('A' for Active; 'I' for Inactive)
REMARK    1  A    between atoms: C_1  and  C_2
REMARK    2  A    between atoms: C_2  and  O_3
REMARK    3  A    between atoms: N_7  and  S_8
REMARK    4  A    between atoms: S_8  and  C_11
REMARK    5  A    between atoms: C_14  and  C_15
REMARK    6  A    between atoms: C_15  and  C_16
REMARK    7  A    between atoms: C_15  and  C_17
REMARK    8  A    between atoms: C_15  and  C_18
REMARK                            x       y       z     vdW  Elec       q    Type
REMARK                         _______ _______ _______ _____ _____    ______ ____
ROOT
ATOM      1  S   UNL     1       2.354   4.430  20.103  0.00  0.00    +0.000 S 
ATOM      2  O   UNL     1       1.409   3.680  19.307  0.00  0.00    +0.000 OA
ATOM      3  O   UNL     1       2.410   4.249  21.544  0.00  0.00    +0.000 OA
ENDROOT
BRANCH   1   9
ATOM      4  C   UNL     1       7.242   5.779  16.440  0.00  0.00    +0.000 C 
ATOM      5  C   UNL     1       5.902   5.480  17.122  0.00  0.00    +0.000 C 
ATOM      6  C   UNL     1       5.234   4.302  16.394  0.00  0.00    +0.000 C 
ATOM      7  C   UNL     1       3.906   3.869  16.996  0.00  0.00    +0.000 C 
ATOM      8  C   UNL     1       4.045   3.206  18.357  0.00  0.00    +0.000 C 
ATOM      9  N   UNL     1       3.933   4.165  19.471  0.00  0.00    +0.000 NA
ATOM     10  C   UNL     1       4.835   5.348  19.471  0.00  0.00    +0.000 C 
ATOM     11  C   UNL     1       6.109   5.219  18.629  0.00  0.00    +0.000 C 
BRANCH   5  12
ATOM     12  O   UNL     1       5.099   6.657  16.976  0.00  0.00    +0.000 OA
ATOM     13  H   UNL     1       5.450   7.352  17.560  0.00  0.00    +0.000 HD
ENDBRANCH   5  12
ENDBRANCH   1   9
BRANCH   1  14
ATOM     14  C   UNL     1       2.076   6.162  19.794  0.00  0.00    +0.000 A 
ATOM     15  C   UNL     1       1.689   6.998  20.840  0.00  0.00    +0.000 A 
ATOM     16  C   UNL     1       1.344   8.326  20.568  0.00  0.00    +0.000 A 
ATOM     17  C   UNL     1       1.434   8.864  19.269  0.00  0.00    +0.000 A 
ATOM     18  C   UNL     1       1.868   8.004  18.242  0.00  0.00    +0.000 A 
ATOM     19  C   UNL     1       2.195   6.668  18.500  0.00  0.00    +0.000 A 
BRANCH  17  20
ATOM     20  C   UNL     1       1.123  10.344  18.969  0.00  0.00    +0.000 C 
ATOM     21  C   UNL     1       2.173  10.994  18.040  0.00  0.00    +0.000 C 
ATOM     22  C   UNL     1      -0.253  10.443  18.274  0.00  0.00    +0.000 C 
ATOM     23  C   UNL     1       1.075  11.189  20.260  0.00  0.00    +0.000 C 
ENDBRANCH  17  20
ENDBRANCH   1  14
TORSDOF 4
ENDMDL
MODEL 7
REMARK VINA RESULT:      -6.7      3.649      7.988
REMARK  Name = 
REMARK  8 active torsions:
REMARK  status: ('A' for Active; 'I' for Inactive)
REMARK    1  A    between atoms: C_1  and  C_2
REMARK    2  A    between atoms: C_2  and  O_3
REMARK    3  A    between atoms: N_7  and  S_8
REMARK    4  A    between atoms: S_8  and  C_11
REMARK    5  A    between atoms: C_14  and  C_15
REMARK    6  A    between atoms: C_15  and  C_16
REMARK    7  A    between atoms: C_15  and  C_17
REMARK    8  A    between atoms: C_15  and  C_18
REMARK                            x       y       z     vdW  Elec       q    Type
REMARK                         _______ _______ _______ _____ _____    ______ ____
ROOT
ATOM      1  S   UNL     1       2.954   5.647  19.021  0.00  0.00    +0.000 S 
ATOM      2  O   UNL     1       2.073   4.990  18.082  0.00  0.00    +0.000 OA
ATOM      3  O   UNL     1       3.356   4.979  20.247  0.00  0.00    +0.000 OA
ENDROOT
BRANCH   1   9
ATOM      4  C   UNL     1       7.373   5.045  14.634  0.00  0.00    +0.000 C 
ATOM      5  C   UNL     1       6.337   4.942  15.759  0.00  0.00    +0.000 C 
ATOM      6  C   UNL     1       7.047   4.471  17.039  0.00  0.00    +0.000 C 
ATOM      7  C   UNL     1       6.139   4.364  18.253  0.00  0.00    +0.000 C 
ATOM      8  C   UNL     1       5.664   5.711  18.776  0.00  0.00    +0.000 C 
ATOM      9  N   UNL     1       4.380   6.129  18.185  0.00  0.00    +0.000 NA
ATOM     10  C   UNL     1       4.273   6.177  16.703  0.00  0.00    +0.000 C 
ATOM     11  C   UNL     1       5.597   6.285  15.938  0.00  0.00    +0.000 C 
BRANCH   5  12
ATOM     12  O   UNL     1       5.384   3.956  15.345  0.00  0.00    +0.000 OA
ATOM     13  H   UNL     1       4.488   4.326  15.434  0.00  0.00    +0.000 HD
ENDBRANCH   5  12
ENDBRANCH   1   9
BRANCH   1  14
ATOM     14  C   UNL     1       2.205   7.197  19.479  0.00  0.00    +0.000 A 
ATOM     15  C   UNL     1       1.702   7.367  20.768  0.00  0.00    +0.000 A 
ATOM     16  C   UNL     1       0.999   8.535  21.083  0.00  0.00    +0.000 A 
ATOM     17  C   UNL     1       0.833   9.575  20.148  0.00  0.00    +0.000 A 
ATOM     18  C   UNL     1       1.390   9.389  18.868  0.00  0.00    +0.000 A 
ATOM     19  C   UNL     1       2.077   8.216  18.536  0.00  0.00    +0.000 A 
BRANCH  17  20
ATOM     20  C   UNL     1       0.120  10.895  20.505  0.00  0.00    +0.000 C 
ATOM     21  C   UNL     1       1.046  12.124  20.372  0.00  0.00    +0.000 C 
ATOM     22  C   UNL     1      -1.079  11.098  19.553  0.00  0.00    +0.000 C 
ATOM     23  C   UNL     1      -0.410  10.882  21.956  0.00  0.00    +0.000 C 
ENDBRANCH  17  20
ENDBRANCH   1  14
TORSDOF 4
ENDMDL
MODEL 8
REMARK VINA RESULT:      -6.7      2.735      3.807
REMARK  Name = 
REMARK  8 active torsions:
REMARK  status: ('A' for Active; 'I' for Inactive)
REMARK    1  A    between atoms: C_1  and  C_2
REMARK    2  A    between atoms: C_2  and  O_3
REMARK    3  A    between atoms: N_7  and  S_8
REMARK    4  A    between atoms: S_8  and  C_11
REMARK    5  A    between atoms: C_14  and  C_15
REMARK    6  A    between atoms: C_15  and  C_16
REMARK    7  A    between atoms: C_15  and  C_17
REMARK    8  A    between atoms: C_15  and  C_18
REMARK                            x       y       z     vdW  Elec       q    Type
REMARK                         _______ _______ _______ _____ _____    ______ ____
ROOT
ATOM      1  S   UNL     1       0.298  10.941  20.114  0.00  0.00    +0.000 S 
ATOM      2  O   UNL     1       0.811  11.358  21.400  0.00  0.00    +0.000 OA
ATOM      3  O   UNL     1      -1.115  10.646  19.945  0.00  0.00    +0.000 OA
ENDROOT
BRANCH   1   9
ATOM      4  C   UNL     1       2.452  16.525  18.296  0.00  0.00    +0.000 C 
ATOM      5  C   UNL     1       1.772  15.293  18.903  0.00  0.00    +0.000 C 
ATOM      6  C   UNL     1       0.254  15.420  18.701  0.00  0.00    +0.000 C 
ATOM      7  C   UNL     1      -0.547  14.238  19.223  0.00  0.00    +0.000 C 
ATOM      8  C   UNL     1      -0.347  12.966  18.414  0.00  0.00    +0.000 C 
ATOM      9  N   UNL     1       0.739  12.122  18.942  0.00  0.00    +0.000 NA
ATOM     10  C   UNL     1       2.082  12.737  19.121  0.00  0.00    +0.000 C 
ATOM     11  C   UNL     1       2.355  13.999  18.296  0.00  0.00    +0.000 C 
BRANCH   5  12
ATOM     12  O   UNL     1       2.076  15.309  20.303  0.00  0.00    +0.000 OA
ATOM     13  H   UNL     1       2.853  14.744  20.463  0.00  0.00    +0.000 HD
ENDBRANCH   5  12
ENDBRANCH   1   9
BRANCH   1  14
ATOM     14  C   UNL     1       1.209   9.498  19.605  0.00  0.00    +0.000 A 
ATOM     15  C   UNL     1       1.641   9.384  18.285  0.00  0.00    +0.000 A 
ATOM     16  C   UNL     1       2.240   8.193  17.858  0.00  0.00    +0.000 A 
ATOM     17  C   UNL     1       2.472   7.122  18.742  0.00  0.00    +0.000 A 
ATOM     18  C   UNL     1       2.061   7.286  20.079  0.00  0.00    +0.000 A 
ATOM     19  C   UNL     1       1.443   8.464  20.511  0.00  0.00    +0.000 A 
BRANCH  17  20
ATOM     20  C   UNL     1       3.192   5.832  18.299  0.00  0.00    +0.000 C 
ATOM     21  C   UNL     1       4.211   6.082  17.165  0.00  0.00    +0.000 C 
ATOM     22  C   UNL     1       3.958   5.239  19.503  0.00  0.00    +0.000 C 
ATOM     23  C   UNL     1       2.195   4.769  17.788  0.00  0.00    +0.000 C 
ENDBRANCH  17  20
ENDBRANCH   1  14
TORSDOF 4
ENDMDL
MODEL 9
REMARK VINA RESULT:      -6.7      3.946      8.226
REMARK  Name = 
REMARK  8 active torsions:
REMARK  status: ('A' for Active; 'I' for Inactive)
REMARK    1  A    between atoms: C_1  and  C_2
REMARK    2  A    between atoms: C_2  and  O_3
REMARK    3  A    between atoms: N_7  and  S_8
REMARK    4  A    between atoms: S_8  and  C_11
REMARK    5  A    between atoms: C_14  and  C_15
REMARK    6  A    between atoms: C_15  and  C_16
REMARK    7  A    between atoms: C_15  and  C_17
REMARK    8  A    between atoms: C_15  and  C_18
REMARK                            x       y       z     vdW  Elec       q    Type
REMARK                         _______ _______ _______ _____ _____    ______ ____
ROOT
ATOM      1  S   UNL     1       3.624   5.424  18.898  0.00  0.00    +0.000 S 
ATOM      2  O   UNL     1       2.787   4.358  18.396  0.00  0.00    +0.000 OA
ATOM      3  O   UNL     1       4.413   5.236  20.104  0.00  0.00    +0.000 OA
ENDROOT
BRANCH   1   9
ATOM      4  C   UNL     1       7.387   4.437  13.999  0.00  0.00    +0.000 C 
ATOM      5  C   UNL     1       6.598   4.486  15.313  0.00  0.00    +0.000 C 
ATOM      6  C   UNL     1       7.583   4.733  16.467  0.00  0.00    +0.000 C 
ATOM      7  C   UNL     1       6.928   4.847  17.834  0.00  0.00    +0.000 C 
ATOM      8  C   UNL     1       6.102   6.113  18.006  0.00  0.00    +0.000 C 
ATOM      9  N   UNL     1       4.687   5.923  17.639  0.00  0.00    +0.000 NA
ATOM     10  C   UNL     1       4.380   5.385  16.286  0.00  0.00    +0.000 C 
ATOM     11  C   UNL     1       5.482   5.550  15.234  0.00  0.00    +0.000 C 
BRANCH   5  12
ATOM     12  O   UNL     1       5.985   3.202  15.468  0.00  0.00    +0.000 OA
ATOM     13  H   UNL     1       6.681   2.522  15.504  0.00  0.00    +0.000 HD
ENDBRANCH   5  12
ENDBRANCH   1   9
BRANCH   1  14
ATOM     14  C   UNL     1       2.594   6.854  19.153  0.00  0.00    +0.000 A 
ATOM     15  C   UNL     1       2.414   7.771  18.118  0.00  0.00    +0.000 A 
ATOM     16  C   UNL     1       1.713   8.957  18.363  0.00  0.00    +0.000 A 
ATOM     17  C   UNL     1       1.130   9.227  19.617  0.00  0.00    +0.000 A 
ATOM     18  C   UNL     1       1.295   8.262  20.628  0.00  0.00    +0.000 A 
ATOM     19  C   UNL     1       2.012   7.082  20.400  0.00  0.00    +0.000 A 
BRANCH  17  20
ATOM     20  C   UNL     1       0.298  10.498  19.878  0.00  0.00    +0.000 C 
ATOM     21  C   UNL     1       1.039  11.788  19.463  0.00  0.00    +0.000 C 
ATOM     22  C   UNL     1      -1.014  10.423  19.066  0.00  0.00    +0.000 C 
ATOM     23  C   UNL     1      -0.066  10.645  21.372  0.00  0.00    +0.000 C 
ENDBRANCH  17  20
ENDBRANCH   1  14
TORSDOF 4
ENDMDL
