MODEL 1
REMARK VINA RESULT:      -8.9      0.000      0.000
REMARK  Name = 
REMARK  5 active torsions:
REMARK  status: ('A' for Active; 'I' for Inactive)
REMARK    1  A    between atoms: C_1  and  C_2
REMARK    2  A    between atoms: C_4  and  C_5
REMARK    3  A    between atoms: C_10  and  N_11
REMARK    4  A    between atoms: N_11  and  N_12
REMARK    5  A    between atoms: C_16  and  C_18
REMARK                            x       y       z     vdW  Elec       q    Type
REMARK                         _______ _______ _______ _____ _____    ______ ____
ROOT
ATOM      1  N   UNL     1       6.693   4.155  16.863  0.00  0.00    +0.000 N 
ATOM      2  C   UNL     1       6.687   4.472  18.207  0.00  0.00    +0.000 C 
ATOM      3  O   UNL     1       7.621   5.019  18.792  0.00  0.00    +0.000 OA
ATOM      4  N   UNL     1       5.542   4.114  18.891  0.00  0.00    +0.000 N 
ATOM      5  C   UNL     1       4.369   3.611  18.346  0.00  0.00    +0.000 C 
ATOM      6  O   UNL     1       4.216   3.469  17.134  0.00  0.00    +0.000 OA
ATOM      7  H   UNL     1       5.767   4.091  16.436  0.00  0.00    +0.000 HD
ATOM      8  H   UNL     1       5.579   4.351  19.874  0.00  0.00    +0.000 HD
ENDROOT
BRANCH   5   9
ATOM      9  C   UNL     1       3.248   3.297  19.265  0.00  0.00    +0.000 A 
ATOM     10  C   UNL     1       3.486   2.559  20.425  0.00  0.00    +0.000 A 
ATOM     11  F   UNL     1       4.691   2.008  20.647  0.00  0.00    +0.000 F 
ATOM     12  C   UNL     1       2.496   2.377  21.389  0.00  0.00    +0.000 A 
ATOM     13  C   UNL     1       1.236   2.941  21.206  0.00  0.00    +0.000 A 
ATOM     14  C   UNL     1       0.967   3.650  20.038  0.00  0.00    +0.000 A 
ATOM     15  C   UNL     1       1.962   3.824  19.064  0.00  0.00    +0.000 A 
ATOM     16 CL   UNL     1       1.485   4.648  17.620  0.00  0.00    +0.000 Cl
ENDBRANCH   5   9
BRANCH   1  17
ATOM     17  N   UNL     1       7.686   4.737  16.054  0.00  0.00    +0.000 N 
ATOM     18  H   UNL     1       8.630   4.380  16.230  0.00  0.00    +0.000 HD
BRANCH  17  24
ATOM     19  C   UNL     1       8.717   6.571  11.763  0.00  0.00    +0.000 C 
ATOM     20  C   UNL     1       7.902   5.603  12.568  0.00  0.00    +0.000 A 
ATOM     21  C   UNL     1       6.908   4.847  11.963  0.00  0.00    +0.000 A 
ATOM     22  C   UNL     1       6.152   3.978  12.750  0.00  0.00    +0.000 A 
ATOM     23  C   UNL     1       6.430   3.906  14.121  0.00  0.00    +0.000 A 
ATOM     24  C   UNL     1       7.444   4.689  14.666  0.00  0.00    +0.000 A 
ATOM     25  N   UNL     1       8.171   5.527  13.896  0.00  0.00    +0.000 NA
BRANCH  22  26
ATOM     26  C   UNL     1       5.043   3.152  12.159  0.00  0.00    +0.000 C 
ATOM     27  F   UNL     1       3.971   3.014  12.991  0.00  0.00    +0.000 F 
ATOM     28  F   UNL     1       4.552   3.680  11.006  0.00  0.00    +0.000 F 
ATOM     29  F   UNL     1       5.440   1.885  11.855  0.00  0.00    +0.000 F 
ENDBRANCH  22  26
ENDBRANCH  17  24
ENDBRANCH   1  17
TORSDOF 4
ENDMDL
MODEL 2
REMARK VINA RESULT:      -8.8      0.898      1.177
REMARK  Name = 
REMARK  5 active torsions:
REMARK  status: ('A' for Active; 'I' for Inactive)
REMARK    1  A    between atoms: C_1  and  C_2
REMARK    2  A    between atoms: C_4  and  C_5
REMARK    3  A    between atoms: C_10  and  N_11
REMARK    4  A    between atoms: N_11  and  N_12
REMARK    5  A    between atoms: C_16  and  C_18
REMARK                            x       y       z     vdW  Elec       q    Type
REMARK                         _______ _______ _______ _____ _____    ______ ____
ROOT
ATOM      1  N   UNL     1       6.573   4.188  16.709  0.00  0.00    +0.000 N 
ATOM      2  C   UNL     1       6.631   4.438  18.065  0.00  0.00    +0.000 C 
ATOM      3  O   UNL     1       7.646   4.803  18.657  0.00  0.00    +0.000 OA
ATOM      4  N   UNL     1       5.452   4.232  18.754  0.00  0.00    +0.000 N 
ATOM      5  C   UNL     1       4.209   3.945  18.208  0.00  0.00    +0.000 C 
ATOM      6  O   UNL     1       4.021   3.887  16.994  0.00  0.00    +0.000 OA
ATOM      7  H   UNL     1       5.643   4.291  16.296  0.00  0.00    +0.000 HD
ATOM      8  H   UNL     1       5.537   4.414  19.746  0.00  0.00    +0.000 HD
ENDROOT
BRANCH   5   9
ATOM      9  C   UNL     1       3.063   3.768  19.133  0.00  0.00    +0.000 A 
ATOM     10  C   UNL     1       2.648   2.485  19.489  0.00  0.00    +0.000 A 
ATOM     11  F   UNL     1       3.184   1.407  18.895  0.00  0.00    +0.000 F 
ATOM     12  C   UNL     1       1.681   2.277  20.472  0.00  0.00    +0.000 A 
ATOM     13  C   UNL     1       1.109   3.366  21.123  0.00  0.00    +0.000 A 
ATOM     14  C   UNL     1       1.481   4.656  20.756  0.00  0.00    +0.000 A 
ATOM     15  C   UNL     1       2.448   4.864  19.760  0.00  0.00    +0.000 A 
ATOM     16 CL   UNL     1       2.764   6.510  19.331  0.00  0.00    +0.000 Cl
ENDBRANCH   5   9
BRANCH   1  17
ATOM     17  N   UNL     1       7.636   4.645  15.909  0.00  0.00    +0.000 N 
ATOM     18  H   UNL     1       8.528   4.176  16.093  0.00  0.00    +0.000 HD
BRANCH  17  24
ATOM     19  C   UNL     1       8.675   6.580  11.665  0.00  0.00    +0.000 C 
ATOM     20  C   UNL     1       7.864   5.587  12.443  0.00  0.00    +0.000 A 
ATOM     21  C   UNL     1       6.880   4.835  11.816  0.00  0.00    +0.000 A 
ATOM     22  C   UNL     1       6.128   3.943  12.580  0.00  0.00    +0.000 A 
ATOM     23  C   UNL     1       6.399   3.844  13.951  0.00  0.00    +0.000 A 
ATOM     24  C   UNL     1       7.403   4.624  14.519  0.00  0.00    +0.000 A 
ATOM     25  N   UNL     1       8.126   5.486  13.771  0.00  0.00    +0.000 NA
BRANCH  22  26
ATOM     26  C   UNL     1       5.031   3.120  11.965  0.00  0.00    +0.000 C 
ATOM     27  F   UNL     1       5.420   1.852  11.647  0.00  0.00    +0.000 F 
ATOM     28  F   UNL     1       3.955   2.983  12.786  0.00  0.00    +0.000 F 
ATOM     29  F   UNL     1       4.556   3.661  10.809  0.00  0.00    +0.000 F 
ENDBRANCH  22  26
ENDBRANCH  17  24
ENDBRANCH   1  17
TORSDOF 4
ENDMDL
MODEL 3
REMARK VINA RESULT:      -8.6      1.337      1.479
REMARK  Name = 
REMARK  5 active torsions:
REMARK  status: ('A' for Active; 'I' for Inactive)
REMARK    1  A    between atoms: C_1  and  C_2
REMARK    2  A    between atoms: C_4  and  C_5
REMARK    3  A    between atoms: C_10  and  N_11
REMARK    4  A    between atoms: N_11  and  N_12
REMARK    5  A    between atoms: C_16  and  C_18
REMARK                            x       y       z     vdW  Elec       q    Type
REMARK                         _______ _______ _______ _____ _____    ______ ____
ROOT
ATOM      1  N   UNL     1       6.647   4.289  16.615  0.00  0.00    +0.000 N 
ATOM      2  C   UNL     1       6.821   4.366  17.982  0.00  0.00    +0.000 C 
ATOM      3  O   UNL     1       7.901   4.589  18.529  0.00  0.00    +0.000 OA
ATOM      4  N   UNL     1       5.683   4.154  18.734  0.00  0.00    +0.000 N 
ATOM      5  C   UNL     1       4.386   4.019  18.260  0.00  0.00    +0.000 C 
ATOM      6  O   UNL     1       4.107   4.122  17.067  0.00  0.00    +0.000 OA
ATOM      7  H   UNL     1       5.701   4.502  16.293  0.00  0.00    +0.000 HD
ATOM      8  H   UNL     1       5.852   4.207  19.730  0.00  0.00    +0.000 HD
ENDROOT
BRANCH   5   9
ATOM      9  C   UNL     1       3.299   3.804  19.247  0.00  0.00    +0.000 A 
ATOM     10  C   UNL     1       2.758   4.891  19.933  0.00  0.00    +0.000 A 
ATOM     11  F   UNL     1       3.305   6.112  19.814  0.00  0.00    +0.000 F 
ATOM     12  C   UNL     1       1.636   4.754  20.749  0.00  0.00    +0.000 A 
ATOM     13  C   UNL     1       1.029   3.509  20.890  0.00  0.00    +0.000 A 
ATOM     14  C   UNL     1       1.576   2.404  20.244  0.00  0.00    +0.000 A 
ATOM     15  C   UNL     1       2.711   2.542  19.430  0.00  0.00    +0.000 A 
ATOM     16 CL   UNL     1       3.348   1.085  18.750  0.00  0.00    +0.000 Cl
ENDBRANCH   5   9
BRANCH   1  17
ATOM     17  N   UNL     1       7.681   4.771  15.791  0.00  0.00    +0.000 N 
ATOM     18  H   UNL     1       8.592   4.339  15.970  0.00  0.00    +0.000 HD
BRANCH  17  24
ATOM     19  C   UNL     1       8.632   6.626  11.491  0.00  0.00    +0.000 C 
ATOM     20  C   UNL     1       7.847   5.639  12.302  0.00  0.00    +0.000 A 
ATOM     21  C   UNL     1       6.867   4.859  11.706  0.00  0.00    +0.000 A 
ATOM     22  C   UNL     1       6.139   3.973  12.499  0.00  0.00    +0.000 A 
ATOM     23  C   UNL     1       6.430   3.908  13.868  0.00  0.00    +0.000 A 
ATOM     24  C   UNL     1       7.429   4.716  14.405  0.00  0.00    +0.000 A 
ATOM     25  N   UNL     1       8.129   5.571  13.628  0.00  0.00    +0.000 NA
BRANCH  22  26
ATOM     26  C   UNL     1       5.045   3.120  11.918  0.00  0.00    +0.000 C 
ATOM     27  F   UNL     1       3.969   2.984  12.745  0.00  0.00    +0.000 F 
ATOM     28  F   UNL     1       4.555   3.618  10.752  0.00  0.00    +0.000 F 
ATOM     29  F   UNL     1       5.462   1.853  11.642  0.00  0.00    +0.000 F 
ENDBRANCH  22  26
ENDBRANCH  17  24
ENDBRANCH   1  17
TORSDOF 4
ENDMDL
MODEL 4
REMARK VINA RESULT:      -8.4      6.839      8.899
REMARK  Name = 
REMARK  5 active torsions:
REMARK  status: ('A' for Active; 'I' for Inactive)
REMARK    1  A    between atoms: C_1  and  C_2
REMARK    2  A    between atoms: C_4  and  C_5
REMARK    3  A    between atoms: C_10  and  N_11
REMARK    4  A    between atoms: N_11  and  N_12
REMARK    5  A    between atoms: C_16  and  C_18
REMARK                            x       y       z     vdW  Elec       q    Type
REMARK                         _______ _______ _______ _____ _____    ______ ____
ROOT
ATOM      1  N   UNL     1       1.423   8.949  19.244  0.00  0.00    +0.000 N 
ATOM      2  C   UNL     1       2.132   8.314  18.244  0.00  0.00    +0.000 C 
ATOM      3  O   UNL     1       2.471   8.849  17.189  0.00  0.00    +0.000 OA
ATOM      4  N   UNL     1       2.439   6.990  18.490  0.00  0.00    +0.000 N 
ATOM      5  C   UNL     1       2.236   6.295  19.674  0.00  0.00    +0.000 C 
ATOM      6  O   UNL     1       1.780   6.831  20.682  0.00  0.00    +0.000 OA
ATOM      7  H   UNL     1       1.558   8.557  20.178  0.00  0.00    +0.000 HD
ATOM      8  H   UNL     1       2.947   6.555  17.731  0.00  0.00    +0.000 HD
ENDROOT
BRANCH   5   9
ATOM      9  C   UNL     1       2.648   4.871  19.728  0.00  0.00    +0.000 A 
ATOM     10  C   UNL     1       1.692   3.878  19.943  0.00  0.00    +0.000 A 
ATOM     11  F   UNL     1       0.424   4.206  20.241  0.00  0.00    +0.000 F 
ATOM     12  C   UNL     1       2.012   2.524  19.846  0.00  0.00    +0.000 A 
ATOM     13  C   UNL     1       3.311   2.139  19.525  0.00  0.00    +0.000 A 
ATOM     14  C   UNL     1       4.289   3.114  19.345  0.00  0.00    +0.000 A 
ATOM     15  C   UNL     1       3.967   4.476  19.452  0.00  0.00    +0.000 A 
ATOM     16 CL   UNL     1       5.282   5.588  19.292  0.00  0.00    +0.000 Cl
ENDBRANCH   5   9
BRANCH   1  17
ATOM     17  N   UNL     1       1.328  10.352  19.193  0.00  0.00    +0.000 N 
ATOM     18  H   UNL     1       1.959  10.789  18.515  0.00  0.00    +0.000 HD
BRANCH  17  24
ATOM     19  C   UNL     1      -1.892  13.662  20.426  0.00  0.00    +0.000 C 
ATOM     20  C   UNL     1      -1.569  12.447  19.608  0.00  0.00    +0.000 A 
ATOM     21  C   UNL     1      -2.548  11.838  18.835  0.00  0.00    +0.000 A 
ATOM     22  C   UNL     1      -2.217  10.694  18.111  0.00  0.00    +0.000 A 
ATOM     23  C   UNL     1      -0.905  10.206  18.194  0.00  0.00    +0.000 A 
ATOM     24  C   UNL     1       0.031  10.866  18.986  0.00  0.00    +0.000 A 
ATOM     25  N   UNL     1      -0.299  11.974  19.684  0.00  0.00    +0.000 NA
BRANCH  22  26
ATOM     26  C   UNL     1      -3.239   9.973  17.276  0.00  0.00    +0.000 C 
ATOM     27  F   UNL     1      -2.732   9.473  16.113  0.00  0.00    +0.000 F 
ATOM     28  F   UNL     1      -3.793   8.913  17.924  0.00  0.00    +0.000 F 
ATOM     29  F   UNL     1      -4.276  10.776  16.912  0.00  0.00    +0.000 F 
ENDBRANCH  22  26
ENDBRANCH  17  24
ENDBRANCH   1  17
TORSDOF 4
ENDMDL
MODEL 5
REMARK VINA RESULT:      -8.2      5.411      8.602
REMARK  Name = 
REMARK  5 active torsions:
REMARK  status: ('A' for Active; 'I' for Inactive)
REMARK    1  A    between atoms: C_1  and  C_2
REMARK    2  A    between atoms: C_4  and  C_5
REMARK    3  A    between atoms: C_10  and  N_11
REMARK    4  A    between atoms: N_11  and  N_12
REMARK    5  A    between atoms: C_16  and  C_18
REMARK                            x       y       z     vdW  Elec       q    Type
REMARK                         _______ _______ _______ _____ _____    ______ ____
ROOT
ATOM      1  N   UNL     1       2.872   6.343  20.279  0.00  0.00    +0.000 N 
ATOM      2  C   UNL     1       3.164   5.009  20.073  0.00  0.00    +0.000 C 
ATOM      3  O   UNL     1       2.750   4.093  20.783  0.00  0.00    +0.000 OA
ATOM      4  N   UNL     1       3.992   4.747  19.000  0.00  0.00    +0.000 N 
ATOM      5  C   UNL     1       4.431   5.654  18.046  0.00  0.00    +0.000 C 
ATOM      6  O   UNL     1       4.070   6.829  18.041  0.00  0.00    +0.000 OA
ATOM      7  H   UNL     1       2.924   6.925  19.441  0.00  0.00    +0.000 HD
ATOM      8  H   UNL     1       4.194   3.762  18.888  0.00  0.00    +0.000 HD
ENDROOT
BRANCH   5   9
ATOM      9  C   UNL     1       5.315   5.158  16.963  0.00  0.00    +0.000 A 
ATOM     10  C   UNL     1       4.827   4.240  16.032  0.00  0.00    +0.000 A 
ATOM     11  F   UNL     1       3.610   3.694  16.187  0.00  0.00    +0.000 F 
ATOM     12  C   UNL     1       5.572   3.870  14.913  0.00  0.00    +0.000 A 
ATOM     13  C   UNL     1       6.833   4.422  14.705  0.00  0.00    +0.000 A 
ATOM     14  C   UNL     1       7.354   5.311  15.642  0.00  0.00    +0.000 A 
ATOM     15  C   UNL     1       6.607   5.676  16.773  0.00  0.00    +0.000 A 
ATOM     16 CL   UNL     1       7.392   6.719  17.907  0.00  0.00    +0.000 Cl
ENDBRANCH   5   9
BRANCH   1  17
ATOM     17  N   UNL     1       1.822   6.658  21.161  0.00  0.00    +0.000 N 
ATOM     18  H   UNL     1       2.052   6.519  22.150  0.00  0.00    +0.000 HD
BRANCH  17  24
ATOM     19  C   UNL     1      -0.745  10.152  23.172  0.00  0.00    +0.000 C 
ATOM     20  C   UNL     1      -0.023   9.643  21.960  0.00  0.00    +0.000 A 
ATOM     21  C   UNL     1      -0.049  10.359  20.772  0.00  0.00    +0.000 A 
ATOM     22  C   UNL     1       0.611   9.840  19.659  0.00  0.00    +0.000 A 
ATOM     23  C   UNL     1       1.275   8.613  19.789  0.00  0.00    +0.000 A 
ATOM     24  C   UNL     1       1.267   7.945  21.011  0.00  0.00    +0.000 A 
ATOM     25  N   UNL     1       0.625   8.456  22.083  0.00  0.00    +0.000 NA
BRANCH  22  26
ATOM     26  C   UNL     1       0.596  10.554  18.336  0.00  0.00    +0.000 C 
ATOM     27  F   UNL     1       1.584  10.145  17.490  0.00  0.00    +0.000 F 
ATOM     28  F   UNL     1      -0.569  10.379  17.658  0.00  0.00    +0.000 F 
ATOM     29  F   UNL     1       0.757  11.901  18.468  0.00  0.00    +0.000 F 
ENDBRANCH  22  26
ENDBRANCH  17  24
ENDBRANCH   1  17
TORSDOF 4
ENDMDL
MODEL 6
REMARK VINA RESULT:      -8.2      5.965      9.261
REMARK  Name = 
REMARK  5 active torsions:
REMARK  status: ('A' for Active; 'I' for Inactive)
REMARK    1  A    between atoms: C_1  and  C_2
REMARK    2  A    between atoms: C_4  and  C_5
REMARK    3  A    between atoms: C_10  and  N_11
REMARK    4  A    between atoms: N_11  and  N_12
REMARK    5  A    between atoms: C_16  and  C_18
REMARK                            x       y       z     vdW  Elec       q    Type
REMARK                         _______ _______ _______ _____ _____    ______ ____
ROOT
ATOM      1  N   UNL     1       2.601   6.803  20.171  0.00  0.00    +0.000 N 
ATOM      2  C   UNL     1       2.963   5.471  20.155  0.00  0.00    +0.000 C 
ATOM      3  O   UNL     1       2.586   4.642  20.982  0.00  0.00    +0.000 OA
ATOM      4  N   UNL     1       3.817   5.105  19.134  0.00  0.00    +0.000 N 
ATOM      5  C   UNL     1       4.222   5.893  18.065  0.00  0.00    +0.000 C 
ATOM      6  O   UNL     1       3.802   7.036  17.894  0.00  0.00    +0.000 OA
ATOM      7  H   UNL     1       2.634   7.265  19.260  0.00  0.00    +0.000 HD
ATOM      8  H   UNL     1       4.070   4.126  19.161  0.00  0.00    +0.000 HD
ENDROOT
BRANCH   5   9
ATOM      9  C   UNL     1       5.145   5.298  17.067  0.00  0.00    +0.000 A 
ATOM     10  C   UNL     1       4.716   4.237  16.269  0.00  0.00    +0.000 A 
ATOM     11  F   UNL     1       3.525   3.657  16.489  0.00  0.00    +0.000 F 
ATOM     12  C   UNL     1       5.494   3.755  15.217  0.00  0.00    +0.000 A 
ATOM     13  C   UNL     1       6.729   4.336  14.944  0.00  0.00    +0.000 A 
ATOM     14  C   UNL     1       7.192   5.371  15.753  0.00  0.00    +0.000 A 
ATOM     15  C   UNL     1       6.412   5.850  16.817  0.00  0.00    +0.000 A 
ATOM     16 CL   UNL     1       7.129   7.077  17.802  0.00  0.00    +0.000 Cl
ENDBRANCH   5   9
BRANCH   1  17
ATOM     17  N   UNL     1       1.524   7.182  20.994  0.00  0.00    +0.000 N 
ATOM     18  H   UNL     1       1.708   7.079  21.996  0.00  0.00    +0.000 HD
BRANCH  17  24
ATOM     19  C   UNL     1       1.637  11.087  18.242  0.00  0.00    +0.000 C 
ATOM     20  C   UNL     1       1.089  10.409  19.462  0.00  0.00    +0.000 A 
ATOM     21  C   UNL     1       0.258  11.096  20.336  0.00  0.00    +0.000 A 
ATOM     22  C   UNL     1      -0.209  10.440  21.474  0.00  0.00    +0.000 A 
ATOM     23  C   UNL     1       0.180   9.111  21.686  0.00  0.00    +0.000 A 
ATOM     24  C   UNL     1       1.013   8.476  20.768  0.00  0.00    +0.000 A 
ATOM     25  N   UNL     1       1.461   9.120  19.669  0.00  0.00    +0.000 NA
BRANCH  22  26
ATOM     26  C   UNL     1      -1.089  11.138  22.473  0.00  0.00    +0.000 C 
ATOM     27  F   UNL     1      -2.257  11.596  21.938  0.00  0.00    +0.000 F 
ATOM     28  F   UNL     1      -1.447  10.334  23.509  0.00  0.00    +0.000 F 
ATOM     29  F   UNL     1      -0.487  12.225  23.031  0.00  0.00    +0.000 F 
ENDBRANCH  22  26
ENDBRANCH  17  24
ENDBRANCH   1  17
TORSDOF 4
ENDMDL
MODEL 7
REMARK VINA RESULT:      -8.2      4.461      5.766
REMARK  Name = 
REMARK  5 active torsions:
REMARK  status: ('A' for Active; 'I' for Inactive)
REMARK    1  A    between atoms: C_1  and  C_2
REMARK    2  A    between atoms: C_4  and  C_5
REMARK    3  A    between atoms: C_10  and  N_11
REMARK    4  A    between atoms: N_11  and  N_12
REMARK    5  A    between atoms: C_16  and  C_18
REMARK                            x       y       z     vdW  Elec       q    Type
REMARK                         _______ _______ _______ _____ _____    ______ ____
ROOT
ATOM      1  N   UNL     1       2.871   5.274  19.341  0.00  0.00    +0.000 N 
ATOM      2  C   UNL     1       2.175   5.409  20.525  0.00  0.00    +0.000 C 
ATOM      3  O   UNL     1       2.050   4.512  21.359  0.00  0.00    +0.000 OA
ATOM      4  N   UNL     1       1.586   6.641  20.725  0.00  0.00    +0.000 N 
ATOM      5  C   UNL     1       1.744   7.776  19.942  0.00  0.00    +0.000 C 
ATOM      6  O   UNL     1       2.495   7.804  18.969  0.00  0.00    +0.000 OA
ATOM      7  H   UNL     1       3.233   6.150  18.957  0.00  0.00    +0.000 HD
ATOM      8  H   UNL     1       1.075   6.698  21.597  0.00  0.00    +0.000 HD
ENDROOT
BRANCH   5   9
ATOM      9  C   UNL     1       1.023   9.009  20.343  0.00  0.00    +0.000 A 
ATOM     10  C   UNL     1       1.010   9.403  21.681  0.00  0.00    +0.000 A 
ATOM     11  F   UNL     1       1.525   8.606  22.631  0.00  0.00    +0.000 F 
ATOM     12  C   UNL     1       0.480  10.631  22.075  0.00  0.00    +0.000 A 
ATOM     13  C   UNL     1      -0.052  11.495  21.121  0.00  0.00    +0.000 A 
ATOM     14  C   UNL     1      -0.083  11.104  19.785  0.00  0.00    +0.000 A 
ATOM     15  C   UNL     1       0.443   9.864  19.392  0.00  0.00    +0.000 A 
ATOM     16 CL   UNL     1       0.269   9.454  17.721  0.00  0.00    +0.000 Cl
ENDBRANCH   5   9
BRANCH   1  17
ATOM     17  N   UNL     1       3.724   4.164  19.202  0.00  0.00    +0.000 N 
ATOM     18  H   UNL     1       3.274   3.340  18.793  0.00  0.00    +0.000 HD
BRANCH  17  24
ATOM     19  C   UNL     1       8.221   5.765  19.442  0.00  0.00    +0.000 C 
ATOM     20  C   UNL     1       7.109   5.225  18.593  0.00  0.00    +0.000 A 
ATOM     21  C   UNL     1       7.260   5.122  17.217  0.00  0.00    +0.000 A 
ATOM     22  C   UNL     1       6.193   4.641  16.458  0.00  0.00    +0.000 A 
ATOM     23  C   UNL     1       5.012   4.281  17.120  0.00  0.00    +0.000 A 
ATOM     24  C   UNL     1       4.926   4.404  18.504  0.00  0.00    +0.000 A 
ATOM     25  N   UNL     1       5.964   4.871  19.230  0.00  0.00    +0.000 NA
BRANCH  22  26
ATOM     26  C   UNL     1       6.284   4.532  14.961  0.00  0.00    +0.000 C 
ATOM     27  F   UNL     1       5.259   5.153  14.311  0.00  0.00    +0.000 F 
ATOM     28  F   UNL     1       7.425   5.081  14.464  0.00  0.00    +0.000 F 
ATOM     29  F   UNL     1       6.268   3.240  14.530  0.00  0.00    +0.000 F 
ENDBRANCH  22  26
ENDBRANCH  17  24
ENDBRANCH   1  17
TORSDOF 4
ENDMDL
MODEL 8
REMARK VINA RESULT:      -8.1      6.899      9.011
REMARK  Name = 
REMARK  5 active torsions:
REMARK  status: ('A' for Active; 'I' for Inactive)
REMARK    1  A    between atoms: C_1  and  C_2
REMARK    2  A    between atoms: C_4  and  C_5
REMARK    3  A    between atoms: C_10  and  N_11
REMARK    4  A    between atoms: N_11  and  N_12
REMARK    5  A    between atoms: C_16  and  C_18
REMARK                            x       y       z     vdW  Elec       q    Type
REMARK                         _______ _______ _______ _____ _____    ______ ____
ROOT
ATOM      1  N   UNL     1       1.386   9.237  19.373  0.00  0.00    +0.000 N 
ATOM      2  C   UNL     1       2.033   8.740  18.260  0.00  0.00    +0.000 C 
ATOM      3  O   UNL     1       2.193   9.369  17.214  0.00  0.00    +0.000 OA
ATOM      4  N   UNL     1       2.494   7.444  18.376  0.00  0.00    +0.000 N 
ATOM      5  C   UNL     1       2.499   6.662  19.524  0.00  0.00    +0.000 C 
ATOM      6  O   UNL     1       2.113   7.087  20.610  0.00  0.00    +0.000 OA
ATOM      7  H   UNL     1       1.666   8.807  20.257  0.00  0.00    +0.000 HD
ATOM      8  H   UNL     1       2.951   7.110  17.538  0.00  0.00    +0.000 HD
ENDROOT
BRANCH   5   9
ATOM      9  C   UNL     1       3.052   5.288  19.432  0.00  0.00    +0.000 A 
ATOM     10  C   UNL     1       4.365   5.095  19.002  0.00  0.00    +0.000 A 
ATOM     11  F   UNL     1       5.089   6.126  18.536  0.00  0.00    +0.000 F 
ATOM     12  C   UNL     1       4.971   3.840  19.050  0.00  0.00    +0.000 A 
ATOM     13  C   UNL     1       4.262   2.746  19.539  0.00  0.00    +0.000 A 
ATOM     14  C   UNL     1       2.939   2.910  19.938  0.00  0.00    +0.000 A 
ATOM     15  C   UNL     1       2.327   4.172  19.880  0.00  0.00    +0.000 A 
ATOM     16 CL   UNL     1       0.656   4.235  20.320  0.00  0.00    +0.000 Cl
ENDBRANCH   5   9
BRANCH   1  17
ATOM     17  N   UNL     1       1.149  10.623  19.432  0.00  0.00    +0.000 N 
ATOM     18  H   UNL     1       1.773  11.179  18.840  0.00  0.00    +0.000 HD
BRANCH  17  24
ATOM     19  C   UNL     1      -2.428  13.564  20.616  0.00  0.00    +0.000 C 
ATOM     20  C   UNL     1      -1.951  12.420  19.770  0.00  0.00    +0.000 A 
ATOM     21  C   UNL     1      -2.827  11.758  18.922  0.00  0.00    +0.000 A 
ATOM     22  C   UNL     1      -2.353  10.682  18.173  0.00  0.00    +0.000 A 
ATOM     23  C   UNL     1      -1.008  10.315  18.309  0.00  0.00    +0.000 A 
ATOM     24  C   UNL     1      -0.178  11.023  19.175  0.00  0.00    +0.000 A 
ATOM     25  N   UNL     1      -0.647  12.064  19.896  0.00  0.00    +0.000 NA
BRANCH  22  26
ATOM     26  C   UNL     1      -3.259   9.907  17.256  0.00  0.00    +0.000 C 
ATOM     27  F   UNL     1      -3.816   8.812  17.847  0.00  0.00    +0.000 F 
ATOM     28  F   UNL     1      -4.300  10.651  16.796  0.00  0.00    +0.000 F 
ATOM     29  F   UNL     1      -2.611   9.442  16.152  0.00  0.00    +0.000 F 
ENDBRANCH  22  26
ENDBRANCH  17  24
ENDBRANCH   1  17
TORSDOF 4
ENDMDL
MODEL 9
REMARK VINA RESULT:      -8.1      6.707      8.501
REMARK  Name = 
REMARK  5 active torsions:
REMARK  status: ('A' for Active; 'I' for Inactive)
REMARK    1  A    between atoms: C_1  and  C_2
REMARK    2  A    between atoms: C_4  and  C_5
REMARK    3  A    between atoms: C_10  and  N_11
REMARK    4  A    between atoms: N_11  and  N_12
REMARK    5  A    between atoms: C_16  and  C_18
REMARK                            x       y       z     vdW  Elec       q    Type
REMARK                         _______ _______ _______ _____ _____    ______ ____
ROOT
ATOM      1  N   UNL     1       1.383   8.551  19.800  0.00  0.00    +0.000 N 
ATOM      2  C   UNL     1       2.168   8.134  18.744  0.00  0.00    +0.000 C 
ATOM      3  O   UNL     1       2.584   8.877  17.856  0.00  0.00    +0.000 OA
ATOM      4  N   UNL     1       2.457   6.784  18.722  0.00  0.00    +0.000 N 
ATOM      5  C   UNL     1       2.166   5.854  19.712  0.00  0.00    +0.000 C 
ATOM      6  O   UNL     1       1.634   6.170  20.774  0.00  0.00    +0.000 OA
ATOM      7  H   UNL     1       1.448   7.967  20.636  0.00  0.00    +0.000 HD
ATOM      8  H   UNL     1       3.022   6.513  17.928  0.00  0.00    +0.000 HD
ENDROOT
BRANCH   5   9
ATOM      9  C   UNL     1       2.575   4.446  19.490  0.00  0.00    +0.000 A 
ATOM     10  C   UNL     1       1.611   3.438  19.458  0.00  0.00    +0.000 A 
ATOM     11  F   UNL     1       0.332   3.710  19.765  0.00  0.00    +0.000 F 
ATOM     12  C   UNL     1       1.934   2.130  19.099  0.00  0.00    +0.000 A 
ATOM     13  C   UNL     1       3.245   1.808  18.760  0.00  0.00    +0.000 A 
ATOM     14  C   UNL     1       4.230   2.790  18.822  0.00  0.00    +0.000 A 
ATOM     15  C   UNL     1       3.904   4.105  19.192  0.00  0.00    +0.000 A 
ATOM     16 CL   UNL     1       5.225   5.215  19.317  0.00  0.00    +0.000 Cl
ENDBRANCH   5   9
BRANCH   1  17
ATOM     17  N   UNL     1       1.290   9.934  20.044  0.00  0.00    +0.000 N 
ATOM     18  H   UNL     1       2.185  10.428  19.993  0.00  0.00    +0.000 HD
BRANCH  17  24
ATOM     19  C   UNL     1      -0.358  14.193  18.634  0.00  0.00    +0.000 C 
ATOM     20  C   UNL     1      -0.493  12.700  18.587  0.00  0.00    +0.000 A 
ATOM     21  C   UNL     1      -1.554  12.110  17.915  0.00  0.00    +0.000 A 
ATOM     22  C   UNL     1      -1.661  10.720  17.917  0.00  0.00    +0.000 A 
ATOM     23  C   UNL     1      -0.689   9.976  18.599  0.00  0.00    +0.000 A 
ATOM     24  C   UNL     1       0.354  10.629  19.251  0.00  0.00    +0.000 A 
ATOM     25  N   UNL     1       0.449  11.976  19.243  0.00  0.00    +0.000 NA
BRANCH  22  26
ATOM     26  C   UNL     1      -2.802  10.022  17.231  0.00  0.00    +0.000 C 
ATOM     27  F   UNL     1      -3.824  10.860  16.894  0.00  0.00    +0.000 F 
ATOM     28  F   UNL     1      -2.426   9.413  16.075  0.00  0.00    +0.000 F 
ATOM     29  F   UNL     1      -3.362   9.050  18.004  0.00  0.00    +0.000 F 
ENDBRANCH  22  26
ENDBRANCH  17  24
ENDBRANCH   1  17
TORSDOF 4
ENDMDL
