MODEL 1
REMARK VINA RESULT:      -6.7      0.000      0.000
REMARK  Name = 
REMARK  14 active torsions:
REMARK  status: ('A' for Active; 'I' for Inactive)
REMARK    1  A    between atoms: C_1  and  C_2
REMARK    2  A    between atoms: C_2  and  C_3
REMARK    3  A    between atoms: C_3  and  C_4
REMARK    4  A    between atoms: C_3  and  N_11
REMARK    5  A    between atoms: C_4  and  O_6
REMARK    6  A    between atoms: O_6  and  C_7
REMARK    7  A    between atoms: C_7  and  C_8
REMARK    8  A    between atoms: C_7  and  C_9
REMARK    9  A    between atoms: C_7  and  C_10
REMARK   10  A    between atoms: N_11  and  C_12
REMARK   11  A    between atoms: C_13  and  C_15
REMARK   12  A    between atoms: C_19  and  C_20
REMARK   13  A    between atoms: C_20  and  O_21
REMARK   14  A    between atoms: O_21  and  C_22
REMARK                            x       y       z     vdW  Elec       q    Type
REMARK                         _______ _______ _______ _____ _____    ______ ____
ROOT
ATOM      1  N   UNL     1       5.652   5.701  18.351  0.00  0.00    +0.000 N 
ATOM      2  C   UNL     1       5.923   4.479  19.109  0.00  0.00    +0.000 C 
ATOM      3  C   UNL     1       4.343   6.133  18.064  0.00  0.00    +0.000 C 
ATOM      4  O   UNL     1       4.131   6.963  17.177  0.00  0.00    +0.000 OA
ENDROOT
BRANCH   3   5
ATOM      5  C   UNL     1       3.222   5.628  18.848  0.00  0.00    +0.000 A 
ATOM      6  C   UNL     1       2.617   6.184  19.954  0.00  0.00    +0.000 A 
ATOM      7  O   UNL     1       1.588   5.416  20.374  0.00  0.00    +0.000 OA
ATOM      8  N   UNL     1       1.436   4.351  19.515  0.00  0.00    +0.000 NA
ATOM      9  C   UNL     1       2.391   4.493  18.583  0.00  0.00    +0.000 A 
BRANCH   9  10
ATOM     10  C   UNL     1       2.429   3.542  17.436  0.00  0.00    +0.000 C 
BRANCH  10  11
ATOM     11  O   UNL     1       2.264   2.181  17.848  0.00  0.00    +0.000 OA
ATOM     12  C   UNL     1       3.506   1.632  18.273  0.00  0.00    +0.000 C 
ENDBRANCH  10  11
ENDBRANCH   9  10
ENDBRANCH   3   5
BRANCH   1  13
ATOM     13  C   UNL     1       6.759   6.229  17.501  0.00  0.00    +0.000 C 
BRANCH  13  15
ATOM     14  C   UNL     1       7.973   8.474  17.773  0.00  0.00    +0.000 C 
ATOM     15  C   UNL     1       7.782   7.059  18.306  0.00  0.00    +0.000 C 
ENDBRANCH  13  15
BRANCH  13  16
ATOM     16  C   UNL     1       7.495   5.077  16.781  0.00  0.00    +0.000 C 
ATOM     17  O   UNL     1       8.122   4.197  17.360  0.00  0.00    +0.000 OA
BRANCH  16  18
ATOM     18  O   UNL     1       7.440   5.221  15.424  0.00  0.00    +0.000 OA
BRANCH  18  19
ATOM     19  C   UNL     1       6.308   4.674  14.691  0.00  0.00    +0.000 C 
ATOM     20  C   UNL     1       6.730   4.073  13.342  0.00  0.00    +0.000 C 
ATOM     21  C   UNL     1       5.752   3.541  15.569  0.00  0.00    +0.000 C 
ATOM     22  C   UNL     1       5.204   5.728  14.520  0.00  0.00    +0.000 C 
ENDBRANCH  18  19
ENDBRANCH  16  18
ENDBRANCH  13  16
ENDBRANCH   1  13
TORSDOF 8
ENDMDL
MODEL 2
REMARK VINA RESULT:      -6.5      1.986      5.821
REMARK  Name = 
REMARK  14 active torsions:
REMARK  status: ('A' for Active; 'I' for Inactive)
REMARK    1  A    between atoms: C_1  and  C_2
REMARK    2  A    between atoms: C_2  and  C_3
REMARK    3  A    between atoms: C_3  and  C_4
REMARK    4  A    between atoms: C_3  and  N_11
REMARK    5  A    between atoms: C_4  and  O_6
REMARK    6  A    between atoms: O_6  and  C_7
REMARK    7  A    between atoms: C_7  and  C_8
REMARK    8  A    between atoms: C_7  and  C_9
REMARK    9  A    between atoms: C_7  and  C_10
REMARK   10  A    between atoms: N_11  and  C_12
REMARK   11  A    between atoms: C_13  and  C_15
REMARK   12  A    between atoms: C_19  and  C_20
REMARK   13  A    between atoms: C_20  and  O_21
REMARK   14  A    between atoms: O_21  and  C_22
REMARK                            x       y       z     vdW  Elec       q    Type
REMARK                         _______ _______ _______ _____ _____    ______ ____
ROOT
ATOM      1  N   UNL     1       3.912   6.701  18.422  0.00  0.00    +0.000 N 
ATOM      2  C   UNL     1       3.550   7.511  17.259  0.00  0.00    +0.000 C 
ATOM      3  C   UNL     1       5.061   5.887  18.443  0.00  0.00    +0.000 C 
ATOM      4  O   UNL     1       5.184   4.987  19.277  0.00  0.00    +0.000 OA
ENDROOT
BRANCH   3   5
ATOM      5  C   UNL     1       6.143   6.130  17.496  0.00  0.00    +0.000 A 
ATOM      6  C   UNL     1       7.201   7.008  17.594  0.00  0.00    +0.000 A 
ATOM      7  O   UNL     1       8.004   6.913  16.512  0.00  0.00    +0.000 OA
ATOM      8  N   UNL     1       7.537   5.916  15.686  0.00  0.00    +0.000 NA
ATOM      9  C   UNL     1       6.443   5.424  16.287  0.00  0.00    +0.000 A 
BRANCH   9  10
ATOM     10  C   UNL     1       5.753   4.248  15.685  0.00  0.00    +0.000 C 
BRANCH  10  11
ATOM     11  O   UNL     1       6.494   3.673  14.604  0.00  0.00    +0.000 OA
ATOM     12  C   UNL     1       5.751   3.747  13.392  0.00  0.00    +0.000 C 
ENDBRANCH  10  11
ENDBRANCH   9  10
ENDBRANCH   3   5
BRANCH   1  13
ATOM     13  C   UNL     1       2.825   6.391  19.396  0.00  0.00    +0.000 C 
BRANCH  13  15
ATOM     14  C   UNL     1       1.501   7.809  21.076  0.00  0.00    +0.000 C 
ATOM     15  C   UNL     1       1.866   7.580  19.614  0.00  0.00    +0.000 C 
ENDBRANCH  13  15
BRANCH  13  16
ATOM     16  C   UNL     1       2.011   5.160  18.937  0.00  0.00    +0.000 C 
ATOM     17  O   UNL     1       1.788   4.887  17.763  0.00  0.00    +0.000 OA
BRANCH  16  18
ATOM     18  O   UNL     1       1.494   4.478  20.000  0.00  0.00    +0.000 OA
BRANCH  18  19
ATOM     19  C   UNL     1       1.667   3.035  20.079  0.00  0.00    +0.000 C 
ATOM     20  C   UNL     1       3.116   2.611  19.798  0.00  0.00    +0.000 C 
ATOM     21  C   UNL     1       1.329   2.655  21.530  0.00  0.00    +0.000 C 
ATOM     22  C   UNL     1       0.677   2.311  19.156  0.00  0.00    +0.000 C 
ENDBRANCH  18  19
ENDBRANCH  16  18
ENDBRANCH  13  16
ENDBRANCH   1  13
TORSDOF 8
ENDMDL
MODEL 3
REMARK VINA RESULT:      -6.1      0.905      1.374
REMARK  Name = 
REMARK  14 active torsions:
REMARK  status: ('A' for Active; 'I' for Inactive)
REMARK    1  A    between atoms: C_1  and  C_2
REMARK    2  A    between atoms: C_2  and  C_3
REMARK    3  A    between atoms: C_3  and  C_4
REMARK    4  A    between atoms: C_3  and  N_11
REMARK    5  A    between atoms: C_4  and  O_6
REMARK    6  A    between atoms: O_6  and  C_7
REMARK    7  A    between atoms: C_7  and  C_8
REMARK    8  A    between atoms: C_7  and  C_9
REMARK    9  A    between atoms: C_7  and  C_10
REMARK   10  A    between atoms: N_11  and  C_12
REMARK   11  A    between atoms: C_13  and  C_15
REMARK   12  A    between atoms: C_19  and  C_20
REMARK   13  A    between atoms: C_20  and  O_21
REMARK   14  A    between atoms: O_21  and  C_22
REMARK                            x       y       z     vdW  Elec       q    Type
REMARK                         _______ _______ _______ _____ _____    ______ ____
ROOT
ATOM      1  N   UNL     1       5.958   5.862  18.672  0.00  0.00    +0.000 N 
ATOM      2  C   UNL     1       6.616   5.185  19.790  0.00  0.00    +0.000 C 
ATOM      3  C   UNL     1       4.592   5.680  18.381  0.00  0.00    +0.000 C 
ATOM      4  O   UNL     1       4.133   5.991  17.280  0.00  0.00    +0.000 OA
ENDROOT
BRANCH   3   5
ATOM      5  C   UNL     1       3.694   5.157  19.403  0.00  0.00    +0.000 A 
ATOM      6  C   UNL     1       2.741   5.822  20.145  0.00  0.00    +0.000 A 
ATOM      7  O   UNL     1       2.097   4.971  20.971  0.00  0.00    +0.000 OA
ATOM      8  N   UNL     1       2.560   3.692  20.758  0.00  0.00    +0.000 NA
ATOM      9  C   UNL     1       3.492   3.796  19.797  0.00  0.00    +0.000 A 
BRANCH   9  10
ATOM     10  C   UNL     1       4.120   2.555  19.262  0.00  0.00    +0.000 C 
BRANCH  10  11
ATOM     11  O   UNL     1       3.801   2.329  17.886  0.00  0.00    +0.000 OA
ATOM     12  C   UNL     1       2.393   2.230  17.706  0.00  0.00    +0.000 C 
ENDBRANCH  10  11
ENDBRANCH   9  10
ENDBRANCH   3   5
BRANCH   1  13
ATOM     13  C   UNL     1       6.837   6.376  17.581  0.00  0.00    +0.000 C 
BRANCH  13  15
ATOM     14  C   UNL     1       7.853   8.732  17.629  0.00  0.00    +0.000 C 
ATOM     15  C   UNL     1       7.965   7.290  18.107  0.00  0.00    +0.000 C 
ENDBRANCH  13  15
BRANCH  13  16
ATOM     16  C   UNL     1       7.461   5.209  16.784  0.00  0.00    +0.000 C 
ATOM     17  O   UNL     1       8.032   4.255  17.300  0.00  0.00    +0.000 OA
BRANCH  16  18
ATOM     18  O   UNL     1       7.382   5.425  15.438  0.00  0.00    +0.000 OA
BRANCH  18  19
ATOM     19  C   UNL     1       6.375   4.721  14.657  0.00  0.00    +0.000 C 
ATOM     20  C   UNL     1       5.776   3.534  15.424  0.00  0.00    +0.000 C 
ATOM     21  C   UNL     1       5.255   5.745  14.407  0.00  0.00    +0.000 C 
ATOM     22  C   UNL     1       6.938   4.290  13.296  0.00  0.00    +0.000 C 
ENDBRANCH  18  19
ENDBRANCH  16  18
ENDBRANCH  13  16
ENDBRANCH   1  13
TORSDOF 8
ENDMDL
MODEL 4
REMARK VINA RESULT:      -6.1      1.874      5.968
REMARK  Name = 
REMARK  14 active torsions:
REMARK  status: ('A' for Active; 'I' for Inactive)
REMARK    1  A    between atoms: C_1  and  C_2
REMARK    2  A    between atoms: C_2  and  C_3
REMARK    3  A    between atoms: C_3  and  C_4
REMARK    4  A    between atoms: C_3  and  N_11
REMARK    5  A    between atoms: C_4  and  O_6
REMARK    6  A    between atoms: O_6  and  C_7
REMARK    7  A    between atoms: C_7  and  C_8
REMARK    8  A    between atoms: C_7  and  C_9
REMARK    9  A    between atoms: C_7  and  C_10
REMARK   10  A    between atoms: N_11  and  C_12
REMARK   11  A    between atoms: C_13  and  C_15
REMARK   12  A    between atoms: C_19  and  C_20
REMARK   13  A    between atoms: C_20  and  O_21
REMARK   14  A    between atoms: O_21  and  C_22
REMARK                            x       y       z     vdW  Elec       q    Type
REMARK                         _______ _______ _______ _____ _____    ______ ____
ROOT
ATOM      1  N   UNL     1       3.877   6.275  18.678  0.00  0.00    +0.000 N 
ATOM      2  C   UNL     1       3.258   6.630  17.401  0.00  0.00    +0.000 C 
ATOM      3  C   UNL     1       5.029   5.466  18.756  0.00  0.00    +0.000 C 
ATOM      4  O   UNL     1       5.349   4.921  19.815  0.00  0.00    +0.000 OA
ENDROOT
BRANCH   3   5
ATOM      5  C   UNL     1       5.881   5.301  17.585  0.00  0.00    +0.000 A 
ATOM      6  C   UNL     1       5.685   4.511  16.473  0.00  0.00    +0.000 A 
ATOM      7  O   UNL     1       6.699   4.661  15.594  0.00  0.00    +0.000 OA
ATOM      8  N   UNL     1       7.576   5.610  16.069  0.00  0.00    +0.000 NA
ATOM      9  C   UNL     1       7.072   6.019  17.243  0.00  0.00    +0.000 A 
BRANCH   9  10
ATOM     10  C   UNL     1       7.745   7.132  17.971  0.00  0.00    +0.000 C 
BRANCH  10  11
ATOM     11  O   UNL     1       7.626   8.384  17.289  0.00  0.00    +0.000 OA
ATOM     12  C   UNL     1       8.321   9.407  17.993  0.00  0.00    +0.000 C 
ENDBRANCH  10  11
ENDBRANCH   9  10
ENDBRANCH   3   5
BRANCH   1  13
ATOM     13  C   UNL     1       3.027   6.388  19.899  0.00  0.00    +0.000 C 
BRANCH  13  15
ATOM     14  C   UNL     1       1.325   7.870  21.120  0.00  0.00    +0.000 C 
ATOM     15  C   UNL     1       1.981   7.519  19.791  0.00  0.00    +0.000 C 
ENDBRANCH  13  15
BRANCH  13  16
ATOM     16  C   UNL     1       2.303   5.054  20.189  0.00  0.00    +0.000 C 
ATOM     17  O   UNL     1       2.303   4.498  21.281  0.00  0.00    +0.000 OA
BRANCH  16  18
ATOM     18  O   UNL     1       1.752   4.529  19.056  0.00  0.00    +0.000 OA
BRANCH  18  19
ATOM     19  C   UNL     1       2.015   3.140  18.708  0.00  0.00    +0.000 C 
ATOM     20  C   UNL     1       3.017   2.484  19.669  0.00  0.00    +0.000 C 
ATOM     21  C   UNL     1       0.667   2.414  18.850  0.00  0.00    +0.000 C 
ATOM     22  C   UNL     1       2.469   3.016  17.247  0.00  0.00    +0.000 C 
ENDBRANCH  18  19
ENDBRANCH  16  18
ENDBRANCH  13  16
ENDBRANCH   1  13
TORSDOF 8
ENDMDL
MODEL 5
REMARK VINA RESULT:      -6.1      2.045      2.865
REMARK  Name = 
REMARK  14 active torsions:
REMARK  status: ('A' for Active; 'I' for Inactive)
REMARK    1  A    between atoms: C_1  and  C_2
REMARK    2  A    between atoms: C_2  and  C_3
REMARK    3  A    between atoms: C_3  and  C_4
REMARK    4  A    between atoms: C_3  and  N_11
REMARK    5  A    between atoms: C_4  and  O_6
REMARK    6  A    between atoms: O_6  and  C_7
REMARK    7  A    between atoms: C_7  and  C_8
REMARK    8  A    between atoms: C_7  and  C_9
REMARK    9  A    between atoms: C_7  and  C_10
REMARK   10  A    between atoms: N_11  and  C_12
REMARK   11  A    between atoms: C_13  and  C_15
REMARK   12  A    between atoms: C_19  and  C_20
REMARK   13  A    between atoms: C_20  and  O_21
REMARK   14  A    between atoms: O_21  and  C_22
REMARK                            x       y       z     vdW  Elec       q    Type
REMARK                         _______ _______ _______ _____ _____    ______ ____
ROOT
ATOM      1  N   UNL     1       3.301   5.878  18.497  0.00  0.00    +0.000 N 
ATOM      2  C   UNL     1       4.401   5.641  19.432  0.00  0.00    +0.000 C 
ATOM      3  C   UNL     1       2.195   5.010  18.401  0.00  0.00    +0.000 C 
ATOM      4  O   UNL     1       1.452   5.039  17.417  0.00  0.00    +0.000 OA
ENDROOT
BRANCH   3   5
ATOM      5  C   UNL     1       1.894   4.093  19.493  0.00  0.00    +0.000 A 
ATOM      6  C   UNL     1       1.249   4.345  20.685  0.00  0.00    +0.000 A 
ATOM      7  O   UNL     1       1.142   3.217  21.420  0.00  0.00    +0.000 OA
ATOM      8  N   UNL     1       1.658   2.160  20.706  0.00  0.00    +0.000 NA
ATOM      9  C   UNL     1       2.078   2.674  19.540  0.00  0.00    +0.000 A 
BRANCH   9  10
ATOM     10  C   UNL     1       2.603   1.755  18.490  0.00  0.00    +0.000 C 
BRANCH  10  11
ATOM     11  O   UNL     1       3.830   1.128  18.875  0.00  0.00    +0.000 OA
ATOM     12  C   UNL     1       4.606   2.001  19.687  0.00  0.00    +0.000 C 
ENDBRANCH  10  11
ENDBRANCH   9  10
ENDBRANCH   3   5
BRANCH   1  13
ATOM     13  C   UNL     1       3.579   6.777  17.339  0.00  0.00    +0.000 C 
BRANCH  13  15
ATOM     14  C   UNL     1       1.807   8.561  17.851  0.00  0.00    +0.000 C 
ATOM     15  C   UNL     1       3.287   8.260  17.655  0.00  0.00    +0.000 C 
ENDBRANCH  13  15
BRANCH  13  16
ATOM     16  C   UNL     1       5.047   6.637  16.875  0.00  0.00    +0.000 C 
ATOM     17  O   UNL     1       5.996   7.172  17.435  0.00  0.00    +0.000 OA
BRANCH  16  18
ATOM     18  O   UNL     1       5.137   5.926  15.713  0.00  0.00    +0.000 OA
BRANCH  18  19
ATOM     19  C   UNL     1       5.838   4.650  15.705  0.00  0.00    +0.000 C 
ATOM     20  C   UNL     1       7.123   4.694  16.544  0.00  0.00    +0.000 C 
ATOM     21  C   UNL     1       4.874   3.644  16.355  0.00  0.00    +0.000 C 
ATOM     22  C   UNL     1       6.115   4.185  14.269  0.00  0.00    +0.000 C 
ENDBRANCH  18  19
ENDBRANCH  16  18
ENDBRANCH  13  16
ENDBRANCH   1  13
TORSDOF 8
ENDMDL
MODEL 6
REMARK VINA RESULT:      -6.1      2.063      6.272
REMARK  Name = 
REMARK  14 active torsions:
REMARK  status: ('A' for Active; 'I' for Inactive)
REMARK    1  A    between atoms: C_1  and  C_2
REMARK    2  A    between atoms: C_2  and  C_3
REMARK    3  A    between atoms: C_3  and  C_4
REMARK    4  A    between atoms: C_3  and  N_11
REMARK    5  A    between atoms: C_4  and  O_6
REMARK    6  A    between atoms: O_6  and  C_7
REMARK    7  A    between atoms: C_7  and  C_8
REMARK    8  A    between atoms: C_7  and  C_9
REMARK    9  A    between atoms: C_7  and  C_10
REMARK   10  A    between atoms: N_11  and  C_12
REMARK   11  A    between atoms: C_13  and  C_15
REMARK   12  A    between atoms: C_19  and  C_20
REMARK   13  A    between atoms: C_20  and  O_21
REMARK   14  A    between atoms: O_21  and  C_22
REMARK                            x       y       z     vdW  Elec       q    Type
REMARK                         _______ _______ _______ _____ _____    ______ ____
ROOT
ATOM      1  N   UNL     1       3.998   6.151  18.098  0.00  0.00    +0.000 N 
ATOM      2  C   UNL     1       3.723   7.180  17.095  0.00  0.00    +0.000 C 
ATOM      3  C   UNL     1       4.839   5.052  17.836  0.00  0.00    +0.000 C 
ATOM      4  O   UNL     1       4.812   4.049  18.553  0.00  0.00    +0.000 OA
ENDROOT
BRANCH   3   5
ATOM      5  C   UNL     1       5.787   5.109  16.729  0.00  0.00    +0.000 A 
ATOM      6  C   UNL     1       5.689   4.550  15.473  0.00  0.00    +0.000 A 
ATOM      7  O   UNL     1       6.771   4.858  14.726  0.00  0.00    +0.000 OA
ATOM      8  N   UNL     1       7.597   5.691  15.445  0.00  0.00    +0.000 NA
ATOM      9  C   UNL     1       6.995   5.870  16.632  0.00  0.00    +0.000 A 
BRANCH   9  10
ATOM     10  C   UNL     1       7.597   6.816  17.613  0.00  0.00    +0.000 C 
BRANCH  10  11
ATOM     11  O   UNL     1       8.035   8.034  17.003  0.00  0.00    +0.000 OA
ATOM     12  C   UNL     1       8.144   9.070  17.972  0.00  0.00    +0.000 C 
ENDBRANCH  10  11
ENDBRANCH   9  10
ENDBRANCH   3   5
BRANCH   1  13
ATOM     13  C   UNL     1       3.029   6.029  19.226  0.00  0.00    +0.000 C 
BRANCH  13  15
ATOM     14  C   UNL     1       1.607   7.393  20.870  0.00  0.00    +0.000 C 
ATOM     15  C   UNL     1       2.262   7.341  19.495  0.00  0.00    +0.000 C 
ENDBRANCH  13  15
BRANCH  13  16
ATOM     16  C   UNL     1       2.015   4.894  18.958  0.00  0.00    +0.000 C 
ATOM     17  O   UNL     1       1.580   4.614  17.847  0.00  0.00    +0.000 OA
BRANCH  16  18
ATOM     18  O   UNL     1       1.595   4.315  20.121  0.00  0.00    +0.000 OA
BRANCH  18  19
ATOM     19  C   UNL     1       1.911   2.918  20.381  0.00  0.00    +0.000 C 
ATOM     20  C   UNL     1       3.425   2.680  20.484  0.00  0.00    +0.000 C 
ATOM     21  C   UNL     1       1.281   2.598  21.747  0.00  0.00    +0.000 C 
ATOM     22  C   UNL     1       1.264   2.003  19.333  0.00  0.00    +0.000 C 
ENDBRANCH  18  19
ENDBRANCH  16  18
ENDBRANCH  13  16
ENDBRANCH   1  13
TORSDOF 8
ENDMDL
MODEL 7
REMARK VINA RESULT:      -6.1      1.898      5.698
REMARK  Name = 
REMARK  14 active torsions:
REMARK  status: ('A' for Active; 'I' for Inactive)
REMARK    1  A    between atoms: C_1  and  C_2
REMARK    2  A    between atoms: C_2  and  C_3
REMARK    3  A    between atoms: C_3  and  C_4
REMARK    4  A    between atoms: C_3  and  N_11
REMARK    5  A    between atoms: C_4  and  O_6
REMARK    6  A    between atoms: O_6  and  C_7
REMARK    7  A    between atoms: C_7  and  C_8
REMARK    8  A    between atoms: C_7  and  C_9
REMARK    9  A    between atoms: C_7  and  C_10
REMARK   10  A    between atoms: N_11  and  C_12
REMARK   11  A    between atoms: C_13  and  C_15
REMARK   12  A    between atoms: C_19  and  C_20
REMARK   13  A    between atoms: C_20  and  O_21
REMARK   14  A    between atoms: O_21  and  C_22
REMARK                            x       y       z     vdW  Elec       q    Type
REMARK                         _______ _______ _______ _____ _____    ______ ____
ROOT
ATOM      1  N   UNL     1       4.260   5.887  18.713  0.00  0.00    +0.000 N 
ATOM      2  C   UNL     1       5.316   5.262  19.510  0.00  0.00    +0.000 C 
ATOM      3  C   UNL     1       4.540   6.692  17.592  0.00  0.00    +0.000 C 
ATOM      4  O   UNL     1       3.687   7.454  17.131  0.00  0.00    +0.000 OA
ENDROOT
BRANCH   3   5
ATOM      5  C   UNL     1       5.839   6.598  16.935  0.00  0.00    +0.000 A 
ATOM      6  C   UNL     1       7.008   7.269  17.224  0.00  0.00    +0.000 A 
ATOM      7  O   UNL     1       8.001   6.878  16.397  0.00  0.00    +0.000 OA
ATOM      8  N   UNL     1       7.537   5.881  15.569  0.00  0.00    +0.000 NA
ATOM      9  C   UNL     1       6.253   5.688  15.911  0.00  0.00    +0.000 A 
BRANCH   9  10
ATOM     10  C   UNL     1       5.488   4.589  15.258  0.00  0.00    +0.000 C 
BRANCH  10  11
ATOM     11  O   UNL     1       6.229   3.950  14.214  0.00  0.00    +0.000 OA
ATOM     12  C   UNL     1       5.373   3.598  13.133  0.00  0.00    +0.000 C 
ENDBRANCH  10  11
ENDBRANCH   9  10
ENDBRANCH   3   5
BRANCH   1  13
ATOM     13  C   UNL     1       2.925   6.042  19.362  0.00  0.00    +0.000 C 
BRANCH  13  15
ATOM     14  C   UNL     1       1.738   8.045  20.439  0.00  0.00    +0.000 C 
ATOM     15  C   UNL     1       2.330   7.453  19.166  0.00  0.00    +0.000 C 
ENDBRANCH  13  15
BRANCH  13  16
ATOM     16  C   UNL     1       1.928   4.992  18.822  0.00  0.00    +0.000 C 
ATOM     17  O   UNL     1       1.653   4.855  17.635  0.00  0.00    +0.000 OA
BRANCH  16  18
ATOM     18  O   UNL     1       1.324   4.308  19.837  0.00  0.00    +0.000 OA
BRANCH  18  19
ATOM     19  C   UNL     1       1.596   2.888  20.008  0.00  0.00    +0.000 C 
ATOM     20  C   UNL     1       3.064   2.544  19.717  0.00  0.00    +0.000 C 
ATOM     21  C   UNL     1       1.317   2.587  21.490  0.00  0.00    +0.000 C 
ATOM     22  C   UNL     1       0.637   2.040  19.161  0.00  0.00    +0.000 C 
ENDBRANCH  18  19
ENDBRANCH  16  18
ENDBRANCH  13  16
ENDBRANCH   1  13
TORSDOF 8
ENDMDL
MODEL 8
REMARK VINA RESULT:      -6.0      1.003      1.258
REMARK  Name = 
REMARK  14 active torsions:
REMARK  status: ('A' for Active; 'I' for Inactive)
REMARK    1  A    between atoms: C_1  and  C_2
REMARK    2  A    between atoms: C_2  and  C_3
REMARK    3  A    between atoms: C_3  and  C_4
REMARK    4  A    between atoms: C_3  and  N_11
REMARK    5  A    between atoms: C_4  and  O_6
REMARK    6  A    between atoms: O_6  and  C_7
REMARK    7  A    between atoms: C_7  and  C_8
REMARK    8  A    between atoms: C_7  and  C_9
REMARK    9  A    between atoms: C_7  and  C_10
REMARK   10  A    between atoms: N_11  and  C_12
REMARK   11  A    between atoms: C_13  and  C_15
REMARK   12  A    between atoms: C_19  and  C_20
REMARK   13  A    between atoms: C_20  and  O_21
REMARK   14  A    between atoms: O_21  and  C_22
REMARK                            x       y       z     vdW  Elec       q    Type
REMARK                         _______ _______ _______ _____ _____    ______ ____
ROOT
ATOM      1  N   UNL     1       5.482   5.741  18.504  0.00  0.00    +0.000 N 
ATOM      2  C   UNL     1       5.699   4.632  19.434  0.00  0.00    +0.000 C 
ATOM      3  C   UNL     1       4.201   6.272  18.254  0.00  0.00    +0.000 C 
ATOM      4  O   UNL     1       3.989   6.970  17.259  0.00  0.00    +0.000 OA
ENDROOT
BRANCH   3   5
ATOM      5  C   UNL     1       3.118   6.033  19.199  0.00  0.00    +0.000 A 
ATOM      6  C   UNL     1       2.471   6.929  20.023  0.00  0.00    +0.000 A 
ATOM      7  O   UNL     1       1.499   6.315  20.730  0.00  0.00    +0.000 OA
ATOM      8  N   UNL     1       1.425   4.994  20.349  0.00  0.00    +0.000 NA
ATOM      9  C   UNL     1       2.369   4.831  19.409  0.00  0.00    +0.000 A 
BRANCH   9  10
ATOM     10  C   UNL     1       2.478   3.517  18.713  0.00  0.00    +0.000 C 
BRANCH  10  11
ATOM     11  O   UNL     1       1.827   2.463  19.428  0.00  0.00    +0.000 OA
ATOM     12  C   UNL     1       0.642   2.056  18.754  0.00  0.00    +0.000 C 
ENDBRANCH  10  11
ENDBRANCH   9  10
ENDBRANCH   3   5
BRANCH   1  13
ATOM     13  C   UNL     1       6.548   5.994  17.491  0.00  0.00    +0.000 C 
BRANCH  13  15
ATOM     14  C   UNL     1       7.737   8.266  17.587  0.00  0.00    +0.000 C 
ATOM     15  C   UNL     1       7.724   6.817  18.059  0.00  0.00    +0.000 C 
ENDBRANCH  13  15
BRANCH  13  16
ATOM     16  C   UNL     1       7.089   4.664  16.920  0.00  0.00    +0.000 C 
ATOM     17  O   UNL     1       8.181   4.189  17.208  0.00  0.00    +0.000 OA
BRANCH  16  18
ATOM     18  O   UNL     1       6.242   4.141  15.986  0.00  0.00    +0.000 OA
BRANCH  18  19
ATOM     19  C   UNL     1       6.255   4.670  14.630  0.00  0.00    +0.000 C 
ATOM     20  C   UNL     1       5.736   3.648  13.608  0.00  0.00    +0.000 C 
ATOM     21  C   UNL     1       5.292   5.868  14.643  0.00  0.00    +0.000 C 
ATOM     22  C   UNL     1       7.651   5.186  14.255  0.00  0.00    +0.000 C 
ENDBRANCH  18  19
ENDBRANCH  16  18
ENDBRANCH  13  16
ENDBRANCH   1  13
TORSDOF 8
ENDMDL
MODEL 9
REMARK VINA RESULT:      -6.0      1.672      5.888
REMARK  Name = 
REMARK  14 active torsions:
REMARK  status: ('A' for Active; 'I' for Inactive)
REMARK    1  A    between atoms: C_1  and  C_2
REMARK    2  A    between atoms: C_2  and  C_3
REMARK    3  A    between atoms: C_3  and  C_4
REMARK    4  A    between atoms: C_3  and  N_11
REMARK    5  A    between atoms: C_4  and  O_6
REMARK    6  A    between atoms: O_6  and  C_7
REMARK    7  A    between atoms: C_7  and  C_8
REMARK    8  A    between atoms: C_7  and  C_9
REMARK    9  A    between atoms: C_7  and  C_10
REMARK   10  A    between atoms: N_11  and  C_12
REMARK   11  A    between atoms: C_13  and  C_15
REMARK   12  A    between atoms: C_19  and  C_20
REMARK   13  A    between atoms: C_20  and  O_21
REMARK   14  A    between atoms: O_21  and  C_22
REMARK                            x       y       z     vdW  Elec       q    Type
REMARK                         _______ _______ _______ _____ _____    ______ ____
ROOT
ATOM      1  N   UNL     1       4.276   5.572  18.762  0.00  0.00    +0.000 N 
ATOM      2  C   UNL     1       5.293   4.688  19.331  0.00  0.00    +0.000 C 
ATOM      3  C   UNL     1       4.477   6.272  17.557  0.00  0.00    +0.000 C 
ATOM      4  O   UNL     1       3.767   7.235  17.258  0.00  0.00    +0.000 OA
ENDROOT
BRANCH   3   5
ATOM      5  C   UNL     1       5.508   5.833  16.624  0.00  0.00    +0.000 A 
ATOM      6  C   UNL     1       5.373   5.113  15.457  0.00  0.00    +0.000 A 
ATOM      7  O   UNL     1       6.573   4.932  14.864  0.00  0.00    +0.000 OA
ATOM      8  N   UNL     1       7.542   5.587  15.590  0.00  0.00    +0.000 NA
ATOM      9  C   UNL     1       6.903   6.154  16.625  0.00  0.00    +0.000 A 
BRANCH   9  10
ATOM     10  C   UNL     1       7.670   7.032  17.555  0.00  0.00    +0.000 C 
BRANCH  10  11
ATOM     11  O   UNL     1       7.500   8.422  17.262  0.00  0.00    +0.000 OA
ATOM     12  C   UNL     1       8.332   9.216  18.099  0.00  0.00    +0.000 C 
ENDBRANCH  10  11
ENDBRANCH   9  10
ENDBRANCH   3   5
BRANCH   1  13
ATOM     13  C   UNL     1       3.225   6.080  19.692  0.00  0.00    +0.000 C 
BRANCH  13  15
ATOM     14  C   UNL     1       1.700   8.084  20.183  0.00  0.00    +0.000 C 
ATOM     15  C   UNL     1       2.475   7.306  19.128  0.00  0.00    +0.000 C 
ENDBRANCH  13  15
BRANCH  13  16
ATOM     16  C   UNL     1       2.202   4.969  20.023  0.00  0.00    +0.000 C 
ATOM     17  O   UNL     1       1.901   4.634  21.162  0.00  0.00    +0.000 OA
BRANCH  16  18
ATOM     18  O   UNL     1       1.756   4.349  18.892  0.00  0.00    +0.000 OA
BRANCH  18  19
ATOM     19  C   UNL     1       1.930   2.910  18.748  0.00  0.00    +0.000 C 
ATOM     20  C   UNL     1       0.588   2.163  18.767  0.00  0.00    +0.000 C 
ATOM     21  C   UNL     1       2.573   2.707  17.366  0.00  0.00    +0.000 C 
ATOM     22  C   UNL     1       2.897   2.364  19.807  0.00  0.00    +0.000 C 
ENDBRANCH  18  19
ENDBRANCH  16  18
ENDBRANCH  13  16
ENDBRANCH   1  13
TORSDOF 8
ENDMDL
