MODEL 1
REMARK VINA RESULT:      -8.4      0.000      0.000
REMARK  Name = 
REMARK  6 active torsions:
REMARK  status: ('A' for Active; 'I' for Inactive)
REMARK    1  A    between atoms: S_2  and  N_4
REMARK    2  A    between atoms: S_2  and  C_19
REMARK    3  A    between atoms: N_4  and  C_5
REMARK    4  A    between atoms: C_8  and  O_9
REMARK    5  A    between atoms: O_9  and  C_10
REMARK    6  A    between atoms: C_10  and  C_11
REMARK                            x       y       z     vdW  Elec       q    Type
REMARK                         _______ _______ _______ _____ _____    ______ ____
ROOT
ATOM      1  C   UNL     1       6.327   4.990  17.695  0.00  0.00    +0.000 A 
ATOM      2  C   UNL     1       6.533   6.017  16.780  0.00  0.00    +0.000 A 
ATOM      3  C   UNL     1       7.363   7.089  17.109  0.00  0.00    +0.000 A 
ATOM      4  C   UNL     1       7.982   7.138  18.359  0.00  0.00    +0.000 A 
ATOM      5  C   UNL     1       7.823   6.075  19.249  0.00  0.00    +0.000 A 
ATOM      6  C   UNL     1       6.980   5.007  18.927  0.00  0.00    +0.000 A 
ENDROOT
BRANCH   1   7
ATOM      7  N   UNL     1       5.448   3.938  17.330  0.00  0.00    +0.000 N 
ATOM      8  H   UNL     1       5.122   3.895  16.368  0.00  0.00    +0.000 HD
BRANCH   7  10
ATOM      9  O   UNL     1       3.409   2.515  17.736  0.00  0.00    +0.000 OA
ATOM     10  S   UNL     1       4.311   3.391  18.454  0.00  0.00    +0.000 S 
ATOM     11  O   UNL     1       4.999   2.959  19.651  0.00  0.00    +0.000 OA
BRANCH  10  12
ATOM     12  C   UNL     1       3.406   4.875  18.822  0.00  0.00    +0.000 A 
ATOM     13  C   UNL     1       3.287   5.851  17.825  0.00  0.00    +0.000 A 
ATOM     14  C   UNL     1       2.682   7.069  18.127  0.00  0.00    +0.000 A 
ATOM     15  C   UNL     1       2.177   7.294  19.408  0.00  0.00    +0.000 A 
ATOM     16  C   UNL     1       2.258   6.299  20.385  0.00  0.00    +0.000 A 
ATOM     17  C   UNL     1       2.873   5.081  20.096  0.00  0.00    +0.000 A 
ENDBRANCH  10  12
ENDBRANCH   7  10
ENDBRANCH   1   7
BRANCH   4  18
ATOM     18  O   UNL     1       8.750   8.181  18.806  0.00  0.00    +0.000 OA
BRANCH  18  19
ATOM     19  C   UNL     1       8.422   9.449  18.229  0.00  0.00    +0.000 C 
BRANCH  19  20
ATOM     20  C   UNL     1       9.353  10.508  18.762  0.00  0.00    +0.000 A 
ATOM     21  C   UNL     1      10.151  11.262  17.892  0.00  0.00    +0.000 A 
ATOM     22  C   UNL     1      10.996  12.250  18.393  0.00  0.00    +0.000 A 
ATOM     23  C   UNL     1      11.053  12.493  19.766  0.00  0.00    +0.000 A 
ATOM     24  C   UNL     1      10.266  11.748  20.640  0.00  0.00    +0.000 A 
ATOM     25  C   UNL     1       9.420  10.759  20.140  0.00  0.00    +0.000 A 
ENDBRANCH  19  20
ENDBRANCH  18  19
ENDBRANCH   4  18
TORSDOF 6
ENDMDL
MODEL 2
REMARK VINA RESULT:      -8.4      4.552      8.284
REMARK  Name = 
REMARK  6 active torsions:
REMARK  status: ('A' for Active; 'I' for Inactive)
REMARK    1  A    between atoms: S_2  and  N_4
REMARK    2  A    between atoms: S_2  and  C_19
REMARK    3  A    between atoms: N_4  and  C_5
REMARK    4  A    between atoms: C_8  and  O_9
REMARK    5  A    between atoms: O_9  and  C_10
REMARK    6  A    between atoms: C_10  and  C_11
REMARK                            x       y       z     vdW  Elec       q    Type
REMARK                         _______ _______ _______ _____ _____    ______ ____
ROOT
ATOM      1  C   UNL     1       2.553   7.133  19.574  0.00  0.00    +0.000 A 
ATOM      2  C   UNL     1       2.729   7.613  18.281  0.00  0.00    +0.000 A 
ATOM      3  C   UNL     1       2.038   8.748  17.857  0.00  0.00    +0.000 A 
ATOM      4  C   UNL     1       1.162   9.400  18.726  0.00  0.00    +0.000 A 
ATOM      5  C   UNL     1       1.037   8.954  20.042  0.00  0.00    +0.000 A 
ATOM      6  C   UNL     1       1.718   7.808  20.465  0.00  0.00    +0.000 A 
ENDROOT
BRANCH   1   7
ATOM      7  N   UNL     1       3.251   5.957  19.951  0.00  0.00    +0.000 N 
ATOM      8  H   UNL     1       4.176   6.056  20.360  0.00  0.00    +0.000 HD
BRANCH   7  10
ATOM      9  O   UNL     1       3.199   3.438  19.918  0.00  0.00    +0.000 OA
ATOM     10  S   UNL     1       3.073   4.563  19.014  0.00  0.00    +0.000 S 
ATOM     11  O   UNL     1       1.924   4.717  18.149  0.00  0.00    +0.000 OA
BRANCH  10  12
ATOM     12  C   UNL     1       4.544   4.591  18.018  0.00  0.00    +0.000 A 
ATOM     13  C   UNL     1       4.442   4.245  16.665  0.00  0.00    +0.000 A 
ATOM     14  C   UNL     1       5.599   4.149  15.894  0.00  0.00    +0.000 A 
ATOM     15  C   UNL     1       6.841   4.425  16.467  0.00  0.00    +0.000 A 
ATOM     16  C   UNL     1       6.930   4.814  17.806  0.00  0.00    +0.000 A 
ATOM     17  C   UNL     1       5.780   4.901  18.590  0.00  0.00    +0.000 A 
ENDBRANCH  10  12
ENDBRANCH   7  10
ENDBRANCH   1   7
BRANCH   4  18
ATOM     18  O   UNL     1       0.381  10.473  18.383  0.00  0.00    +0.000 OA
BRANCH  18  19
ATOM     19  C   UNL     1      -0.900  10.502  19.020  0.00  0.00    +0.000 C 
BRANCH  19  20
ATOM     20  C   UNL     1      -1.986  10.595  17.979  0.00  0.00    +0.000 A 
ATOM     21  C   UNL     1      -3.081  11.449  18.161  0.00  0.00    +0.000 A 
ATOM     22  C   UNL     1      -4.071  11.539  17.186  0.00  0.00    +0.000 A 
ATOM     23  C   UNL     1      -3.978  10.777  16.020  0.00  0.00    +0.000 A 
ATOM     24  C   UNL     1      -2.895   9.923  15.829  0.00  0.00    +0.000 A 
ATOM     25  C   UNL     1      -1.903   9.832  16.805  0.00  0.00    +0.000 A 
ENDBRANCH  19  20
ENDBRANCH  18  19
ENDBRANCH   4  18
TORSDOF 6
ENDMDL
MODEL 3
REMARK VINA RESULT:      -8.3      1.515      2.079
REMARK  Name = 
REMARK  6 active torsions:
REMARK  status: ('A' for Active; 'I' for Inactive)
REMARK    1  A    between atoms: S_2  and  N_4
REMARK    2  A    between atoms: S_2  and  C_19
REMARK    3  A    between atoms: N_4  and  C_5
REMARK    4  A    between atoms: C_8  and  O_9
REMARK    5  A    between atoms: O_9  and  C_10
REMARK    6  A    between atoms: C_10  and  C_11
REMARK                            x       y       z     vdW  Elec       q    Type
REMARK                         _______ _______ _______ _____ _____    ______ ____
ROOT
ATOM      1  C   UNL     1       6.044   4.920  18.029  0.00  0.00    +0.000 A 
ATOM      2  C   UNL     1       6.334   5.791  16.985  0.00  0.00    +0.000 A 
ATOM      3  C   UNL     1       7.257   6.820  17.171  0.00  0.00    +0.000 A 
ATOM      4  C   UNL     1       7.886   6.983  18.407  0.00  0.00    +0.000 A 
ATOM      5  C   UNL     1       7.640   6.068  19.431  0.00  0.00    +0.000 A 
ATOM      6  C   UNL     1       6.704   5.045  19.251  0.00  0.00    +0.000 A 
ENDROOT
BRANCH   1   7
ATOM      7  N   UNL     1       5.074   3.909  17.804  0.00  0.00    +0.000 N 
ATOM      8  H   UNL     1       5.345   3.094  17.260  0.00  0.00    +0.000 HD
BRANCH   7  10
ATOM      9  O   UNL     1       3.422   5.802  17.625  0.00  0.00    +0.000 OA
ATOM     10  S   UNL     1       3.459   4.355  17.593  0.00  0.00    +0.000 S 
ATOM     11  O   UNL     1       2.900   3.604  16.489  0.00  0.00    +0.000 OA
BRANCH  10  12
ATOM     12  C   UNL     1       2.714   3.787  19.103  0.00  0.00    +0.000 A 
ATOM     13  C   UNL     1       1.826   2.705  19.045  0.00  0.00    +0.000 A 
ATOM     14  C   UNL     1       1.143   2.318  20.196  0.00  0.00    +0.000 A 
ATOM     15  C   UNL     1       1.370   2.990  21.398  0.00  0.00    +0.000 A 
ATOM     16  C   UNL     1       2.291   4.039  21.458  0.00  0.00    +0.000 A 
ATOM     17  C   UNL     1       2.971   4.443  20.309  0.00  0.00    +0.000 A 
ENDBRANCH  10  12
ENDBRANCH   7  10
ENDBRANCH   1   7
BRANCH   4  18
ATOM     18  O   UNL     1       8.746   8.005  18.713  0.00  0.00    +0.000 OA
BRANCH  18  19
ATOM     19  C   UNL     1       8.359   9.282  18.195  0.00  0.00    +0.000 C 
BRANCH  19  20
ATOM     20  C   UNL     1       9.283  10.349  18.723  0.00  0.00    +0.000 A 
ATOM     21  C   UNL     1      10.106  11.077  17.855  0.00  0.00    +0.000 A 
ATOM     22  C   UNL     1      10.944  12.073  18.351  0.00  0.00    +0.000 A 
ATOM     23  C   UNL     1      10.970  12.349  19.719  0.00  0.00    +0.000 A 
ATOM     24  C   UNL     1      10.158  11.630  20.592  0.00  0.00    +0.000 A 
ATOM     25  C   UNL     1       9.318  10.633  20.096  0.00  0.00    +0.000 A 
ENDBRANCH  19  20
ENDBRANCH  18  19
ENDBRANCH   4  18
TORSDOF 6
ENDMDL
MODEL 4
REMARK VINA RESULT:      -8.2      0.114      1.397
REMARK  Name = 
REMARK  6 active torsions:
REMARK  status: ('A' for Active; 'I' for Inactive)
REMARK    1  A    between atoms: S_2  and  N_4
REMARK    2  A    between atoms: S_2  and  C_19
REMARK    3  A    between atoms: N_4  and  C_5
REMARK    4  A    between atoms: C_8  and  O_9
REMARK    5  A    between atoms: O_9  and  C_10
REMARK    6  A    between atoms: C_10  and  C_11
REMARK                            x       y       z     vdW  Elec       q    Type
REMARK                         _______ _______ _______ _____ _____    ______ ____
ROOT
ATOM      1  C   UNL     1       6.220   5.045  17.677  0.00  0.00    +0.000 A 
ATOM      2  C   UNL     1       6.900   4.961  18.887  0.00  0.00    +0.000 A 
ATOM      3  C   UNL     1       7.764   5.985  19.274  0.00  0.00    +0.000 A 
ATOM      4  C   UNL     1       7.955   7.092  18.446  0.00  0.00    +0.000 A 
ATOM      5  C   UNL     1       7.222   7.203  17.263  0.00  0.00    +0.000 A 
ATOM      6  C   UNL     1       6.367   6.170  16.866  0.00  0.00    +0.000 A 
ENDROOT
BRANCH   1   7
ATOM      7  N   UNL     1       5.378   3.964  17.309  0.00  0.00    +0.000 N 
ATOM      8  H   UNL     1       5.067   3.903  16.342  0.00  0.00    +0.000 HD
BRANCH   7  10
ATOM      9  O   UNL     1       3.343   2.528  17.687  0.00  0.00    +0.000 OA
ATOM     10  S   UNL     1       4.240   3.395  18.421  0.00  0.00    +0.000 S 
ATOM     11  O   UNL     1       4.927   2.945  19.612  0.00  0.00    +0.000 OA
BRANCH  10  12
ATOM     12  C   UNL     1       3.329   4.870  18.811  0.00  0.00    +0.000 A 
ATOM     13  C   UNL     1       3.121   5.815  17.800  0.00  0.00    +0.000 A 
ATOM     14  C   UNL     1       2.511   7.028  18.111  0.00  0.00    +0.000 A 
ATOM     15  C   UNL     1       2.089   7.278  19.417  0.00  0.00    +0.000 A 
ATOM     16  C   UNL     1       2.258   6.312  20.412  0.00  0.00    +0.000 A 
ATOM     17  C   UNL     1       2.879   5.099  20.113  0.00  0.00    +0.000 A 
ENDBRANCH  10  12
ENDBRANCH   7  10
ENDBRANCH   1   7
BRANCH   4  18
ATOM     18  O   UNL     1       8.837   8.110  18.699  0.00  0.00    +0.000 OA
BRANCH  18  19
ATOM     19  C   UNL     1       8.415   9.392  18.222  0.00  0.00    +0.000 C 
BRANCH  19  20
ATOM     20  C   UNL     1       9.332  10.462  18.757  0.00  0.00    +0.000 A 
ATOM     21  C   UNL     1       9.397  10.728  20.131  0.00  0.00    +0.000 A 
ATOM     22  C   UNL     1      10.259  11.708  20.617  0.00  0.00    +0.000 A 
ATOM     23  C   UNL     1      11.065  12.432  19.736  0.00  0.00    +0.000 A 
ATOM     24  C   UNL     1      11.007  12.177  18.368  0.00  0.00    +0.000 A 
ATOM     25  C   UNL     1      10.144  11.197  17.881  0.00  0.00    +0.000 A 
ENDBRANCH  19  20
ENDBRANCH  18  19
ENDBRANCH   4  18
TORSDOF 6
ENDMDL
MODEL 5
REMARK VINA RESULT:      -8.2      4.429      7.688
REMARK  Name = 
REMARK  6 active torsions:
REMARK  status: ('A' for Active; 'I' for Inactive)
REMARK    1  A    between atoms: S_2  and  N_4
REMARK    2  A    between atoms: S_2  and  C_19
REMARK    3  A    between atoms: N_4  and  C_5
REMARK    4  A    between atoms: C_8  and  O_9
REMARK    5  A    between atoms: O_9  and  C_10
REMARK    6  A    between atoms: C_10  and  C_11
REMARK                            x       y       z     vdW  Elec       q    Type
REMARK                         _______ _______ _______ _____ _____    ______ ____
ROOT
ATOM      1  C   UNL     1       2.711   5.952  19.052  0.00  0.00    +0.000 A 
ATOM      2  C   UNL     1       2.780   6.952  18.088  0.00  0.00    +0.000 A 
ATOM      3  C   UNL     1       2.235   8.210  18.346  0.00  0.00    +0.000 A 
ATOM      4  C   UNL     1       1.612   8.466  19.569  0.00  0.00    +0.000 A 
ATOM      5  C   UNL     1       1.601   7.481  20.557  0.00  0.00    +0.000 A 
ATOM      6  C   UNL     1       2.134   6.215  20.294  0.00  0.00    +0.000 A 
ENDROOT
BRANCH   1   7
ATOM      7  N   UNL     1       3.249   4.679  18.733  0.00  0.00    +0.000 N 
ATOM      8  H   UNL     1       2.661   3.860  18.867  0.00  0.00    +0.000 HD
BRANCH   7  10
ATOM      9  O   UNL     1       5.389   5.527  19.756  0.00  0.00    +0.000 OA
ATOM     10  S   UNL     1       4.888   4.387  19.017  0.00  0.00    +0.000 S 
ATOM     11  O   UNL     1       5.050   3.034  19.505  0.00  0.00    +0.000 OA
BRANCH  10  12
ATOM     12  C   UNL     1       5.576   4.489  17.382  0.00  0.00    +0.000 A 
ATOM     13  C   UNL     1       4.730   4.280  16.287  0.00  0.00    +0.000 A 
ATOM     14  C   UNL     1       5.269   4.242  15.002  0.00  0.00    +0.000 A 
ATOM     15  C   UNL     1       6.638   4.438  14.818  0.00  0.00    +0.000 A 
ATOM     16  C   UNL     1       7.470   4.692  15.912  0.00  0.00    +0.000 A 
ATOM     17  C   UNL     1       6.941   4.720  17.203  0.00  0.00    +0.000 A 
ENDBRANCH  10  12
ENDBRANCH   7  10
ENDBRANCH   1   7
BRANCH   4  18
ATOM     18  O   UNL     1       0.981   9.639  19.889  0.00  0.00    +0.000 OA
BRANCH  18  19
ATOM     19  C   UNL     1       0.812  10.541  18.790  0.00  0.00    +0.000 C 
BRANCH  19  20
ATOM     20  C   UNL     1      -0.651  10.659  18.447  0.00  0.00    +0.000 A 
ATOM     21  C   UNL     1      -1.241   9.791  17.520  0.00  0.00    +0.000 A 
ATOM     22  C   UNL     1      -2.598   9.898  17.222  0.00  0.00    +0.000 A 
ATOM     23  C   UNL     1      -3.377  10.874  17.846  0.00  0.00    +0.000 A 
ATOM     24  C   UNL     1      -2.800  11.743  18.768  0.00  0.00    +0.000 A 
ATOM     25  C   UNL     1      -1.443  11.637  19.067  0.00  0.00    +0.000 A 
ENDBRANCH  19  20
ENDBRANCH  18  19
ENDBRANCH   4  18
TORSDOF 6
ENDMDL
MODEL 6
REMARK VINA RESULT:      -8.2      4.430      7.657
REMARK  Name = 
REMARK  6 active torsions:
REMARK  status: ('A' for Active; 'I' for Inactive)
REMARK    1  A    between atoms: S_2  and  N_4
REMARK    2  A    between atoms: S_2  and  C_19
REMARK    3  A    between atoms: N_4  and  C_5
REMARK    4  A    between atoms: C_8  and  O_9
REMARK    5  A    between atoms: O_9  and  C_10
REMARK    6  A    between atoms: C_10  and  C_11
REMARK                            x       y       z     vdW  Elec       q    Type
REMARK                         _______ _______ _______ _____ _____    ______ ____
ROOT
ATOM      1  C   UNL     1       2.715   5.833  19.018  0.00  0.00    +0.000 A 
ATOM      2  C   UNL     1       2.098   6.059  20.243  0.00  0.00    +0.000 A 
ATOM      3  C   UNL     1       1.553   7.311  20.529  0.00  0.00    +0.000 A 
ATOM      4  C   UNL     1       1.633   8.342  19.591  0.00  0.00    +0.000 A 
ATOM      5  C   UNL     1       2.196   8.092  18.339  0.00  0.00    +0.000 A 
ATOM      6  C   UNL     1       2.756   6.842  18.056  0.00  0.00    +0.000 A 
ENDROOT
BRANCH   1   7
ATOM      7  N   UNL     1       3.284   4.554  18.783  0.00  0.00    +0.000 N 
ATOM      8  H   UNL     1       2.723   3.732  18.989  0.00  0.00    +0.000 HD
BRANCH   7  10
ATOM      9  O   UNL     1       5.410   5.523  19.727  0.00  0.00    +0.000 OA
ATOM     10  S   UNL     1       4.936   4.330  19.057  0.00  0.00    +0.000 S 
ATOM     11  O   UNL     1       5.149   3.010  19.612  0.00  0.00    +0.000 OA
BRANCH  10  12
ATOM     12  C   UNL     1       5.597   4.367  17.408  0.00  0.00    +0.000 A 
ATOM     13  C   UNL     1       6.954   4.666  17.239  0.00  0.00    +0.000 A 
ATOM     14  C   UNL     1       7.468   4.814  15.952  0.00  0.00    +0.000 A 
ATOM     15  C   UNL     1       6.634   4.636  14.847  0.00  0.00    +0.000 A 
ATOM     16  C   UNL     1       5.291   4.293  15.023  0.00  0.00    +0.000 A 
ATOM     17  C   UNL     1       4.764   4.155  16.308  0.00  0.00    +0.000 A 
ENDBRANCH  10  12
ENDBRANCH   7  10
ENDBRANCH   1   7
BRANCH   4  18
ATOM     18  O   UNL     1       1.200   9.624  19.805  0.00  0.00    +0.000 OA
BRANCH  18  19
ATOM     19  C   UNL     1       0.978  10.382  18.612  0.00  0.00    +0.000 C 
BRANCH  19  20
ATOM     20  C   UNL     1      -0.496  10.650  18.443  0.00  0.00    +0.000 A 
ATOM     21  C   UNL     1      -1.260   9.901  17.540  0.00  0.00    +0.000 A 
ATOM     22  C   UNL     1      -2.625  10.144  17.404  0.00  0.00    +0.000 A 
ATOM     23  C   UNL     1      -3.239  11.139  18.168  0.00  0.00    +0.000 A 
ATOM     24  C   UNL     1      -2.488  11.891  19.067  0.00  0.00    +0.000 A 
ATOM     25  C   UNL     1      -1.121  11.648  19.204  0.00  0.00    +0.000 A 
ENDBRANCH  19  20
ENDBRANCH  18  19
ENDBRANCH   4  18
TORSDOF 6
ENDMDL
MODEL 7
REMARK VINA RESULT:      -8.2      4.303      8.423
REMARK  Name = 
REMARK  6 active torsions:
REMARK  status: ('A' for Active; 'I' for Inactive)
REMARK    1  A    between atoms: S_2  and  N_4
REMARK    2  A    between atoms: S_2  and  C_19
REMARK    3  A    between atoms: N_4  and  C_5
REMARK    4  A    between atoms: C_8  and  O_9
REMARK    5  A    between atoms: O_9  and  C_10
REMARK    6  A    between atoms: C_10  and  C_11
REMARK                            x       y       z     vdW  Elec       q    Type
REMARK                         _______ _______ _______ _____ _____    ______ ____
ROOT
ATOM      1  C   UNL     1       2.506   7.317  19.374  0.00  0.00    +0.000 A 
ATOM      2  C   UNL     1       1.699   7.771  20.412  0.00  0.00    +0.000 A 
ATOM      3  C   UNL     1       0.891   8.893  20.227  0.00  0.00    +0.000 A 
ATOM      4  C   UNL     1       0.896   9.567  19.005  0.00  0.00    +0.000 A 
ATOM      5  C   UNL     1       1.659   9.071  17.947  0.00  0.00    +0.000 A 
ATOM      6  C   UNL     1       2.480   7.954  18.134  0.00  0.00    +0.000 A 
ENDROOT
BRANCH   1   7
ATOM      7  N   UNL     1       3.336   6.192  19.618  0.00  0.00    +0.000 N 
ATOM      8  H   UNL     1       4.297   6.356  19.906  0.00  0.00    +0.000 HD
BRANCH   7  10
ATOM      9  O   UNL     1       3.385   3.675  19.534  0.00  0.00    +0.000 OA
ATOM     10  S   UNL     1       3.143   4.809  18.667  0.00  0.00    +0.000 S 
ATOM     11  O   UNL     1       1.925   4.931  17.896  0.00  0.00    +0.000 OA
BRANCH  10  12
ATOM     12  C   UNL     1       4.530   4.919  17.562  0.00  0.00    +0.000 A 
ATOM     13  C   UNL     1       4.636   3.983  16.526  0.00  0.00    +0.000 A 
ATOM     14  C   UNL     1       5.772   3.978  15.720  0.00  0.00    +0.000 A 
ATOM     15  C   UNL     1       6.778   4.921  15.933  0.00  0.00    +0.000 A 
ATOM     16  C   UNL     1       6.645   5.882  16.939  0.00  0.00    +0.000 A 
ATOM     17  C   UNL     1       5.517   5.887  17.759  0.00  0.00    +0.000 A 
ENDBRANCH  10  12
ENDBRANCH   7  10
ENDBRANCH   1   7
BRANCH   4  18
ATOM     18  O   UNL     1       0.200  10.719  18.749  0.00  0.00    +0.000 OA
BRANCH  18  19
ATOM     19  C   UNL     1      -1.137  10.729  19.258  0.00  0.00    +0.000 C 
BRANCH  19  20
ATOM     20  C   UNL     1      -2.119  10.729  18.114  0.00  0.00    +0.000 A 
ATOM     21  C   UNL     1      -3.267  11.530  18.155  0.00  0.00    +0.000 A 
ATOM     22  C   UNL     1      -4.159  11.536  17.085  0.00  0.00    +0.000 A 
ATOM     23  C   UNL     1      -3.913  10.741  15.964  0.00  0.00    +0.000 A 
ATOM     24  C   UNL     1      -2.776   9.939  15.913  0.00  0.00    +0.000 A 
ATOM     25  C   UNL     1      -1.883   9.933  16.984  0.00  0.00    +0.000 A 
ENDBRANCH  19  20
ENDBRANCH  18  19
ENDBRANCH   4  18
TORSDOF 6
ENDMDL
MODEL 8
REMARK VINA RESULT:      -8.2      0.207      1.404
REMARK  Name = 
REMARK  6 active torsions:
REMARK  status: ('A' for Active; 'I' for Inactive)
REMARK    1  A    between atoms: S_2  and  N_4
REMARK    2  A    between atoms: S_2  and  C_19
REMARK    3  A    between atoms: N_4  and  C_5
REMARK    4  A    between atoms: C_8  and  O_9
REMARK    5  A    between atoms: O_9  and  C_10
REMARK    6  A    between atoms: C_10  and  C_11
REMARK                            x       y       z     vdW  Elec       q    Type
REMARK                         _______ _______ _______ _____ _____    ______ ____
ROOT
ATOM      1  C   UNL     1       6.275   5.121  17.606  0.00  0.00    +0.000 A 
ATOM      2  C   UNL     1       7.013   4.970  18.776  0.00  0.00    +0.000 A 
ATOM      3  C   UNL     1       7.861   5.991  19.202  0.00  0.00    +0.000 A 
ATOM      4  C   UNL     1       7.978   7.164  18.454  0.00  0.00    +0.000 A 
ATOM      5  C   UNL     1       7.189   7.337  17.316  0.00  0.00    +0.000 A 
ATOM      6  C   UNL     1       6.349   6.308  16.879  0.00  0.00    +0.000 A 
ENDROOT
BRANCH   1   7
ATOM      7  N   UNL     1       5.452   4.042  17.193  0.00  0.00    +0.000 N 
ATOM      8  H   UNL     1       5.216   3.966  16.206  0.00  0.00    +0.000 HD
BRANCH   7  10
ATOM      9  O   UNL     1       3.271   2.797  17.395  0.00  0.00    +0.000 OA
ATOM     10  S   UNL     1       4.225   3.506  18.222  0.00  0.00    +0.000 S 
ATOM     11  O   UNL     1       4.820   2.895  19.391  0.00  0.00    +0.000 OA
BRANCH  10  12
ATOM     12  C   UNL     1       3.452   5.031  18.709  0.00  0.00    +0.000 A 
ATOM     13  C   UNL     1       3.077   5.193  20.048  0.00  0.00    +0.000 A 
ATOM     14  C   UNL     1       2.367   6.330  20.427  0.00  0.00    +0.000 A 
ATOM     15  C   UNL     1       2.062   7.307  19.479  0.00  0.00    +0.000 A 
ATOM     16  C   UNL     1       2.481   7.160  18.153  0.00  0.00    +0.000 A 
ATOM     17  C   UNL     1       3.180   6.019  17.761  0.00  0.00    +0.000 A 
ENDBRANCH  10  12
ENDBRANCH   7  10
ENDBRANCH   1   7
BRANCH   4  18
ATOM     18  O   UNL     1       8.838   8.190  18.746  0.00  0.00    +0.000 OA
BRANCH  18  19
ATOM     19  C   UNL     1       8.445   9.461  18.218  0.00  0.00    +0.000 C 
BRANCH  19  20
ATOM     20  C   UNL     1       9.356  10.538  18.750  0.00  0.00    +0.000 A 
ATOM     21  C   UNL     1      10.095  11.346  17.878  0.00  0.00    +0.000 A 
ATOM     22  C   UNL     1      10.921  12.350  18.379  0.00  0.00    +0.000 A 
ATOM     23  C   UNL     1      11.017  12.555  19.756  0.00  0.00    +0.000 A 
ATOM     24  C   UNL     1      10.288  11.756  20.633  0.00  0.00    +0.000 A 
ATOM     25  C   UNL     1       9.461  10.751  20.132  0.00  0.00    +0.000 A 
ENDBRANCH  19  20
ENDBRANCH  18  19
ENDBRANCH   4  18
TORSDOF 6
ENDMDL
MODEL 9
REMARK VINA RESULT:      -8.1      5.002      7.063
REMARK  Name = 
REMARK  6 active torsions:
REMARK  status: ('A' for Active; 'I' for Inactive)
REMARK    1  A    between atoms: S_2  and  N_4
REMARK    2  A    between atoms: S_2  and  C_19
REMARK    3  A    between atoms: N_4  and  C_5
REMARK    4  A    between atoms: C_8  and  O_9
REMARK    5  A    between atoms: O_9  and  C_10
REMARK    6  A    between atoms: C_10  and  C_11
REMARK                            x       y       z     vdW  Elec       q    Type
REMARK                         _______ _______ _______ _____ _____    ______ ____
ROOT
ATOM      1  C   UNL     1       4.569   4.215  17.601  0.00  0.00    +0.000 A 
ATOM      2  C   UNL     1       4.927   4.685  18.860  0.00  0.00    +0.000 A 
ATOM      3  C   UNL     1       3.947   5.168  19.728  0.00  0.00    +0.000 A 
ATOM      4  C   UNL     1       2.609   5.189  19.333  0.00  0.00    +0.000 A 
ATOM      5  C   UNL     1       2.247   4.658  18.094  0.00  0.00    +0.000 A 
ATOM      6  C   UNL     1       3.229   4.187  17.217  0.00  0.00    +0.000 A 
ENDROOT
BRANCH   1   7
ATOM      7  N   UNL     1       5.603   3.764  16.739  0.00  0.00    +0.000 N 
ATOM      8  H   UNL     1       5.958   2.820  16.866  0.00  0.00    +0.000 HD
BRANCH   7  10
ATOM      9  O   UNL     1       6.234   6.186  16.450  0.00  0.00    +0.000 OA
ATOM     10  S   UNL     1       6.777   4.863  16.222  0.00  0.00    +0.000 S 
ATOM     11  O   UNL     1       8.063   4.467  16.754  0.00  0.00    +0.000 OA
BRANCH  10  12
ATOM     12  C   UNL     1       6.783   4.604  14.464  0.00  0.00    +0.000 A 
ATOM     13  C   UNL     1       5.913   3.648  13.926  0.00  0.00    +0.000 A 
ATOM     14  C   UNL     1       5.983   3.347  12.567  0.00  0.00    +0.000 A 
ATOM     15  C   UNL     1       6.896   4.018  11.753  0.00  0.00    +0.000 A 
ATOM     16  C   UNL     1       7.729   5.004  12.288  0.00  0.00    +0.000 A 
ATOM     17  C   UNL     1       7.676   5.304  13.650  0.00  0.00    +0.000 A 
ENDBRANCH  10  12
ENDBRANCH   7  10
ENDBRANCH   1   7
BRANCH   4  18
ATOM     18  O   UNL     1       1.586   5.713  20.079  0.00  0.00    +0.000 OA
BRANCH  18  19
ATOM     19  C   UNL     1       1.927   6.900  20.802  0.00  0.00    +0.000 C 
BRANCH  19  20
ATOM     20  C   UNL     1       1.578   8.116  19.982  0.00  0.00    +0.000 A 
ATOM     21  C   UNL     1       0.757   9.122  20.507  0.00  0.00    +0.000 A 
ATOM     22  C   UNL     1       0.454  10.249  19.747  0.00  0.00    +0.000 A 
ATOM     23  C   UNL     1       0.967  10.382  18.455  0.00  0.00    +0.000 A 
ATOM     24  C   UNL     1       1.782   9.387  17.923  0.00  0.00    +0.000 A 
ATOM     25  C   UNL     1       2.086   8.258  18.682  0.00  0.00    +0.000 A 
ENDBRANCH  19  20
ENDBRANCH  18  19
ENDBRANCH   4  18
TORSDOF 6
ENDMDL
