MODEL 1
REMARK VINA RESULT:      -7.5      0.000      0.000
REMARK  Name = 
REMARK  6 active torsions:
REMARK  status: ('A' for Active; 'I' for Inactive)
REMARK    1  A    between atoms: C_1  and  C_2
REMARK    2  A    between atoms: C_2  and  N_3
REMARK    3  A    between atoms: C_4  and  S_5
REMARK    4  A    between atoms: N_6  and  C_7
REMARK    5  A    between atoms: C_9  and  C_10
REMARK    6  A    between atoms: C_19  and  N_20
REMARK                            x       y       z     vdW  Elec       q    Type
REMARK                         _______ _______ _______ _____ _____    ______ ____
ROOT
ATOM      1  C   UNL     1       2.768   6.394  19.460  0.00  0.00    +0.000 A 
ATOM      2  C   UNL     1       1.797   7.377  19.762  0.00  0.00    +0.000 A 
ATOM      3  C   UNL     1       1.690   8.549  19.011  0.00  0.00    +0.000 A 
ATOM      4  C   UNL     1       2.618   8.767  18.005  0.00  0.00    +0.000 A 
ATOM      5  C   UNL     1       3.525   7.767  17.643  0.00  0.00    +0.000 A 
ATOM      6  C   UNL     1       3.635   6.551  18.340  0.00  0.00    +0.000 A 
ENDROOT
BRANCH   3   7
ATOM      7  C   UNL     1       0.681   9.570  19.402  0.00  0.00    +0.000 C 
ATOM      8  O   UNL     1       0.040  10.116  18.501  0.00  0.00    +0.000 OA
ATOM      9  N   UNL     1       0.461   9.875  20.736  0.00  0.00    +0.000 N 
ATOM     10  C   UNL     1       1.208   9.527  21.935  0.00  0.00    +0.000 C 
ATOM     11  C   UNL     1       0.104   9.456  22.976  0.00  0.00    +0.000 C 
ATOM     12  C   UNL     1      -0.769  10.654  22.610  0.00  0.00    +0.000 C 
ATOM     13  C   UNL     1      -0.616  10.786  21.094  0.00  0.00    +0.000 C 
ENDBRANCH   3   7
BRANCH   6  14
ATOM     14  N   UNL     1       4.557   5.597  17.940  0.00  0.00    +0.000 N 
ATOM     15  C   UNL     1       5.846   5.353  18.579  0.00  0.00    +0.000 C 
ATOM     16  C   UNL     1       6.779   5.042  17.421  0.00  0.00    +0.000 C 
ATOM     17  C   UNL     1       5.893   4.371  16.388  0.00  0.00    +0.000 C 
ATOM     18  C   UNL     1       4.476   4.879  16.665  0.00  0.00    +0.000 C 
ENDBRANCH   6  14
BRANCH   1  21
ATOM     19  N   UNL     1       2.572   3.441  19.016  0.00  0.00    +0.000 NA
ATOM     20  C   UNL     1       2.610   4.016  20.167  0.00  0.00    +0.000 C 
ATOM     21  N   UNL     1       2.976   5.317  20.365  0.00  0.00    +0.000 N 
ATOM     22  H   UNL     1       2.885   5.649  21.320  0.00  0.00    +0.000 HD
BRANCH  19  24
ATOM     23  C   UNL     1       3.430   1.285  18.416  0.00  0.00    +0.000 C 
ATOM     24  C   UNL     1       2.186   2.055  18.826  0.00  0.00    +0.000 C 
ENDBRANCH  19  24
BRANCH  20  25
ATOM     25  S   UNL     1       2.252   3.216  21.692  0.00  0.00    +0.000 S 
ATOM     26  H   UNL     1       0.932   3.422  21.685  0.00  0.00    +0.000 HD
ENDBRANCH  20  25
ENDBRANCH   1  21
TORSDOF 5
ENDMDL
MODEL 2
REMARK VINA RESULT:      -7.4      1.864      3.540
REMARK  Name = 
REMARK  6 active torsions:
REMARK  status: ('A' for Active; 'I' for Inactive)
REMARK    1  A    between atoms: C_1  and  C_2
REMARK    2  A    between atoms: C_2  and  N_3
REMARK    3  A    between atoms: C_4  and  S_5
REMARK    4  A    between atoms: N_6  and  C_7
REMARK    5  A    between atoms: C_9  and  C_10
REMARK    6  A    between atoms: C_19  and  N_20
REMARK                            x       y       z     vdW  Elec       q    Type
REMARK                         _______ _______ _______ _____ _____    ______ ____
ROOT
ATOM      1  C   UNL     1       2.991   5.833  18.642  0.00  0.00    +0.000 A 
ATOM      2  C   UNL     1       2.631   7.196  18.769  0.00  0.00    +0.000 A 
ATOM      3  C   UNL     1       1.777   7.631  19.783  0.00  0.00    +0.000 A 
ATOM      4  C   UNL     1       1.217   6.678  20.621  0.00  0.00    +0.000 A 
ATOM      5  C   UNL     1       1.631   5.344  20.559  0.00  0.00    +0.000 A 
ATOM      6  C   UNL     1       2.527   4.870  19.585  0.00  0.00    +0.000 A 
ENDROOT
BRANCH   3   7
ATOM      7  C   UNL     1       1.395   9.067  19.843  0.00  0.00    +0.000 C 
ATOM      8  O   UNL     1       1.504   9.733  18.811  0.00  0.00    +0.000 OA
ATOM      9  N   UNL     1       0.911   9.624  21.017  0.00  0.00    +0.000 N 
ATOM     10  C   UNL     1       0.880   9.113  22.379  0.00  0.00    +0.000 C 
ATOM     11  C   UNL     1      -0.380   9.762  22.923  0.00  0.00    +0.000 C 
ATOM     12  C   UNL     1      -0.296  11.174  22.348  0.00  0.00    +0.000 C 
ATOM     13  C   UNL     1       0.429  10.998  21.013  0.00  0.00    +0.000 C 
ENDBRANCH   3   7
BRANCH   6  14
ATOM     14  N   UNL     1       2.899   3.535  19.566  0.00  0.00    +0.000 N 
ATOM     15  C   UNL     1       4.027   2.966  20.294  0.00  0.00    +0.000 C 
ATOM     16  C   UNL     1       4.591   1.923  19.343  0.00  0.00    +0.000 C 
ATOM     17  C   UNL     1       3.386   1.422  18.569  0.00  0.00    +0.000 C 
ATOM     18  C   UNL     1       2.366   2.562  18.607  0.00  0.00    +0.000 C 
ENDBRANCH   6  14
BRANCH   1  21
ATOM     19  N   UNL     1       5.910   5.301  18.254  0.00  0.00    +0.000 NA
ATOM     20  C   UNL     1       5.050   5.440  17.306  0.00  0.00    +0.000 C 
ATOM     21  N   UNL     1       3.695   5.403  17.485  0.00  0.00    +0.000 N 
ATOM     22  H   UNL     1       3.147   5.603  16.654  0.00  0.00    +0.000 HD
BRANCH  19  24
ATOM     23  C   UNL     1       7.820   6.744  18.364  0.00  0.00    +0.000 C 
ATOM     24  C   UNL     1       7.345   5.337  18.044  0.00  0.00    +0.000 C 
ENDBRANCH  19  24
BRANCH  20  25
ATOM     25  S   UNL     1       5.463   5.645  15.609  0.00  0.00    +0.000 S 
ATOM     26  H   UNL     1       6.181   4.527  15.473  0.00  0.00    +0.000 HD
ENDBRANCH  20  25
ENDBRANCH   1  21
TORSDOF 5
ENDMDL
MODEL 3
REMARK VINA RESULT:      -7.3      0.662      1.055
REMARK  Name = 
REMARK  6 active torsions:
REMARK  status: ('A' for Active; 'I' for Inactive)
REMARK    1  A    between atoms: C_1  and  C_2
REMARK    2  A    between atoms: C_2  and  N_3
REMARK    3  A    between atoms: C_4  and  S_5
REMARK    4  A    between atoms: N_6  and  C_7
REMARK    5  A    between atoms: C_9  and  C_10
REMARK    6  A    between atoms: C_19  and  N_20
REMARK                            x       y       z     vdW  Elec       q    Type
REMARK                         _______ _______ _______ _____ _____    ______ ____
ROOT
ATOM      1  C   UNL     1       2.587   6.724  19.320  0.00  0.00    +0.000 A 
ATOM      2  C   UNL     1       1.622   7.665  19.748  0.00  0.00    +0.000 A 
ATOM      3  C   UNL     1       1.453   8.885  19.091  0.00  0.00    +0.000 A 
ATOM      4  C   UNL     1       2.316   9.191  18.050  0.00  0.00    +0.000 A 
ATOM      5  C   UNL     1       3.214   8.235  17.564  0.00  0.00    +0.000 A 
ATOM      6  C   UNL     1       3.383   6.976  18.165  0.00  0.00    +0.000 A 
ENDROOT
BRANCH   3   7
ATOM      7  C   UNL     1       0.455   9.857  19.611  0.00  0.00    +0.000 C 
ATOM      8  O   UNL     1      -0.231  10.470  18.790  0.00  0.00    +0.000 OA
ATOM      9  N   UNL     1       0.293  10.045  20.976  0.00  0.00    +0.000 N 
ATOM     10  C   UNL     1       1.096   9.605  22.106  0.00  0.00    +0.000 C 
ATOM     11  C   UNL     1       0.042   9.433  23.185  0.00  0.00    +0.000 C 
ATOM     12  C   UNL     1      -0.856  10.647  22.962  0.00  0.00    +0.000 C 
ATOM     13  C   UNL     1      -0.774  10.910  21.458  0.00  0.00    +0.000 C 
ENDBRANCH   3   7
BRANCH   6  14
ATOM     14  N   UNL     1       4.294   6.069  17.645  0.00  0.00    +0.000 N 
ATOM     15  C   UNL     1       3.951   4.902  16.841  0.00  0.00    +0.000 C 
ATOM     16  C   UNL     1       4.932   3.836  17.302  0.00  0.00    +0.000 C 
ATOM     17  C   UNL     1       6.180   4.608  17.686  0.00  0.00    +0.000 C 
ATOM     18  C   UNL     1       5.701   6.015  18.051  0.00  0.00    +0.000 C 
ENDBRANCH   6  14
BRANCH   1  21
ATOM     19  N   UNL     1       1.663   3.890  19.049  0.00  0.00    +0.000 NA
ATOM     20  C   UNL     1       2.198   4.397  20.104  0.00  0.00    +0.000 C 
ATOM     21  N   UNL     1       2.864   5.590  20.132  0.00  0.00    +0.000 N 
ATOM     22  H   UNL     1       3.166   5.893  21.053  0.00  0.00    +0.000 HD
BRANCH  19  24
ATOM     23  C   UNL     1       1.939   1.566  18.536  0.00  0.00    +0.000 C 
ATOM     24  C   UNL     1       0.965   2.619  19.038  0.00  0.00    +0.000 C 
ENDBRANCH  19  24
BRANCH  20  25
ATOM     25  S   UNL     1       2.218   3.621  21.682  0.00  0.00    +0.000 S 
ATOM     26  H   UNL     1       2.805   2.482  21.303  0.00  0.00    +0.000 HD
ENDBRANCH  20  25
ENDBRANCH   1  21
TORSDOF 5
ENDMDL
MODEL 4
REMARK VINA RESULT:      -7.1      1.489      1.829
REMARK  Name = 
REMARK  6 active torsions:
REMARK  status: ('A' for Active; 'I' for Inactive)
REMARK    1  A    between atoms: C_1  and  C_2
REMARK    2  A    between atoms: C_2  and  N_3
REMARK    3  A    between atoms: C_4  and  S_5
REMARK    4  A    between atoms: N_6  and  C_7
REMARK    5  A    between atoms: C_9  and  C_10
REMARK    6  A    between atoms: C_19  and  N_20
REMARK                            x       y       z     vdW  Elec       q    Type
REMARK                         _______ _______ _______ _____ _____    ______ ____
ROOT
ATOM      1  C   UNL     1       2.794   5.605  17.679  0.00  0.00    +0.000 A 
ATOM      2  C   UNL     1       1.852   6.596  18.041  0.00  0.00    +0.000 A 
ATOM      3  C   UNL     1       2.203   7.945  18.106  0.00  0.00    +0.000 A 
ATOM      4  C   UNL     1       3.529   8.286  17.887  0.00  0.00    +0.000 A 
ATOM      5  C   UNL     1       4.447   7.329  17.445  0.00  0.00    +0.000 A 
ATOM      6  C   UNL     1       4.125   5.967  17.319  0.00  0.00    +0.000 A 
ENDROOT
BRANCH   3   7
ATOM      7  C   UNL     1       1.185   8.940  18.537  0.00  0.00    +0.000 C 
ATOM      8  O   UNL     1       0.599   9.578  17.659  0.00  0.00    +0.000 OA
ATOM      9  N   UNL     1       0.894   9.121  19.881  0.00  0.00    +0.000 N 
ATOM     10  C   UNL     1       1.572   8.651  21.079  0.00  0.00    +0.000 C 
ATOM     11  C   UNL     1       0.412   8.499  22.048  0.00  0.00    +0.000 C 
ATOM     12  C   UNL     1      -0.428   9.738  21.751  0.00  0.00    +0.000 C 
ATOM     13  C   UNL     1      -0.192  10.011  20.265  0.00  0.00    +0.000 C 
ENDBRANCH   3   7
BRANCH   6  14
ATOM     14  N   UNL     1       5.077   5.059  16.883  0.00  0.00    +0.000 N 
ATOM     15  C   UNL     1       6.199   4.571  17.677  0.00  0.00    +0.000 C 
ATOM     16  C   UNL     1       7.339   4.462  16.677  0.00  0.00    +0.000 C 
ATOM     17  C   UNL     1       6.661   4.123  15.363  0.00  0.00    +0.000 C 
ATOM     18  C   UNL     1       5.235   4.666  15.480  0.00  0.00    +0.000 C 
ENDBRANCH   6  14
BRANCH   1  21
ATOM     19  N   UNL     1       2.574   3.921  20.143  0.00  0.00    +0.000 NA
ATOM     20  C   UNL     1       2.631   3.468  18.939  0.00  0.00    +0.000 C 
ATOM     21  N   UNL     1       2.451   4.233  17.820  0.00  0.00    +0.000 N 
ATOM     22  H   UNL     1       2.600   3.749  16.941  0.00  0.00    +0.000 HD
BRANCH  19  24
ATOM     23  C   UNL     1       1.388   2.636  21.782  0.00  0.00    +0.000 C 
ATOM     24  C   UNL     1       2.762   3.092  21.318  0.00  0.00    +0.000 C 
ENDBRANCH  19  24
BRANCH  20  25
ATOM     25  S   UNL     1       2.894   1.780  18.521  0.00  0.00    +0.000 S 
ATOM     26  H   UNL     1       3.972   1.583  19.285  0.00  0.00    +0.000 HD
ENDBRANCH  20  25
ENDBRANCH   1  21
TORSDOF 5
ENDMDL
MODEL 5
REMARK VINA RESULT:      -7.1      1.515      2.262
REMARK  Name = 
REMARK  6 active torsions:
REMARK  status: ('A' for Active; 'I' for Inactive)
REMARK    1  A    between atoms: C_1  and  C_2
REMARK    2  A    between atoms: C_2  and  N_3
REMARK    3  A    between atoms: C_4  and  S_5
REMARK    4  A    between atoms: N_6  and  C_7
REMARK    5  A    between atoms: C_9  and  C_10
REMARK    6  A    between atoms: C_19  and  N_20
REMARK                            x       y       z     vdW  Elec       q    Type
REMARK                         _______ _______ _______ _____ _____    ______ ____
ROOT
ATOM      1  C   UNL     1       2.545   6.783  19.383  0.00  0.00    +0.000 A 
ATOM      2  C   UNL     1       1.638   7.746  19.884  0.00  0.00    +0.000 A 
ATOM      3  C   UNL     1       1.450   8.971  19.242  0.00  0.00    +0.000 A 
ATOM      4  C   UNL     1       2.239   9.259  18.139  0.00  0.00    +0.000 A 
ATOM      5  C   UNL     1       3.073   8.283  17.586  0.00  0.00    +0.000 A 
ATOM      6  C   UNL     1       3.257   7.019  18.171  0.00  0.00    +0.000 A 
ENDROOT
BRANCH   3   7
ATOM      7  C   UNL     1       0.519   9.967  19.838  0.00  0.00    +0.000 C 
ATOM      8  O   UNL     1       0.807  10.432  20.943  0.00  0.00    +0.000 OA
ATOM      9  N   UNL     1      -0.620  10.369  19.157  0.00  0.00    +0.000 N 
ATOM     10  C   UNL     1      -1.264   9.833  17.967  0.00  0.00    +0.000 C 
ATOM     11  C   UNL     1      -1.872  11.084  17.357  0.00  0.00    +0.000 C 
ATOM     12  C   UNL     1      -2.406  11.821  18.583  0.00  0.00    +0.000 C 
ATOM     13  C   UNL     1      -1.446  11.433  19.707  0.00  0.00    +0.000 C 
ENDBRANCH   3   7
BRANCH   6  14
ATOM     14  N   UNL     1       4.102   6.091  17.583  0.00  0.00    +0.000 N 
ATOM     15  C   UNL     1       3.673   4.876  16.901  0.00  0.00    +0.000 C 
ATOM     16  C   UNL     1       4.725   3.848  17.281  0.00  0.00    +0.000 C 
ATOM     17  C   UNL     1       6.001   4.652  17.445  0.00  0.00    +0.000 C 
ATOM     18  C   UNL     1       5.553   6.073  17.793  0.00  0.00    +0.000 C 
ENDBRANCH   6  14
BRANCH   1  21
ATOM     19  N   UNL     1       1.556   3.967  19.163  0.00  0.00    +0.000 NA
ATOM     20  C   UNL     1       2.168   4.459  20.183  0.00  0.00    +0.000 C 
ATOM     21  N   UNL     1       2.855   5.641  20.171  0.00  0.00    +0.000 N 
ATOM     22  H   UNL     1       3.222   5.934  21.071  0.00  0.00    +0.000 HD
BRANCH  19  24
ATOM     23  C   UNL     1       1.740   1.649  18.584  0.00  0.00    +0.000 C 
ATOM     24  C   UNL     1       0.836   2.708  19.194  0.00  0.00    +0.000 C 
ENDBRANCH  19  24
BRANCH  20  25
ATOM     25  S   UNL     1       2.278   3.675  21.753  0.00  0.00    +0.000 S 
ATOM     26  H   UNL     1       2.283   4.786  22.496  0.00  0.00    +0.000 HD
ENDBRANCH  20  25
ENDBRANCH   1  21
TORSDOF 5
ENDMDL
MODEL 6
REMARK VINA RESULT:      -7.0      2.219      3.941
REMARK  Name = 
REMARK  6 active torsions:
REMARK  status: ('A' for Active; 'I' for Inactive)
REMARK    1  A    between atoms: C_1  and  C_2
REMARK    2  A    between atoms: C_2  and  N_3
REMARK    3  A    between atoms: C_4  and  S_5
REMARK    4  A    between atoms: N_6  and  C_7
REMARK    5  A    between atoms: C_9  and  C_10
REMARK    6  A    between atoms: C_19  and  N_20
REMARK                            x       y       z     vdW  Elec       q    Type
REMARK                         _______ _______ _______ _____ _____    ______ ____
ROOT
ATOM      1  C   UNL     1       2.837   5.836  18.892  0.00  0.00    +0.000 A 
ATOM      2  C   UNL     1       2.503   7.157  19.270  0.00  0.00    +0.000 A 
ATOM      3  C   UNL     1       1.678   7.413  20.366  0.00  0.00    +0.000 A 
ATOM      4  C   UNL     1       1.121   6.332  21.032  0.00  0.00    +0.000 A 
ATOM      5  C   UNL     1       1.512   5.026  20.722  0.00  0.00    +0.000 A 
ATOM      6  C   UNL     1       2.379   4.724  19.657  0.00  0.00    +0.000 A 
ENDROOT
BRANCH   3   7
ATOM      7  C   UNL     1       1.321   8.820  20.692  0.00  0.00    +0.000 C 
ATOM      8  O   UNL     1       1.091   9.095  21.872  0.00  0.00    +0.000 OA
ATOM      9  N   UNL     1       1.273   9.788  19.700  0.00  0.00    +0.000 N 
ATOM     10  C   UNL     1       1.304   9.675  18.250  0.00  0.00    +0.000 C 
ATOM     11  C   UNL     1       1.993  10.970  17.856  0.00  0.00    +0.000 C 
ATOM     12  C   UNL     1       1.355  11.983  18.803  0.00  0.00    +0.000 C 
ATOM     13  C   UNL     1       1.043  11.177  20.065  0.00  0.00    +0.000 C 
ENDBRANCH   3   7
BRANCH   6  14
ATOM     14  N   UNL     1       2.728   3.410  19.390  0.00  0.00    +0.000 N 
ATOM     15  C   UNL     1       3.648   2.605  20.185  0.00  0.00    +0.000 C 
ATOM     16  C   UNL     1       4.405   1.784  19.155  0.00  0.00    +0.000 C 
ATOM     17  C   UNL     1       3.408   1.568  18.033  0.00  0.00    +0.000 C 
ATOM     18  C   UNL     1       2.421   2.734  18.125  0.00  0.00    +0.000 C 
ENDBRANCH   6  14
BRANCH   1  21
ATOM     19  N   UNL     1       5.680   5.066  18.362  0.00  0.00    +0.000 NA
ATOM     20  C   UNL     1       4.862   5.528  17.483  0.00  0.00    +0.000 C 
ATOM     21  N   UNL     1       3.509   5.612  17.659  0.00  0.00    +0.000 N 
ATOM     22  H   UNL     1       3.005   6.068  16.905  0.00  0.00    +0.000 HD
BRANCH  19  24
ATOM     23  C   UNL     1       7.745   6.200  18.800  0.00  0.00    +0.000 C 
ATOM     24  C   UNL     1       7.113   4.979  18.154  0.00  0.00    +0.000 C 
ENDBRANCH  19  24
BRANCH  20  25
ATOM     25  S   UNL     1       5.330   6.080  15.880  0.00  0.00    +0.000 S 
ATOM     26  H   UNL     1       6.255   6.962  16.269  0.00  0.00    +0.000 HD
ENDBRANCH  20  25
ENDBRANCH   1  21
TORSDOF 5
ENDMDL
MODEL 7
REMARK VINA RESULT:      -6.9      2.100      3.685
REMARK  Name = 
REMARK  6 active torsions:
REMARK  status: ('A' for Active; 'I' for Inactive)
REMARK    1  A    between atoms: C_1  and  C_2
REMARK    2  A    between atoms: C_2  and  N_3
REMARK    3  A    between atoms: C_4  and  S_5
REMARK    4  A    between atoms: N_6  and  C_7
REMARK    5  A    between atoms: C_9  and  C_10
REMARK    6  A    between atoms: C_19  and  N_20
REMARK                            x       y       z     vdW  Elec       q    Type
REMARK                         _______ _______ _______ _____ _____    ______ ____
ROOT
ATOM      1  C   UNL     1       4.291   6.061  18.371  0.00  0.00    +0.000 A 
ATOM      2  C   UNL     1       3.751   7.368  18.341  0.00  0.00    +0.000 A 
ATOM      3  C   UNL     1       2.373   7.585  18.288  0.00  0.00    +0.000 A 
ATOM      4  C   UNL     1       1.542   6.482  18.179  0.00  0.00    +0.000 A 
ATOM      5  C   UNL     1       2.057   5.187  18.294  0.00  0.00    +0.000 A 
ATOM      6  C   UNL     1       3.433   4.923  18.398  0.00  0.00    +0.000 A 
ENDROOT
BRANCH   3   7
ATOM      7  C   UNL     1       1.862   8.980  18.212  0.00  0.00    +0.000 C 
ATOM      8  O   UNL     1       2.060   9.608  17.169  0.00  0.00    +0.000 OA
ATOM      9  N   UNL     1       1.166   9.538  19.274  0.00  0.00    +0.000 N 
ATOM     10  C   UNL     1       0.984   9.086  20.644  0.00  0.00    +0.000 C 
ATOM     11  C   UNL     1      -0.393   9.635  20.970  0.00  0.00    +0.000 C 
ATOM     12  C   UNL     1      -0.353  11.022  20.333  0.00  0.00    +0.000 C 
ATOM     13  C   UNL     1       0.571  10.858  19.125  0.00  0.00    +0.000 C 
ENDBRANCH   3   7
BRANCH   6  14
ATOM     14  N   UNL     1       3.890   3.618  18.503  0.00  0.00    +0.000 N 
ATOM     15  C   UNL     1       3.669   2.569  17.514  0.00  0.00    +0.000 C 
ATOM     16  C   UNL     1       3.451   1.317  18.348  0.00  0.00    +0.000 C 
ATOM     17  C   UNL     1       4.298   1.531  19.587  0.00  0.00    +0.000 C 
ATOM     18  C   UNL     1       4.432   3.049  19.740  0.00  0.00    +0.000 C 
ENDBRANCH   6  14
BRANCH   1  21
ATOM     19  N   UNL     1       5.921   5.597  15.904  0.00  0.00    +0.000 NA
ATOM     20  C   UNL     1       6.332   5.411  17.110  0.00  0.00    +0.000 C 
ATOM     21  N   UNL     1       5.693   5.882  18.222  0.00  0.00    +0.000 N 
ATOM     22  H   UNL     1       6.099   5.591  19.106  0.00  0.00    +0.000 HD
BRANCH  19  24
ATOM     23  C   UNL     1       5.787   3.955  14.164  0.00  0.00    +0.000 C 
ATOM     24  C   UNL     1       6.616   5.093  14.735  0.00  0.00    +0.000 C 
ENDBRANCH  19  24
BRANCH  20  25
ATOM     25  S   UNL     1       7.815   4.568  17.537  0.00  0.00    +0.000 S 
ATOM     26  H   UNL     1       8.641   5.274  16.759  0.00  0.00    +0.000 HD
ENDBRANCH  20  25
ENDBRANCH   1  21
TORSDOF 5
ENDMDL
MODEL 8
REMARK VINA RESULT:      -6.9      2.042      2.916
REMARK  Name = 
REMARK  6 active torsions:
REMARK  status: ('A' for Active; 'I' for Inactive)
REMARK    1  A    between atoms: C_1  and  C_2
REMARK    2  A    between atoms: C_2  and  N_3
REMARK    3  A    between atoms: C_4  and  S_5
REMARK    4  A    between atoms: N_6  and  C_7
REMARK    5  A    between atoms: C_9  and  C_10
REMARK    6  A    between atoms: C_19  and  N_20
REMARK                            x       y       z     vdW  Elec       q    Type
REMARK                         _______ _______ _______ _____ _____    ______ ____
ROOT
ATOM      1  C   UNL     1       3.685   4.805  17.503  0.00  0.00    +0.000 A 
ATOM      2  C   UNL     1       2.832   5.557  18.344  0.00  0.00    +0.000 A 
ATOM      3  C   UNL     1       2.951   6.944  18.448  0.00  0.00    +0.000 A 
ATOM      4  C   UNL     1       3.987   7.564  17.766  0.00  0.00    +0.000 A 
ATOM      5  C   UNL     1       4.779   6.845  16.867  0.00  0.00    +0.000 A 
ATOM      6  C   UNL     1       4.662   5.455  16.694  0.00  0.00    +0.000 A 
ENDROOT
BRANCH   3   7
ATOM      7  C   UNL     1       2.058   7.681  19.383  0.00  0.00    +0.000 C 
ATOM      8  O   UNL     1       1.763   7.131  20.446  0.00  0.00    +0.000 OA
ATOM      9  N   UNL     1       1.598   8.951  19.071  0.00  0.00    +0.000 N 
ATOM     10  C   UNL     1       1.639   9.707  17.828  0.00  0.00    +0.000 C 
ATOM     11  C   UNL     1       1.731  11.134  18.339  0.00  0.00    +0.000 C 
ATOM     12  C   UNL     1       0.756  11.124  19.515  0.00  0.00    +0.000 C 
ATOM     13  C   UNL     1       0.829   9.696  20.056  0.00  0.00    +0.000 C 
ENDBRANCH   3   7
BRANCH   6  14
ATOM     14  N   UNL     1       5.480   4.790  15.793  0.00  0.00    +0.000 N 
ATOM     15  C   UNL     1       6.932   4.691  15.890  0.00  0.00    +0.000 C 
ATOM     16  C   UNL     1       7.405   4.789  14.449  0.00  0.00    +0.000 C 
ATOM     17  C   UNL     1       6.288   4.160  13.638  0.00  0.00    +0.000 C 
ATOM     18  C   UNL     1       5.022   4.319  14.482  0.00  0.00    +0.000 C 
ENDBRANCH   6  14
BRANCH   1  21
ATOM     19  N   UNL     1       1.958   2.991  19.140  0.00  0.00    +0.000 NA
ATOM     20  C   UNL     1       3.040   2.640  18.539  0.00  0.00    +0.000 C 
ATOM     21  N   UNL     1       3.665   3.386  17.579  0.00  0.00    +0.000 N 
ATOM     22  H   UNL     1       4.549   3.011  17.250  0.00  0.00    +0.000 HD
BRANCH  19  24
ATOM     23  C   UNL     1       1.554   2.845  21.498  0.00  0.00    +0.000 C 
ATOM     24  C   UNL     1       1.306   2.183  20.153  0.00  0.00    +0.000 C 
ENDBRANCH  19  24
BRANCH  20  25
ATOM     25  S   UNL     1       3.876   1.115  18.803  0.00  0.00    +0.000 S 
ATOM     26  H   UNL     1       3.419   0.482  17.718  0.00  0.00    +0.000 HD
ENDBRANCH  20  25
ENDBRANCH   1  21
TORSDOF 5
ENDMDL
MODEL 9
REMARK VINA RESULT:      -6.8      2.058      3.807
REMARK  Name = 
REMARK  6 active torsions:
REMARK  status: ('A' for Active; 'I' for Inactive)
REMARK    1  A    between atoms: C_1  and  C_2
REMARK    2  A    between atoms: C_2  and  N_3
REMARK    3  A    between atoms: C_4  and  S_5
REMARK    4  A    between atoms: N_6  and  C_7
REMARK    5  A    between atoms: C_9  and  C_10
REMARK    6  A    between atoms: C_19  and  N_20
REMARK                            x       y       z     vdW  Elec       q    Type
REMARK                         _______ _______ _______ _____ _____    ______ ____
ROOT
ATOM      1  C   UNL     1       3.096   6.345  18.414  0.00  0.00    +0.000 A 
ATOM      2  C   UNL     1       2.570   7.641  18.627  0.00  0.00    +0.000 A 
ATOM      3  C   UNL     1       1.745   7.921  19.718  0.00  0.00    +0.000 A 
ATOM      4  C   UNL     1       1.380   6.873  20.548  0.00  0.00    +0.000 A 
ATOM      5  C   UNL     1       1.961   5.610  20.397  0.00  0.00    +0.000 A 
ATOM      6  C   UNL     1       2.835   5.296  19.343  0.00  0.00    +0.000 A 
ENDROOT
BRANCH   3   7
ATOM      7  C   UNL     1       1.182   9.290  19.868  0.00  0.00    +0.000 C 
ATOM      8  O   UNL     1       1.105   9.993  18.858  0.00  0.00    +0.000 OA
ATOM      9  N   UNL     1       0.741   9.744  21.103  0.00  0.00    +0.000 N 
ATOM     10  C   UNL     1       0.907   9.196  22.440  0.00  0.00    +0.000 C 
ATOM     11  C   UNL     1      -0.371   9.652  23.121  0.00  0.00    +0.000 C 
ATOM     12  C   UNL     1      -0.531  11.078  22.597  0.00  0.00    +0.000 C 
ATOM     13  C   UNL     1       0.083  11.038  21.196  0.00  0.00    +0.000 C 
ENDBRANCH   3   7
BRANCH   6  14
ATOM     14  N   UNL     1       3.377   4.024  19.238  0.00  0.00    +0.000 N 
ATOM     15  C   UNL     1       2.810   2.931  18.455  0.00  0.00    +0.000 C 
ATOM     16  C   UNL     1       3.070   1.697  19.304  0.00  0.00    +0.000 C 
ATOM     17  C   UNL     1       4.364   2.002  20.034  0.00  0.00    +0.000 C 
ATOM     18  C   UNL     1       4.450   3.529  20.105  0.00  0.00    +0.000 C 
ENDBRANCH   6  14
BRANCH   1  21
ATOM     19  N   UNL     1       6.022   6.178  17.810  0.00  0.00    +0.000 NA
ATOM     20  C   UNL     1       5.087   6.259  16.929  0.00  0.00    +0.000 C 
ATOM     21  N   UNL     1       3.761   6.055  17.192  0.00  0.00    +0.000 N 
ATOM     22  H   UNL     1       3.137   6.227  16.411  0.00  0.00    +0.000 HD
BRANCH  19  24
ATOM     23  C   UNL     1       7.733   7.855  17.780  0.00  0.00    +0.000 C 
ATOM     24  C   UNL     1       7.424   6.392  17.510  0.00  0.00    +0.000 C 
ENDBRANCH  19  24
BRANCH  20  25
ATOM     25  S   UNL     1       5.353   6.590  15.222  0.00  0.00    +0.000 S 
ATOM     26  H   UNL     1       4.217   7.257  15.000  0.00  0.00    +0.000 HD
ENDBRANCH  20  25
ENDBRANCH   1  21
TORSDOF 5
ENDMDL
