MODEL 1
REMARK VINA RESULT:      -7.5      0.000      0.000
REMARK  Name = 
REMARK  7 active torsions:
REMARK  status: ('A' for Active; 'I' for Inactive)
REMARK    1  A    between atoms: C_1  and  O_2
REMARK    2  A    between atoms: O_2  and  C_3
REMARK    3  A    between atoms: C_6  and  C_7
REMARK    4  A    between atoms: C_8  and  C_9
REMARK    5  A    between atoms: C_9  and  C_11
REMARK    6  A    between atoms: C_20  and  O_21
REMARK    7  A    between atoms: O_21  and  C_22
REMARK                            x       y       z     vdW  Elec       q    Type
REMARK                         _______ _______ _______ _____ _____    ______ ____
ROOT
ATOM      1  C   UNL     1       7.996   9.186  17.686  0.00  0.00    +0.000 C 
ATOM      2  C   UNL     1       8.056   7.899  18.049  0.00  0.00    +0.000 C 
ENDROOT
BRANCH   1   6
ATOM      3  C   UNL     1      10.371  12.162  19.667  0.00  0.00    +0.000 A 
ATOM      4  C   UNL     1       9.906  11.026  20.347  0.00  0.00    +0.000 A 
ATOM      5  C   UNL     1       9.128  10.064  19.697  0.00  0.00    +0.000 A 
ATOM      6  C   UNL     1       8.746  10.247  18.369  0.00  0.00    +0.000 A 
ATOM      7  C   UNL     1       9.135  11.430  17.726  0.00  0.00    +0.000 A 
ATOM      8  C   UNL     1       9.928  12.399  18.360  0.00  0.00    +0.000 A 
BRANCH   3  10
ATOM      9  C   UNL     1      10.614  14.161  20.900  0.00  0.00    +0.000 C 
ATOM     10  O   UNL     1      11.234  13.035  20.272  0.00  0.00    +0.000 OA
ENDBRANCH   3  10
BRANCH   8  11
ATOM     11  O   UNL     1      10.171  13.463  17.534  0.00  0.00    +0.000 OA
ATOM     12  C   UNL     1      11.346  13.480  16.741  0.00  0.00    +0.000 C 
ENDBRANCH   8  11
ENDBRANCH   1   6
BRANCH   2  13
ATOM     13  C   UNL     1       7.303   6.863  17.296  0.00  0.00    +0.000 C 
ATOM     14  O   UNL     1       7.714   6.396  16.244  0.00  0.00    +0.000 OA
BRANCH  13  15
ATOM     15  C   UNL     1       5.989   6.443  17.843  0.00  0.00    +0.000 A 
ATOM     16  C   UNL     1       4.822   6.853  17.185  0.00  0.00    +0.000 A 
ATOM     17  C   UNL     1       3.573   6.463  17.673  0.00  0.00    +0.000 A 
ATOM     18  C   UNL     1       3.497   5.658  18.807  0.00  0.00    +0.000 A 
ATOM     19  F   UNL     1       2.299   5.284  19.272  0.00  0.00    +0.000 F 
ATOM     20  C   UNL     1       4.644   5.230  19.460  0.00  0.00    +0.000 A 
ATOM     21  C   UNL     1       5.885   5.621  18.970  0.00  0.00    +0.000 A 
ATOM     22  F   UNL     1       6.975   5.163  19.602  0.00  0.00    +0.000 F 
ENDBRANCH  13  15
ENDBRANCH   2  13
TORSDOF 5
ENDMDL
MODEL 2
REMARK VINA RESULT:      -7.4      1.034      1.470
REMARK  Name = 
REMARK  7 active torsions:
REMARK  status: ('A' for Active; 'I' for Inactive)
REMARK    1  A    between atoms: C_1  and  O_2
REMARK    2  A    between atoms: O_2  and  C_3
REMARK    3  A    between atoms: C_6  and  C_7
REMARK    4  A    between atoms: C_8  and  C_9
REMARK    5  A    between atoms: C_9  and  C_11
REMARK    6  A    between atoms: C_20  and  O_21
REMARK    7  A    between atoms: O_21  and  C_22
REMARK                            x       y       z     vdW  Elec       q    Type
REMARK                         _______ _______ _______ _____ _____    ______ ____
ROOT
ATOM      1  C   UNL     1       7.967   8.987  17.577  0.00  0.00    +0.000 C 
ATOM      2  C   UNL     1       7.942   7.722  18.017  0.00  0.00    +0.000 C 
ENDROOT
BRANCH   1   6
ATOM      3  C   UNL     1      10.202  12.034  19.614  0.00  0.00    +0.000 A 
ATOM      4  C   UNL     1       9.852  10.834  20.252  0.00  0.00    +0.000 A 
ATOM      5  C   UNL     1       9.119   9.848  19.584  0.00  0.00    +0.000 A 
ATOM      6  C   UNL     1       8.666  10.067  18.284  0.00  0.00    +0.000 A 
ATOM      7  C   UNL     1       8.938  11.306  17.688  0.00  0.00    +0.000 A 
ATOM      8  C   UNL     1       9.685  12.300  18.340  0.00  0.00    +0.000 A 
BRANCH   3  10
ATOM      9  C   UNL     1      10.362  13.868  21.091  0.00  0.00    +0.000 C 
ATOM     10  O   UNL     1      11.024  12.939  20.228  0.00  0.00    +0.000 OA
ENDBRANCH   3  10
BRANCH   8  11
ATOM     11  O   UNL     1       9.812  13.418  17.561  0.00  0.00    +0.000 OA
ATOM     12  C   UNL     1      11.069  13.733  16.987  0.00  0.00    +0.000 C 
ENDBRANCH   8  11
ENDBRANCH   1   6
BRANCH   2  13
ATOM     13  C   UNL     1       7.249   6.664  17.239  0.00  0.00    +0.000 C 
ATOM     14  O   UNL     1       7.697   6.228  16.189  0.00  0.00    +0.000 OA
BRANCH  13  15
ATOM     15  C   UNL     1       5.946   6.178  17.758  0.00  0.00    +0.000 A 
ATOM     16  C   UNL     1       5.921   5.486  18.977  0.00  0.00    +0.000 A 
ATOM     17  C   UNL     1       4.706   5.027  19.492  0.00  0.00    +0.000 A 
ATOM     18  C   UNL     1       3.525   5.270  18.794  0.00  0.00    +0.000 A 
ATOM     19  F   UNL     1       2.363   4.831  19.291  0.00  0.00    +0.000 F 
ATOM     20  C   UNL     1       3.532   5.968  17.595  0.00  0.00    +0.000 A 
ATOM     21  C   UNL     1       4.744   6.423  17.086  0.00  0.00    +0.000 A 
ATOM     22  F   UNL     1       4.714   7.124  15.944  0.00  0.00    +0.000 F 
ENDBRANCH  13  15
ENDBRANCH   2  13
TORSDOF 5
ENDMDL
MODEL 3
REMARK VINA RESULT:      -7.4      6.176      7.352
REMARK  Name = 
REMARK  7 active torsions:
REMARK  status: ('A' for Active; 'I' for Inactive)
REMARK    1  A    between atoms: C_1  and  O_2
REMARK    2  A    between atoms: O_2  and  C_3
REMARK    3  A    between atoms: C_6  and  C_7
REMARK    4  A    between atoms: C_8  and  C_9
REMARK    5  A    between atoms: C_9  and  C_11
REMARK    6  A    between atoms: C_20  and  O_21
REMARK    7  A    between atoms: O_21  and  C_22
REMARK                            x       y       z     vdW  Elec       q    Type
REMARK                         _______ _______ _______ _____ _____    ______ ____
ROOT
ATOM      1  C   UNL     1       3.415   6.245  18.281  0.00  0.00    +0.000 C 
ATOM      2  C   UNL     1       4.215   5.589  19.131  0.00  0.00    +0.000 C 
ENDROOT
BRANCH   1   6
ATOM      3  C   UNL     1       0.929   9.595  19.292  0.00  0.00    +0.000 A 
ATOM      4  C   UNL     1       1.626   9.542  18.075  0.00  0.00    +0.000 A 
ATOM      5  C   UNL     1       2.438   8.451  17.755  0.00  0.00    +0.000 A 
ATOM      6  C   UNL     1       2.621   7.416  18.672  0.00  0.00    +0.000 A 
ATOM      7  C   UNL     1       1.997   7.523  19.922  0.00  0.00    +0.000 A 
ATOM      8  C   UNL     1       1.167   8.605  20.253  0.00  0.00    +0.000 A 
BRANCH   3  10
ATOM      9  C   UNL     1       0.627  11.892  19.749  0.00  0.00    +0.000 C 
ATOM     10  O   UNL     1       0.039  10.604  19.546  0.00  0.00    +0.000 OA
ENDBRANCH   3  10
BRANCH   8  11
ATOM     11  O   UNL     1       0.679   8.488  21.526  0.00  0.00    +0.000 OA
ATOM     12  C   UNL     1       1.192   9.320  22.553  0.00  0.00    +0.000 C 
ENDBRANCH   8  11
ENDBRANCH   1   6
BRANCH   2  13
ATOM     13  C   UNL     1       5.023   4.431  18.669  0.00  0.00    +0.000 C 
ATOM     14  O   UNL     1       5.230   3.457  19.378  0.00  0.00    +0.000 OA
BRANCH  13  15
ATOM     15  C   UNL     1       5.627   4.517  17.316  0.00  0.00    +0.000 A 
ATOM     16  C   UNL     1       4.879   4.079  16.214  0.00  0.00    +0.000 A 
ATOM     17  C   UNL     1       5.421   4.158  14.929  0.00  0.00    +0.000 A 
ATOM     18  C   UNL     1       6.699   4.683  14.751  0.00  0.00    +0.000 A 
ATOM     19  F   UNL     1       7.214   4.759  13.518  0.00  0.00    +0.000 F 
ATOM     20  C   UNL     1       7.445   5.136  15.829  0.00  0.00    +0.000 A 
ATOM     21  C   UNL     1       6.901   5.055  17.107  0.00  0.00    +0.000 A 
ATOM     22  F   UNL     1       7.631   5.534  18.124  0.00  0.00    +0.000 F 
ENDBRANCH  13  15
ENDBRANCH   2  13
TORSDOF 5
ENDMDL
MODEL 4
REMARK VINA RESULT:      -7.3      6.201      7.646
REMARK  Name = 
REMARK  7 active torsions:
REMARK  status: ('A' for Active; 'I' for Inactive)
REMARK    1  A    between atoms: C_1  and  O_2
REMARK    2  A    between atoms: O_2  and  C_3
REMARK    3  A    between atoms: C_6  and  C_7
REMARK    4  A    between atoms: C_8  and  C_9
REMARK    5  A    between atoms: C_9  and  C_11
REMARK    6  A    between atoms: C_20  and  O_21
REMARK    7  A    between atoms: O_21  and  C_22
REMARK                            x       y       z     vdW  Elec       q    Type
REMARK                         _______ _______ _______ _____ _____    ______ ____
ROOT
ATOM      1  C   UNL     1       2.934   6.370  18.626  0.00  0.00    +0.000 C 
ATOM      2  C   UNL     1       3.318   5.508  19.575  0.00  0.00    +0.000 C 
ENDROOT
BRANCH   1   6
ATOM      3  C   UNL     1       0.717   9.963  19.399  0.00  0.00    +0.000 A 
ATOM      4  C   UNL     1       1.199   9.663  18.116  0.00  0.00    +0.000 A 
ATOM      5  C   UNL     1       1.925   8.494  17.873  0.00  0.00    +0.000 A 
ATOM      6  C   UNL     1       2.239   7.629  18.920  0.00  0.00    +0.000 A 
ATOM      7  C   UNL     1       1.836   7.984  20.215  0.00  0.00    +0.000 A 
ATOM      8  C   UNL     1       1.094   9.147  20.473  0.00  0.00    +0.000 A 
BRANCH   3  10
ATOM      9  C   UNL     1      -1.235  11.116  18.742  0.00  0.00    +0.000 C 
ATOM     10  O   UNL     1      -0.098  11.043  19.606  0.00  0.00    +0.000 OA
ENDBRANCH   3  10
BRANCH   8  11
ATOM     11  O   UNL     1       0.824   9.280  21.808  0.00  0.00    +0.000 OA
ATOM     12  C   UNL     1      -0.461   8.942  22.301  0.00  0.00    +0.000 C 
ENDBRANCH   8  11
ENDBRANCH   1   6
BRANCH   2  13
ATOM     13  C   UNL     1       4.051   4.266  19.220  0.00  0.00    +0.000 C 
ATOM     14  O   UNL     1       3.903   3.223  19.839  0.00  0.00    +0.000 OA
BRANCH  13  15
ATOM     15  C   UNL     1       5.025   4.345  18.103  0.00  0.00    +0.000 A 
ATOM     16  C   UNL     1       4.624   3.927  16.827  0.00  0.00    +0.000 A 
ATOM     17  C   UNL     1       5.519   4.000  15.757  0.00  0.00    +0.000 A 
ATOM     18  C   UNL     1       6.803   4.498  15.965  0.00  0.00    +0.000 A 
ATOM     19  F   UNL     1       7.657   4.569  14.937  0.00  0.00    +0.000 F 
ATOM     20  C   UNL     1       7.210   4.931  17.218  0.00  0.00    +0.000 A 
ATOM     21  C   UNL     1       6.315   4.857  18.281  0.00  0.00    +0.000 A 
ATOM     22  F   UNL     1       6.725   5.315  19.471  0.00  0.00    +0.000 F 
ENDBRANCH  13  15
ENDBRANCH   2  13
TORSDOF 5
ENDMDL
MODEL 5
REMARK VINA RESULT:      -7.3      2.334      2.766
REMARK  Name = 
REMARK  7 active torsions:
REMARK  status: ('A' for Active; 'I' for Inactive)
REMARK    1  A    between atoms: C_1  and  O_2
REMARK    2  A    between atoms: O_2  and  C_3
REMARK    3  A    between atoms: C_6  and  C_7
REMARK    4  A    between atoms: C_8  and  C_9
REMARK    5  A    between atoms: C_9  and  C_11
REMARK    6  A    between atoms: C_20  and  O_21
REMARK    7  A    between atoms: O_21  and  C_22
REMARK                            x       y       z     vdW  Elec       q    Type
REMARK                         _______ _______ _______ _____ _____    ______ ____
ROOT
ATOM      1  C   UNL     1       8.803   9.039  18.754  0.00  0.00    +0.000 C 
ATOM      2  C   UNL     1       8.072   8.312  17.899  0.00  0.00    +0.000 C 
ENDROOT
BRANCH   1   6
ATOM      3  C   UNL     1       9.908  13.100  17.911  0.00  0.00    +0.000 A 
ATOM      4  C   UNL     1      10.769  12.237  18.604  0.00  0.00    +0.000 A 
ATOM      5  C   UNL     1      10.401  10.917  18.880  0.00  0.00    +0.000 A 
ATOM      6  C   UNL     1       9.137  10.450  18.523  0.00  0.00    +0.000 A 
ATOM      7  C   UNL     1       8.247  11.347  17.916  0.00  0.00    +0.000 A 
ATOM      8  C   UNL     1       8.607  12.670  17.619  0.00  0.00    +0.000 A 
BRANCH   3  10
ATOM      9  C   UNL     1      11.462  14.846  18.240  0.00  0.00    +0.000 C 
ATOM     10  O   UNL     1      10.322  14.349  17.534  0.00  0.00    +0.000 OA
ENDBRANCH   3  10
BRANCH   8  11
ATOM     11  O   UNL     1       7.573  13.349  17.035  0.00  0.00    +0.000 OA
ATOM     12  C   UNL     1       6.846  14.304  17.789  0.00  0.00    +0.000 C 
ENDBRANCH   8  11
ENDBRANCH   1   6
BRANCH   2  13
ATOM     13  C   UNL     1       7.735   6.898  18.204  0.00  0.00    +0.000 C 
ATOM     14  O   UNL     1       8.098   6.350  19.234  0.00  0.00    +0.000 OA
BRANCH  13  15
ATOM     15  C   UNL     1       6.974   6.142  17.178  0.00  0.00    +0.000 A 
ATOM     16  C   UNL     1       5.966   6.802  16.463  0.00  0.00    +0.000 A 
ATOM     17  C   UNL     1       5.242   6.115  15.486  0.00  0.00    +0.000 A 
ATOM     18  C   UNL     1       5.536   4.779  15.221  0.00  0.00    +0.000 A 
ATOM     19  F   UNL     1       4.842   4.125  14.282  0.00  0.00    +0.000 F 
ATOM     20  C   UNL     1       6.542   4.117  15.908  0.00  0.00    +0.000 A 
ATOM     21  C   UNL     1       7.260   4.805  16.881  0.00  0.00    +0.000 A 
ATOM     22  F   UNL     1       8.250   4.149  17.503  0.00  0.00    +0.000 F 
ENDBRANCH  13  15
ENDBRANCH   2  13
TORSDOF 5
ENDMDL
MODEL 6
REMARK VINA RESULT:      -7.3      6.330      7.502
REMARK  Name = 
REMARK  7 active torsions:
REMARK  status: ('A' for Active; 'I' for Inactive)
REMARK    1  A    between atoms: C_1  and  O_2
REMARK    2  A    between atoms: O_2  and  C_3
REMARK    3  A    between atoms: C_6  and  C_7
REMARK    4  A    between atoms: C_8  and  C_9
REMARK    5  A    between atoms: C_9  and  C_11
REMARK    6  A    between atoms: C_20  and  O_21
REMARK    7  A    between atoms: O_21  and  C_22
REMARK                            x       y       z     vdW  Elec       q    Type
REMARK                         _______ _______ _______ _____ _____    ______ ____
ROOT
ATOM      1  C   UNL     1       3.538   6.361  18.422  0.00  0.00    +0.000 C 
ATOM      2  C   UNL     1       3.851   5.393  19.292  0.00  0.00    +0.000 C 
ENDROOT
BRANCH   1   6
ATOM      3  C   UNL     1       0.824   9.575  19.275  0.00  0.00    +0.000 A 
ATOM      4  C   UNL     1       1.557   9.535  18.079  0.00  0.00    +0.000 A 
ATOM      5  C   UNL     1       2.443   8.488  17.811  0.00  0.00    +0.000 A 
ATOM      6  C   UNL     1       2.663   7.490  18.759  0.00  0.00    +0.000 A 
ATOM      7  C   UNL     1       1.999   7.589  19.989  0.00  0.00    +0.000 A 
ATOM      8  C   UNL     1       1.095   8.626  20.269  0.00  0.00    +0.000 A 
BRANCH   3  10
ATOM      9  C   UNL     1       0.371  11.829  19.810  0.00  0.00    +0.000 C 
ATOM     10  O   UNL     1      -0.133  10.533  19.478  0.00  0.00    +0.000 OA
ENDBRANCH   3  10
BRANCH   8  11
ATOM     11  O   UNL     1       0.580   8.511  21.531  0.00  0.00    +0.000 OA
ATOM     12  C   UNL     1       1.099   9.316  22.576  0.00  0.00    +0.000 C 
ENDBRANCH   8  11
ENDBRANCH   1   6
BRANCH   2  13
ATOM     13  C   UNL     1       4.772   4.295  18.905  0.00  0.00    +0.000 C 
ATOM     14  O   UNL     1       5.031   3.366  19.657  0.00  0.00    +0.000 OA
BRANCH  13  15
ATOM     15  C   UNL     1       5.421   4.385  17.573  0.00  0.00    +0.000 A 
ATOM     16  C   UNL     1       6.764   4.778  17.503  0.00  0.00    +0.000 A 
ATOM     17  C   UNL     1       7.402   4.862  16.263  0.00  0.00    +0.000 A 
ATOM     18  C   UNL     1       6.698   4.543  15.104  0.00  0.00    +0.000 A 
ATOM     19  F   UNL     1       7.312   4.623  13.917  0.00  0.00    +0.000 F 
ATOM     20  C   UNL     1       5.373   4.137  15.158  0.00  0.00    +0.000 A 
ATOM     21  C   UNL     1       4.743   4.055  16.395  0.00  0.00    +0.000 A 
ATOM     22  F   UNL     1       3.473   3.626  16.419  0.00  0.00    +0.000 F 
ENDBRANCH  13  15
ENDBRANCH   2  13
TORSDOF 5
ENDMDL
MODEL 7
REMARK VINA RESULT:      -7.2      0.948      1.099
REMARK  Name = 
REMARK  7 active torsions:
REMARK  status: ('A' for Active; 'I' for Inactive)
REMARK    1  A    between atoms: C_1  and  O_2
REMARK    2  A    between atoms: O_2  and  C_3
REMARK    3  A    between atoms: C_6  and  C_7
REMARK    4  A    between atoms: C_8  and  C_9
REMARK    5  A    between atoms: C_9  and  C_11
REMARK    6  A    between atoms: C_20  and  O_21
REMARK    7  A    between atoms: O_21  and  C_22
REMARK                            x       y       z     vdW  Elec       q    Type
REMARK                         _______ _______ _______ _____ _____    ______ ____
ROOT
ATOM      1  C   UNL     1       7.962   9.244  17.567  0.00  0.00    +0.000 C 
ATOM      2  C   UNL     1       8.038   7.976  17.989  0.00  0.00    +0.000 C 
ENDROOT
BRANCH   1   6
ATOM      3  C   UNL     1      10.209  12.417  19.385  0.00  0.00    +0.000 A 
ATOM      4  C   UNL     1      10.283  11.101  19.865  0.00  0.00    +0.000 A 
ATOM      5  C   UNL     1       9.543  10.074  19.272  0.00  0.00    +0.000 A 
ATOM      6  C   UNL     1       8.666  10.351  18.224  0.00  0.00    +0.000 A 
ATOM      7  C   UNL     1       8.527  11.684  17.814  0.00  0.00    +0.000 A 
ATOM      8  C   UNL     1       9.273  12.725  18.389  0.00  0.00    +0.000 A 
BRANCH   3  10
ATOM      9  C   UNL     1      12.333  13.444  19.308  0.00  0.00    +0.000 C 
ATOM     10  O   UNL     1      11.027  13.392  19.888  0.00  0.00    +0.000 OA
ENDBRANCH   3  10
BRANCH   8  11
ATOM     11  O   UNL     1       8.960  13.932  17.828  0.00  0.00    +0.000 OA
ATOM     12  C   UNL     1       7.623  14.401  17.871  0.00  0.00    +0.000 C 
ENDBRANCH   8  11
ENDBRANCH   1   6
BRANCH   2  13
ATOM     13  C   UNL     1       7.331   6.891  17.261  0.00  0.00    +0.000 C 
ATOM     14  O   UNL     1       7.800   6.366  16.261  0.00  0.00    +0.000 OA
BRANCH  13  15
ATOM     15  C   UNL     1       5.992   6.493  17.761  0.00  0.00    +0.000 A 
ATOM     16  C   UNL     1       4.856   7.077  17.186  0.00  0.00    +0.000 A 
ATOM     17  C   UNL     1       3.583   6.712  17.632  0.00  0.00    +0.000 A 
ATOM     18  C   UNL     1       3.453   5.760  18.640  0.00  0.00    +0.000 A 
ATOM     19  F   UNL     1       2.233   5.411  19.064  0.00  0.00    +0.000 F 
ATOM     20  C   UNL     1       4.568   5.160  19.208  0.00  0.00    +0.000 A 
ATOM     21  C   UNL     1       5.833   5.527  18.761  0.00  0.00    +0.000 A 
ATOM     22  F   UNL     1       6.888   4.905  19.303  0.00  0.00    +0.000 F 
ENDBRANCH  13  15
ENDBRANCH   2  13
TORSDOF 5
ENDMDL
MODEL 8
REMARK VINA RESULT:      -7.1      1.423      1.855
REMARK  Name = 
REMARK  7 active torsions:
REMARK  status: ('A' for Active; 'I' for Inactive)
REMARK    1  A    between atoms: C_1  and  O_2
REMARK    2  A    between atoms: O_2  and  C_3
REMARK    3  A    between atoms: C_6  and  C_7
REMARK    4  A    between atoms: C_8  and  C_9
REMARK    5  A    between atoms: C_9  and  C_11
REMARK    6  A    between atoms: C_20  and  O_21
REMARK    7  A    between atoms: O_21  and  C_22
REMARK                            x       y       z     vdW  Elec       q    Type
REMARK                         _______ _______ _______ _____ _____    ______ ____
ROOT
ATOM      1  C   UNL     1       7.820   8.667  17.616  0.00  0.00    +0.000 C 
ATOM      2  C   UNL     1       7.854   7.465  18.205  0.00  0.00    +0.000 C 
ENDROOT
BRANCH   1   6
ATOM      3  C   UNL     1       9.891  12.084  19.184  0.00  0.00    +0.000 A 
ATOM      4  C   UNL     1      10.032  10.814  19.763  0.00  0.00    +0.000 A 
ATOM      5  C   UNL     1       9.350   9.707  19.251  0.00  0.00    +0.000 A 
ATOM      6  C   UNL     1       8.463   9.857  18.186  0.00  0.00    +0.000 A 
ATOM      7  C   UNL     1       8.255  11.145  17.674  0.00  0.00    +0.000 A 
ATOM      8  C   UNL     1       8.943  12.264  18.168  0.00  0.00    +0.000 A 
BRANCH   3  10
ATOM      9  C   UNL     1      12.067  12.916  19.564  0.00  0.00    +0.000 C 
ATOM     10  O   UNL     1      10.655  13.137  19.609  0.00  0.00    +0.000 OA
ENDBRANCH   3  10
BRANCH   8  11
ATOM     11  O   UNL     1       8.569  13.407  17.515  0.00  0.00    +0.000 OA
ATOM     12  C   UNL     1       7.599  14.262  18.096  0.00  0.00    +0.000 C 
ENDBRANCH   8  11
ENDBRANCH   1   6
BRANCH   2  13
ATOM     13  C   UNL     1       7.216   6.288  17.562  0.00  0.00    +0.000 C 
ATOM     14  O   UNL     1       7.786   5.624  16.708  0.00  0.00    +0.000 OA
BRANCH  13  15
ATOM     15  C   UNL     1       5.822   5.966  17.957  0.00  0.00    +0.000 A 
ATOM     16  C   UNL     1       5.604   5.266  19.151  0.00  0.00    +0.000 A 
ATOM     17  C   UNL     1       4.300   4.960  19.550  0.00  0.00    +0.000 A 
ATOM     18  C   UNL     1       3.225   5.363  18.762  0.00  0.00    +0.000 A 
ATOM     19  F   UNL     1       1.978   5.070  19.148  0.00  0.00    +0.000 F 
ATOM     20  C   UNL     1       3.424   6.071  17.586  0.00  0.00    +0.000 A 
ATOM     21  C   UNL     1       4.723   6.374  17.192  0.00  0.00    +0.000 A 
ATOM     22  F   UNL     1       4.882   7.090  16.070  0.00  0.00    +0.000 F 
ENDBRANCH  13  15
ENDBRANCH   2  13
TORSDOF 5
ENDMDL
MODEL 9
REMARK VINA RESULT:      -7.0      5.980      7.219
REMARK  Name = 
REMARK  7 active torsions:
REMARK  status: ('A' for Active; 'I' for Inactive)
REMARK    1  A    between atoms: C_1  and  O_2
REMARK    2  A    between atoms: O_2  and  C_3
REMARK    3  A    between atoms: C_6  and  C_7
REMARK    4  A    between atoms: C_8  and  C_9
REMARK    5  A    between atoms: C_9  and  C_11
REMARK    6  A    between atoms: C_20  and  O_21
REMARK    7  A    between atoms: O_21  and  C_22
REMARK                            x       y       z     vdW  Elec       q    Type
REMARK                         _______ _______ _______ _____ _____    ______ ____
ROOT
ATOM      1  C   UNL     1       3.040   5.857  18.916  0.00  0.00    +0.000 C 
ATOM      2  C   UNL     1       4.230   5.505  19.419  0.00  0.00    +0.000 C 
ENDROOT
BRANCH   1   6
ATOM      3  C   UNL     1       1.053   9.382  20.346  0.00  0.00    +0.000 A 
ATOM      4  C   UNL     1       1.142   8.223  21.132  0.00  0.00    +0.000 A 
ATOM      5  C   UNL     1       1.786   7.077  20.657  0.00  0.00    +0.000 A 
ATOM      6  C   UNL     1       2.300   7.043  19.362  0.00  0.00    +0.000 A 
ATOM      7  C   UNL     1       2.122   8.172  18.550  0.00  0.00    +0.000 A 
ATOM      8  C   UNL     1       1.491   9.335  19.016  0.00  0.00    +0.000 A 
BRANCH   3  10
ATOM      9  C   UNL     1      -0.839  10.781  20.539  0.00  0.00    +0.000 C 
ATOM     10  O   UNL     1       0.533  10.539  20.860  0.00  0.00    +0.000 OA
ENDBRANCH   3  10
BRANCH   8  11
ATOM     11  O   UNL     1       1.433  10.295  18.043  0.00  0.00    +0.000 OA
ATOM     12  C   UNL     1       2.292  11.419  18.113  0.00  0.00    +0.000 C 
ENDBRANCH   8  11
ENDBRANCH   1   6
BRANCH   2  13
ATOM     13  C   UNL     1       4.949   4.313  18.901  0.00  0.00    +0.000 C 
ATOM     14  O   UNL     1       5.099   3.301  19.571  0.00  0.00    +0.000 OA
BRANCH  13  15
ATOM     15  C   UNL     1       5.537   4.408  17.542  0.00  0.00    +0.000 A 
ATOM     16  C   UNL     1       6.879   4.791  17.412  0.00  0.00    +0.000 A 
ATOM     17  C   UNL     1       7.458   4.878  16.144  0.00  0.00    +0.000 A 
ATOM     18  C   UNL     1       6.699   4.573  15.016  0.00  0.00    +0.000 A 
ATOM     19  F   UNL     1       7.258   4.656  13.803  0.00  0.00    +0.000 F 
ATOM     20  C   UNL     1       5.375   4.177  15.129  0.00  0.00    +0.000 A 
ATOM     21  C   UNL     1       4.802   4.091  16.394  0.00  0.00    +0.000 A 
ATOM     22  F   UNL     1       3.532   3.672  16.474  0.00  0.00    +0.000 F 
ENDBRANCH  13  15
ENDBRANCH   2  13
TORSDOF 5
ENDMDL
