MODEL 1
REMARK VINA RESULT:      -7.9      0.000      0.000
REMARK  Name = 
REMARK  9 active torsions:
REMARK  status: ('A' for Active; 'I' for Inactive)
REMARK    1  A    between atoms: C_1  and  C_2
REMARK    2  A    between atoms: C_5  and  C_6
REMARK    3  A    between atoms: C_7  and  O_8
REMARK    4  A    between atoms: O_8  and  C_9
REMARK    5  A    between atoms: C_9  and  C_10
REMARK    6  A    between atoms: N_12  and  N_13
REMARK    7  A    between atoms: C_14  and  C_15
REMARK    8  A    between atoms: C_16  and  C_17
REMARK    9  A    between atoms: N_19  and  C_20
REMARK                            x       y       z     vdW  Elec       q    Type
REMARK                         _______ _______ _______ _____ _____    ______ ____
ROOT
ATOM      1  N   UNL     1       1.930   5.262  20.333  0.00  0.00    +0.000 NA
ATOM      2  C   UNL     1       2.521   6.393  20.512  0.00  0.00    +0.000 C 
ENDROOT
BRANCH   2   3
ATOM      3  C   UNL     1       2.166   7.503  19.665  0.00  0.00    +0.000 A 
ATOM      4  C   UNL     1       2.579   7.821  18.341  0.00  0.00    +0.000 A 
ATOM      5  C   UNL     1       3.543   7.160  17.439  0.00  0.00    +0.000 C 
ATOM      6  N   UNL     1       1.969   8.908  17.866  0.00  0.00    +0.000 NA
ATOM      7  N   UNL     1       1.238   9.392  18.901  0.00  0.00    +0.000 N 
ATOM      8  C   UNL     1       1.294   8.518  19.976  0.00  0.00    +0.000 A 
ATOM      9 CL   UNL     1       0.291   8.662  21.350  0.00  0.00    +0.000 Cl
BRANCH   7  10
ATOM     10  C   UNL     1       0.581  10.638  18.711  0.00  0.00    +0.000 A 
ATOM     11  C   UNL     1       1.332  11.818  18.850  0.00  0.00    +0.000 A 
ATOM     12  C   UNL     1       0.747  13.060  18.628  0.00  0.00    +0.000 A 
ATOM     13  C   UNL     1      -0.601  13.136  18.289  0.00  0.00    +0.000 A 
ATOM     14  C   UNL     1      -1.366  11.975  18.207  0.00  0.00    +0.000 A 
ATOM     15  C   UNL     1      -0.783  10.724  18.424  0.00  0.00    +0.000 A 
ENDBRANCH   7  10
ENDBRANCH   2   3
BRANCH   1  18
ATOM     16  C   UNL     1       3.147   3.229  20.655  0.00  0.00    +0.000 C 
ATOM     17  O   UNL     1       3.417   2.266  21.379  0.00  0.00    +0.000 OA
ATOM     18  N   UNL     1       2.294   4.215  21.111  0.00  0.00    +0.000 N 
ATOM     19  H   UNL     1       1.964   4.132  22.068  0.00  0.00    +0.000 HD
BRANCH  16  20
ATOM     20  C   UNL     1       3.676   3.355  19.219  0.00  0.00    +0.000 C 
BRANCH  20  21
ATOM     21  O   UNL     1       5.043   3.743  19.217  0.00  0.00    +0.000 OA
BRANCH  21  28
ATOM     22  C   UNL     1       5.347   4.136  14.248  0.00  0.00    +0.000 C 
ATOM     23  C   UNL     1       5.849   4.413  15.637  0.00  0.00    +0.000 A 
ATOM     24  C   UNL     1       6.954   5.248  15.826  0.00  0.00    +0.000 A 
ATOM     25  C   UNL     1       7.380   5.570  17.113  0.00  0.00    +0.000 A 
ATOM     26  C   UNL     1       6.714   5.051  18.232  0.00  0.00    +0.000 A 
ATOM     27  C   UNL     1       7.062   5.564  19.606  0.00  0.00    +0.000 C 
ATOM     28  C   UNL     1       5.631   4.167  18.055  0.00  0.00    +0.000 A 
ATOM     29  C   UNL     1       5.194   3.870  16.758  0.00  0.00    +0.000 A 
ENDBRANCH  21  28
ENDBRANCH  20  21
ENDBRANCH  16  20
ENDBRANCH   1  18
TORSDOF 6
ENDMDL
MODEL 2
REMARK VINA RESULT:      -7.8      3.303      8.508
REMARK  Name = 
REMARK  9 active torsions:
REMARK  status: ('A' for Active; 'I' for Inactive)
REMARK    1  A    between atoms: C_1  and  C_2
REMARK    2  A    between atoms: C_5  and  C_6
REMARK    3  A    between atoms: C_7  and  O_8
REMARK    4  A    between atoms: O_8  and  C_9
REMARK    5  A    between atoms: C_9  and  C_10
REMARK    6  A    between atoms: N_12  and  N_13
REMARK    7  A    between atoms: C_14  and  C_15
REMARK    8  A    between atoms: C_16  and  C_17
REMARK    9  A    between atoms: N_19  and  C_20
REMARK                            x       y       z     vdW  Elec       q    Type
REMARK                         _______ _______ _______ _____ _____    ______ ____
ROOT
ATOM      1  N   UNL     1       3.679   6.420  18.742  0.00  0.00    +0.000 NA
ATOM      2  C   UNL     1       4.875   5.951  18.858  0.00  0.00    +0.000 C 
ENDROOT
BRANCH   2   3
ATOM      3  C   UNL     1       5.694   5.838  17.678  0.00  0.00    +0.000 A 
ATOM      4  C   UNL     1       6.947   6.435  17.366  0.00  0.00    +0.000 A 
ATOM      5  C   UNL     1       7.775   7.403  18.114  0.00  0.00    +0.000 C 
ATOM      6  N   UNL     1       7.426   6.027  16.191  0.00  0.00    +0.000 NA
ATOM      7  N   UNL     1       6.450   5.251  15.656  0.00  0.00    +0.000 N 
ATOM      8  C   UNL     1       5.424   5.073  16.570  0.00  0.00    +0.000 A 
ATOM      9 CL   UNL     1       4.159   3.949  16.349  0.00  0.00    +0.000 Cl
BRANCH   7  10
ATOM     10  C   UNL     1       6.642   4.784  14.326  0.00  0.00    +0.000 A 
ATOM     11  C   UNL     1       5.840   3.725  13.868  0.00  0.00    +0.000 A 
ATOM     12  C   UNL     1       5.956   3.264  12.560  0.00  0.00    +0.000 A 
ATOM     13  C   UNL     1       6.893   3.840  11.707  0.00  0.00    +0.000 A 
ATOM     14  C   UNL     1       7.732   4.850  12.172  0.00  0.00    +0.000 A 
ATOM     15  C   UNL     1       7.616   5.321  13.482  0.00  0.00    +0.000 A 
ENDBRANCH   7  10
ENDBRANCH   2   3
BRANCH   1  18
ATOM     16  C   UNL     1       1.968   7.489  20.025  0.00  0.00    +0.000 C 
ATOM     17  O   UNL     1       1.317   7.546  21.072  0.00  0.00    +0.000 OA
ATOM     18  N   UNL     1       2.906   6.490  19.851  0.00  0.00    +0.000 N 
ATOM     19  H   UNL     1       2.978   5.793  20.587  0.00  0.00    +0.000 HD
BRANCH  16  20
ATOM     20  C   UNL     1       1.828   8.535  18.908  0.00  0.00    +0.000 C 
BRANCH  20  21
ATOM     21  O   UNL     1       1.339   9.764  19.425  0.00  0.00    +0.000 OA
BRANCH  21  28
ATOM     22  C   UNL     1      -2.578   9.952  16.335  0.00  0.00    +0.000 C 
ATOM     23  C   UNL     1      -1.833  10.388  17.565  0.00  0.00    +0.000 A 
ATOM     24  C   UNL     1      -2.426  11.282  18.461  0.00  0.00    +0.000 A 
ATOM     25  C   UNL     1      -1.773  11.633  19.640  0.00  0.00    +0.000 A 
ATOM     26  C   UNL     1      -0.510  11.101  19.938  0.00  0.00    +0.000 A 
ATOM     27  C   UNL     1       0.090  11.334  21.301  0.00  0.00    +0.000 C 
ATOM     28  C   UNL     1       0.120  10.239  19.019  0.00  0.00    +0.000 A 
ATOM     29  C   UNL     1      -0.554   9.873  17.848  0.00  0.00    +0.000 A 
ENDBRANCH  21  28
ENDBRANCH  20  21
ENDBRANCH  16  20
ENDBRANCH   1  18
TORSDOF 6
ENDMDL
MODEL 3
REMARK VINA RESULT:      -7.7      2.954      8.294
REMARK  Name = 
REMARK  9 active torsions:
REMARK  status: ('A' for Active; 'I' for Inactive)
REMARK    1  A    between atoms: C_1  and  C_2
REMARK    2  A    between atoms: C_5  and  C_6
REMARK    3  A    between atoms: C_7  and  O_8
REMARK    4  A    between atoms: O_8  and  C_9
REMARK    5  A    between atoms: C_9  and  C_10
REMARK    6  A    between atoms: N_12  and  N_13
REMARK    7  A    between atoms: C_14  and  C_15
REMARK    8  A    between atoms: C_16  and  C_17
REMARK    9  A    between atoms: N_19  and  C_20
REMARK                            x       y       z     vdW  Elec       q    Type
REMARK                         _______ _______ _______ _____ _____    ______ ____
ROOT
ATOM      1  N   UNL     1       2.340   6.047  19.647  0.00  0.00    +0.000 NA
ATOM      2  C   UNL     1       3.551   5.604  19.641  0.00  0.00    +0.000 C 
ENDROOT
BRANCH   2   3
ATOM      3  C   UNL     1       4.023   4.892  18.481  0.00  0.00    +0.000 A 
ATOM      4  C   UNL     1       3.962   3.506  18.161  0.00  0.00    +0.000 A 
ATOM      5  C   UNL     1       3.458   2.353  18.933  0.00  0.00    +0.000 C 
ATOM      6  N   UNL     1       4.452   3.243  16.949  0.00  0.00    +0.000 NA
ATOM      7  N   UNL     1       4.949   4.421  16.498  0.00  0.00    +0.000 N 
ATOM      8  C   UNL     1       4.640   5.442  17.383  0.00  0.00    +0.000 A 
ATOM      9 CL   UNL     1       4.870   7.094  17.022  0.00  0.00    +0.000 Cl
BRANCH   7  10
ATOM     10  C   UNL     1       5.660   4.402  15.266  0.00  0.00    +0.000 A 
ATOM     11  C   UNL     1       5.094   3.714  14.179  0.00  0.00    +0.000 A 
ATOM     12  C   UNL     1       5.726   3.707  12.940  0.00  0.00    +0.000 A 
ATOM     13  C   UNL     1       6.943   4.365  12.783  0.00  0.00    +0.000 A 
ATOM     14  C   UNL     1       7.539   4.998  13.872  0.00  0.00    +0.000 A 
ATOM     15  C   UNL     1       6.906   5.014  15.117  0.00  0.00    +0.000 A 
ENDBRANCH   7  10
ENDBRANCH   2   3
BRANCH   1  18
ATOM     16  C   UNL     1       1.485   8.003  20.724  0.00  0.00    +0.000 C 
ATOM     17  O   UNL     1       1.131   8.563  21.766  0.00  0.00    +0.000 OA
ATOM     18  N   UNL     1       1.895   6.685  20.755  0.00  0.00    +0.000 N 
ATOM     19  H   UNL     1       1.829   6.203  21.648  0.00  0.00    +0.000 HD
BRANCH  16  20
ATOM     20  C   UNL     1       1.552   8.736  19.375  0.00  0.00    +0.000 C 
BRANCH  20  21
ATOM     21  O   UNL     1       1.122  10.083  19.511  0.00  0.00    +0.000 OA
BRANCH  21  28
ATOM     22  C   UNL     1      -2.634   9.830  16.231  0.00  0.00    +0.000 C 
ATOM     23  C   UNL     1      -1.973  10.401  17.453  0.00  0.00    +0.000 A 
ATOM     24  C   UNL     1      -2.648  11.340  18.238  0.00  0.00    +0.000 A 
ATOM     25  C   UNL     1      -2.072  11.820  19.412  0.00  0.00    +0.000 A 
ATOM     26  C   UNL     1      -0.805  11.374  19.815  0.00  0.00    +0.000 A 
ATOM     27  C   UNL     1      -0.287  11.749  21.181  0.00  0.00    +0.000 C 
ATOM     28  C   UNL     1      -0.093  10.466  19.007  0.00  0.00    +0.000 A 
ATOM     29  C   UNL     1      -0.690   9.971  17.841  0.00  0.00    +0.000 A 
ENDBRANCH  21  28
ENDBRANCH  20  21
ENDBRANCH  16  20
ENDBRANCH   1  18
TORSDOF 6
ENDMDL
MODEL 4
REMARK VINA RESULT:      -7.6      3.204      8.336
REMARK  Name = 
REMARK  9 active torsions:
REMARK  status: ('A' for Active; 'I' for Inactive)
REMARK    1  A    between atoms: C_1  and  C_2
REMARK    2  A    between atoms: C_5  and  C_6
REMARK    3  A    between atoms: C_7  and  O_8
REMARK    4  A    between atoms: O_8  and  C_9
REMARK    5  A    between atoms: C_9  and  C_10
REMARK    6  A    between atoms: N_12  and  N_13
REMARK    7  A    between atoms: C_14  and  C_15
REMARK    8  A    between atoms: C_16  and  C_17
REMARK    9  A    between atoms: N_19  and  C_20
REMARK                            x       y       z     vdW  Elec       q    Type
REMARK                         _______ _______ _______ _____ _____    ______ ____
ROOT
ATOM      1  N   UNL     1       3.591   6.080  19.037  0.00  0.00    +0.000 NA
ATOM      2  C   UNL     1       4.787   5.632  19.208  0.00  0.00    +0.000 C 
ENDROOT
BRANCH   2   3
ATOM      3  C   UNL     1       5.641   5.477  18.057  0.00  0.00    +0.000 A 
ATOM      4  C   UNL     1       7.015   5.802  17.879  0.00  0.00    +0.000 A 
ATOM      5  C   UNL     1       7.983   6.455  18.782  0.00  0.00    +0.000 C 
ATOM      6  N   UNL     1       7.471   5.440  16.679  0.00  0.00    +0.000 NA
ATOM      7  N   UNL     1       6.386   4.981  16.006  0.00  0.00    +0.000 N 
ATOM      8  C   UNL     1       5.285   4.934  16.846  0.00  0.00    +0.000 A 
ATOM      9 CL   UNL     1       3.820   4.167  16.426  0.00  0.00    +0.000 Cl
BRANCH   7  10
ATOM     10  C   UNL     1       6.561   4.646  14.635  0.00  0.00    +0.000 A 
ATOM     11  C   UNL     1       7.513   5.362  13.888  0.00  0.00    +0.000 A 
ATOM     12  C   UNL     1       7.755   5.040  12.557  0.00  0.00    +0.000 A 
ATOM     13  C   UNL     1       7.030   4.018  11.951  0.00  0.00    +0.000 A 
ATOM     14  C   UNL     1       6.044   3.343  12.669  0.00  0.00    +0.000 A 
ATOM     15  C   UNL     1       5.800   3.657  14.008  0.00  0.00    +0.000 A 
ENDBRANCH   7  10
ENDBRANCH   2   3
BRANCH   1  18
ATOM     16  C   UNL     1       1.885   7.228  20.259  0.00  0.00    +0.000 C 
ATOM     17  O   UNL     1       1.203   7.319  21.282  0.00  0.00    +0.000 OA
ATOM     18  N   UNL     1       2.785   6.190  20.120  0.00  0.00    +0.000 N 
ATOM     19  H   UNL     1       2.804   5.495  20.862  0.00  0.00    +0.000 HD
BRANCH  16  20
ATOM     20  C   UNL     1       1.825   8.271  19.131  0.00  0.00    +0.000 C 
BRANCH  20  21
ATOM     21  O   UNL     1       1.395   9.529  19.630  0.00  0.00    +0.000 OA
BRANCH  21  28
ATOM     22  C   UNL     1      -2.338  10.014  16.351  0.00  0.00    +0.000 C 
ATOM     23  C   UNL     1      -1.637  10.375  17.630  0.00  0.00    +0.000 A 
ATOM     24  C   UNL     1      -2.227  11.277  18.520  0.00  0.00    +0.000 A 
ATOM     25  C   UNL     1      -1.619  11.560  19.741  0.00  0.00    +0.000 A 
ATOM     26  C   UNL     1      -0.404  10.952  20.087  0.00  0.00    +0.000 A 
ATOM     27  C   UNL     1       0.135  11.116  21.485  0.00  0.00    +0.000 C 
ATOM     28  C   UNL     1       0.227  10.082  19.177  0.00  0.00    +0.000 A 
ATOM     29  C   UNL     1      -0.404   9.784  17.963  0.00  0.00    +0.000 A 
ENDBRANCH  21  28
ENDBRANCH  20  21
ENDBRANCH  16  20
ENDBRANCH   1  18
TORSDOF 6
ENDMDL
MODEL 5
REMARK VINA RESULT:      -7.6      5.974      8.957
REMARK  Name = 
REMARK  9 active torsions:
REMARK  status: ('A' for Active; 'I' for Inactive)
REMARK    1  A    between atoms: C_1  and  C_2
REMARK    2  A    between atoms: C_5  and  C_6
REMARK    3  A    between atoms: C_7  and  O_8
REMARK    4  A    between atoms: O_8  and  C_9
REMARK    5  A    between atoms: C_9  and  C_10
REMARK    6  A    between atoms: N_12  and  N_13
REMARK    7  A    between atoms: C_14  and  C_15
REMARK    8  A    between atoms: C_16  and  C_17
REMARK    9  A    between atoms: N_19  and  C_20
REMARK                            x       y       z     vdW  Elec       q    Type
REMARK                         _______ _______ _______ _____ _____    ______ ____
ROOT
ATOM      1  N   UNL     1       7.740   8.763  17.942  0.00  0.00    +0.000 NA
ATOM      2  C   UNL     1       7.704   7.612  17.363  0.00  0.00    +0.000 C 
ENDROOT
BRANCH   2   3
ATOM      3  C   UNL     1       6.861   6.583  17.917  0.00  0.00    +0.000 A 
ATOM      4  C   UNL     1       7.066   5.725  19.034  0.00  0.00    +0.000 A 
ATOM      5  C   UNL     1       8.222   5.569  19.939  0.00  0.00    +0.000 C 
ATOM      6  N   UNL     1       6.012   4.945  19.275  0.00  0.00    +0.000 NA
ATOM      7  N   UNL     1       5.147   5.186  18.260  0.00  0.00    +0.000 N 
ATOM      8  C   UNL     1       5.615   6.221  17.466  0.00  0.00    +0.000 A 
ATOM      9 CL   UNL     1       4.672   6.972  16.258  0.00  0.00    +0.000 Cl
BRANCH   7  10
ATOM     10  C   UNL     1       3.977   4.379  18.193  0.00  0.00    +0.000 A 
ATOM     11  C   UNL     1       4.126   3.003  17.950  0.00  0.00    +0.000 A 
ATOM     12  C   UNL     1       3.017   2.165  17.924  0.00  0.00    +0.000 A 
ATOM     13  C   UNL     1       1.745   2.698  18.113  0.00  0.00    +0.000 A 
ATOM     14  C   UNL     1       1.584   4.070  18.295  0.00  0.00    +0.000 A 
ATOM     15  C   UNL     1       2.695   4.916  18.329  0.00  0.00    +0.000 A 
ENDBRANCH   7  10
ENDBRANCH   2   3
BRANCH   1  18
ATOM     16  C   UNL     1       9.298  10.552  18.246  0.00  0.00    +0.000 C 
ATOM     17  O   UNL     1       9.997  11.436  17.745  0.00  0.00    +0.000 OA
ATOM     18  N   UNL     1       8.561   9.712  17.434  0.00  0.00    +0.000 N 
ATOM     19  H   UNL     1       8.677   9.825  16.430  0.00  0.00    +0.000 HD
BRANCH  16  20
ATOM     20  C   UNL     1       9.155  10.374  19.766  0.00  0.00    +0.000 C 
BRANCH  20  21
ATOM     21  O   UNL     1      10.122  11.151  20.458  0.00  0.00    +0.000 OA
BRANCH  21  28
ATOM     22  C   UNL     1       7.611  13.223  24.244  0.00  0.00    +0.000 C 
ATOM     23  C   UNL     1       8.534  13.301  23.060  0.00  0.00    +0.000 A 
ATOM     24  C   UNL     1       9.142  14.514  22.727  0.00  0.00    +0.000 A 
ATOM     25  C   UNL     1      10.056  14.577  21.677  0.00  0.00    +0.000 A 
ATOM     26  C   UNL     1      10.367  13.428  20.936  0.00  0.00    +0.000 A 
ATOM     27  C   UNL     1      11.498  13.472  19.940  0.00  0.00    +0.000 C 
ATOM     28  C   UNL     1       9.723  12.211  21.229  0.00  0.00    +0.000 A 
ATOM     29  C   UNL     1       8.824  12.151  22.302  0.00  0.00    +0.000 A 
ENDBRANCH  21  28
ENDBRANCH  20  21
ENDBRANCH  16  20
ENDBRANCH   1  18
TORSDOF 6
ENDMDL
MODEL 6
REMARK VINA RESULT:      -7.5      3.185      8.320
REMARK  Name = 
REMARK  9 active torsions:
REMARK  status: ('A' for Active; 'I' for Inactive)
REMARK    1  A    between atoms: C_1  and  C_2
REMARK    2  A    between atoms: C_5  and  C_6
REMARK    3  A    between atoms: C_7  and  O_8
REMARK    4  A    between atoms: O_8  and  C_9
REMARK    5  A    between atoms: C_9  and  C_10
REMARK    6  A    between atoms: N_12  and  N_13
REMARK    7  A    between atoms: C_14  and  C_15
REMARK    8  A    between atoms: C_16  and  C_17
REMARK    9  A    between atoms: N_19  and  C_20
REMARK                            x       y       z     vdW  Elec       q    Type
REMARK                         _______ _______ _______ _____ _____    ______ ____
ROOT
ATOM      1  N   UNL     1       1.632   8.033  21.133  0.00  0.00    +0.000 NA
ATOM      2  C   UNL     1       1.317   6.811  20.870  0.00  0.00    +0.000 C 
ENDROOT
BRANCH   2   3
ATOM      3  C   UNL     1       2.234   6.008  20.102  0.00  0.00    +0.000 A 
ATOM      4  C   UNL     1       2.643   4.656  20.276  0.00  0.00    +0.000 A 
ATOM      5  C   UNL     1       2.313   3.669  21.323  0.00  0.00    +0.000 C 
ATOM      6  N   UNL     1       3.462   4.245  19.308  0.00  0.00    +0.000 NA
ATOM      7  N   UNL     1       3.702   5.343  18.549  0.00  0.00    +0.000 N 
ATOM      8  C   UNL     1       2.916   6.401  18.976  0.00  0.00    +0.000 A 
ATOM      9 CL   UNL     1       2.753   7.858  18.102  0.00  0.00    +0.000 Cl
BRANCH   7  10
ATOM     10  C   UNL     1       4.663   5.221  17.508  0.00  0.00    +0.000 A 
ATOM     11  C   UNL     1       5.798   6.050  17.545  0.00  0.00    +0.000 A 
ATOM     12  C   UNL     1       6.789   5.935  16.576  0.00  0.00    +0.000 A 
ATOM     13  C   UNL     1       6.644   5.010  15.546  0.00  0.00    +0.000 A 
ATOM     14  C   UNL     1       5.494   4.226  15.470  0.00  0.00    +0.000 A 
ATOM     15  C   UNL     1       4.498   4.332  16.444  0.00  0.00    +0.000 A 
ENDBRANCH   7  10
ENDBRANCH   2   3
BRANCH   1  18
ATOM     16  C   UNL     1       0.047   9.821  21.232  0.00  0.00    +0.000 C 
ATOM     17  O   UNL     1      -0.713  10.518  21.909  0.00  0.00    +0.000 OA
ATOM     18  N   UNL     1       0.749   8.790  21.826  0.00  0.00    +0.000 N 
ATOM     19  H   UNL     1       0.559   8.610  22.808  0.00  0.00    +0.000 HD
BRANCH  16  20
ATOM     20  C   UNL     1       0.303  10.087  19.740  0.00  0.00    +0.000 C 
BRANCH  20  21
ATOM     21  O   UNL     1      -0.350  11.277  19.321  0.00  0.00    +0.000 OA
BRANCH  21  28
ATOM     22  C   UNL     1      -2.947   9.557  15.418  0.00  0.00    +0.000 C 
ATOM     23  C   UNL     1      -2.804  10.405  16.650  0.00  0.00    +0.000 A 
ATOM     24  C   UNL     1      -3.899  11.128  17.131  0.00  0.00    +0.000 A 
ATOM     25  C   UNL     1      -3.796  11.858  18.314  0.00  0.00    +0.000 A 
ATOM     26  C   UNL     1      -2.591  11.884  19.029  0.00  0.00    +0.000 A 
ATOM     27  C   UNL     1      -2.555  12.511  20.399  0.00  0.00    +0.000 C 
ATOM     28  C   UNL     1      -1.465  11.201  18.528  0.00  0.00    +0.000 A 
ATOM     29  C   UNL     1      -1.585  10.451  17.352  0.00  0.00    +0.000 A 
ENDBRANCH  21  28
ENDBRANCH  20  21
ENDBRANCH  16  20
ENDBRANCH   1  18
TORSDOF 6
ENDMDL
MODEL 7
REMARK VINA RESULT:      -7.5      0.639      1.117
REMARK  Name = 
REMARK  9 active torsions:
REMARK  status: ('A' for Active; 'I' for Inactive)
REMARK    1  A    between atoms: C_1  and  C_2
REMARK    2  A    between atoms: C_5  and  C_6
REMARK    3  A    between atoms: C_7  and  O_8
REMARK    4  A    between atoms: O_8  and  C_9
REMARK    5  A    between atoms: C_9  and  C_10
REMARK    6  A    between atoms: N_12  and  N_13
REMARK    7  A    between atoms: C_14  and  C_15
REMARK    8  A    between atoms: C_16  and  C_17
REMARK    9  A    between atoms: N_19  and  C_20
REMARK                            x       y       z     vdW  Elec       q    Type
REMARK                         _______ _______ _______ _____ _____    ______ ____
ROOT
ATOM      1  N   UNL     1       1.690   5.495  20.363  0.00  0.00    +0.000 NA
ATOM      2  C   UNL     1       2.171   6.624  20.756  0.00  0.00    +0.000 C 
ENDROOT
BRANCH   2   3
ATOM      3  C   UNL     1       1.819   7.819  20.032  0.00  0.00    +0.000 A 
ATOM      4  C   UNL     1       2.173   8.238  18.719  0.00  0.00    +0.000 A 
ATOM      5  C   UNL     1       3.056   7.624  17.708  0.00  0.00    +0.000 C 
ATOM      6  N   UNL     1       1.586   9.386  18.377  0.00  0.00    +0.000 NA
ATOM      7  N   UNL     1       0.935   9.803  19.492  0.00  0.00    +0.000 N 
ATOM      8  C   UNL     1       1.011   8.835  20.481  0.00  0.00    +0.000 A 
ATOM      9 CL   UNL     1       0.093   8.893  21.918  0.00  0.00    +0.000 Cl
BRANCH   7  10
ATOM     10  C   UNL     1       0.323  11.086  19.450  0.00  0.00    +0.000 A 
ATOM     11  C   UNL     1      -1.069  11.158  19.271  0.00  0.00    +0.000 A 
ATOM     12  C   UNL     1      -1.720  12.387  19.271  0.00  0.00    +0.000 A 
ATOM     13  C   UNL     1      -0.983  13.558  19.425  0.00  0.00    +0.000 A 
ATOM     14  C   UNL     1       0.404  13.498  19.544  0.00  0.00    +0.000 A 
ATOM     15  C   UNL     1       1.063  12.266  19.550  0.00  0.00    +0.000 A 
ENDBRANCH   7  10
ENDBRANCH   2   3
BRANCH   1  18
ATOM     16  C   UNL     1       2.884   3.426  20.465  0.00  0.00    +0.000 C 
ATOM     17  O   UNL     1       3.153   2.394  21.086  0.00  0.00    +0.000 OA
ATOM     18  N   UNL     1       2.054   4.374  21.029  0.00  0.00    +0.000 N 
ATOM     19  H   UNL     1       1.740   4.203  21.980  0.00  0.00    +0.000 HD
BRANCH  16  20
ATOM     20  C   UNL     1       3.390   3.684  19.037  0.00  0.00    +0.000 C 
BRANCH  20  21
ATOM     21  O   UNL     1       4.808   3.752  19.008  0.00  0.00    +0.000 OA
BRANCH  21  28
ATOM     22  C   UNL     1       5.302   4.145  14.055  0.00  0.00    +0.000 C 
ATOM     23  C   UNL     1       5.762   4.406  15.462  0.00  0.00    +0.000 A 
ATOM     24  C   UNL     1       6.882   5.209  15.692  0.00  0.00    +0.000 A 
ATOM     25  C   UNL     1       7.270   5.516  16.995  0.00  0.00    +0.000 A 
ATOM     26  C   UNL     1       6.550   5.015  18.088  0.00  0.00    +0.000 A 
ATOM     27  C   UNL     1       6.863   5.516  19.475  0.00  0.00    +0.000 C 
ATOM     28  C   UNL     1       5.450   4.162  17.869  0.00  0.00    +0.000 A 
ATOM     29  C   UNL     1       5.052   3.879  16.557  0.00  0.00    +0.000 A 
ENDBRANCH  21  28
ENDBRANCH  20  21
ENDBRANCH  16  20
ENDBRANCH   1  18
TORSDOF 6
ENDMDL
MODEL 8
REMARK VINA RESULT:      -7.4      3.653      8.658
REMARK  Name = 
REMARK  9 active torsions:
REMARK  status: ('A' for Active; 'I' for Inactive)
REMARK    1  A    between atoms: C_1  and  C_2
REMARK    2  A    between atoms: C_5  and  C_6
REMARK    3  A    between atoms: C_7  and  O_8
REMARK    4  A    between atoms: O_8  and  C_9
REMARK    5  A    between atoms: C_9  and  C_10
REMARK    6  A    between atoms: N_12  and  N_13
REMARK    7  A    between atoms: C_14  and  C_15
REMARK    8  A    between atoms: C_16  and  C_17
REMARK    9  A    between atoms: N_19  and  C_20
REMARK                            x       y       z     vdW  Elec       q    Type
REMARK                         _______ _______ _______ _____ _____    ______ ____
ROOT
ATOM      1  N   UNL     1      -0.065   9.059  21.125  0.00  0.00    +0.000 NA
ATOM      2  C   UNL     1       1.185   8.744  21.123  0.00  0.00    +0.000 C 
ENDROOT
BRANCH   2   3
ATOM      3  C   UNL     1       1.732   8.083  19.966  0.00  0.00    +0.000 A 
ATOM      4  C   UNL     1       2.034   8.590  18.671  0.00  0.00    +0.000 A 
ATOM      5  C   UNL     1       1.826   9.926  18.079  0.00  0.00    +0.000 C 
ATOM      6  N   UNL     1       2.600   7.673  17.886  0.00  0.00    +0.000 NA
ATOM      7  N   UNL     1       2.575   6.521  18.602  0.00  0.00    +0.000 N 
ATOM      8  C   UNL     1       2.114   6.765  19.886  0.00  0.00    +0.000 A 
ATOM      9 CL   UNL     1       2.195   5.614  21.143  0.00  0.00    +0.000 Cl
BRANCH   7  10
ATOM     10  C   UNL     1       3.002   5.334  17.945  0.00  0.00    +0.000 A 
ATOM     11  C   UNL     1       4.281   5.315  17.363  0.00  0.00    +0.000 A 
ATOM     12  C   UNL     1       4.763   4.163  16.752  0.00  0.00    +0.000 A 
ATOM     13  C   UNL     1       3.962   3.026  16.694  0.00  0.00    +0.000 A 
ATOM     14  C   UNL     1       2.671   3.055  17.217  0.00  0.00    +0.000 A 
ATOM     15  C   UNL     1       2.183   4.208  17.838  0.00  0.00    +0.000 A 
ENDBRANCH   7  10
ENDBRANCH   2   3
BRANCH   1  18
ATOM     16  C   UNL     1      -0.657  11.023  22.355  0.00  0.00    +0.000 C 
ATOM     17  O   UNL     1      -1.086  11.523  23.398  0.00  0.00    +0.000 OA
ATOM     18  N   UNL     1      -0.578   9.650  22.230  0.00  0.00    +0.000 N 
ATOM     19  H   UNL     1      -0.941   9.096  23.001  0.00  0.00    +0.000 HD
BRANCH  16  20
ATOM     20  C   UNL     1      -0.137  11.873  21.185  0.00  0.00    +0.000 C 
BRANCH  20  21
ATOM     21  O   UNL     1      -1.171  12.692  20.658  0.00  0.00    +0.000 OA
BRANCH  21  28
ATOM     22  C   UNL     1      -2.288   9.916  16.661  0.00  0.00    +0.000 C 
ATOM     23  C   UNL     1      -2.661  10.853  17.776  0.00  0.00    +0.000 A 
ATOM     24  C   UNL     1      -3.999  11.202  17.976  0.00  0.00    +0.000 A 
ATOM     25  C   UNL     1      -4.361  12.010  19.052  0.00  0.00    +0.000 A 
ATOM     26  C   UNL     1      -3.388  12.491  19.938  0.00  0.00    +0.000 A 
ATOM     27  C   UNL     1      -3.817  13.194  21.200  0.00  0.00    +0.000 C 
ATOM     28  C   UNL     1      -2.030  12.189  19.717  0.00  0.00    +0.000 A 
ATOM     29  C   UNL     1      -1.678  11.356  18.648  0.00  0.00    +0.000 A 
ENDBRANCH  21  28
ENDBRANCH  20  21
ENDBRANCH  16  20
ENDBRANCH   1  18
TORSDOF 6
ENDMDL
MODEL 9
REMARK VINA RESULT:      -7.3      2.103      2.460
REMARK  Name = 
REMARK  9 active torsions:
REMARK  status: ('A' for Active; 'I' for Inactive)
REMARK    1  A    between atoms: C_1  and  C_2
REMARK    2  A    between atoms: C_5  and  C_6
REMARK    3  A    between atoms: C_7  and  O_8
REMARK    4  A    between atoms: O_8  and  C_9
REMARK    5  A    between atoms: C_9  and  C_10
REMARK    6  A    between atoms: N_12  and  N_13
REMARK    7  A    between atoms: C_14  and  C_15
REMARK    8  A    between atoms: C_16  and  C_17
REMARK    9  A    between atoms: N_19  and  C_20
REMARK                            x       y       z     vdW  Elec       q    Type
REMARK                         _______ _______ _______ _____ _____    ______ ____
ROOT
ATOM      1  N   UNL     1       1.389   6.571  20.578  0.00  0.00    +0.000 NA
ATOM      2  C   UNL     1       1.817   7.707  21.009  0.00  0.00    +0.000 C 
ENDROOT
BRANCH   2   3
ATOM      3  C   UNL     1       1.110   8.904  20.633  0.00  0.00    +0.000 A 
ATOM      4  C   UNL     1       1.026   9.569  19.377  0.00  0.00    +0.000 A 
ATOM      5  C   UNL     1       1.680   9.288  18.084  0.00  0.00    +0.000 C 
ATOM      6  N   UNL     1       0.206  10.620  19.413  0.00  0.00    +0.000 NA
ATOM      7  N   UNL     1      -0.170  10.739  20.710  0.00  0.00    +0.000 N 
ATOM      8  C   UNL     1       0.314   9.671  21.449  0.00  0.00    +0.000 A 
ATOM      9 CL   UNL     1      -0.176   9.344  23.051  0.00  0.00    +0.000 Cl
BRANCH   7  10
ATOM     10  C   UNL     1      -0.952  11.874  21.064  0.00  0.00    +0.000 A 
ATOM     11  C   UNL     1      -2.096  12.161  20.300  0.00  0.00    +0.000 A 
ATOM     12  C   UNL     1      -2.920  13.231  20.635  0.00  0.00    +0.000 A 
ATOM     13  C   UNL     1      -2.593  14.040  21.720  0.00  0.00    +0.000 A 
ATOM     14  C   UNL     1      -1.428  13.797  22.444  0.00  0.00    +0.000 A 
ATOM     15  C   UNL     1      -0.600  12.720  22.117  0.00  0.00    +0.000 A 
ENDBRANCH   7  10
ENDBRANCH   2   3
BRANCH   1  18
ATOM     16  C   UNL     1       2.868   4.785  19.993  0.00  0.00    +0.000 C 
ATOM     17  O   UNL     1       3.444   3.744  20.321  0.00  0.00    +0.000 OA
ATOM     18  N   UNL     1       2.081   5.455  20.909  0.00  0.00    +0.000 N 
ATOM     19  H   UNL     1       2.057   5.084  21.854  0.00  0.00    +0.000 HD
BRANCH  16  20
ATOM     20  C   UNL     1       2.935   5.351  18.566  0.00  0.00    +0.000 C 
BRANCH  20  21
ATOM     21  O   UNL     1       4.200   5.949  18.320  0.00  0.00    +0.000 OA
BRANCH  21  28
ATOM     22  C   UNL     1       5.613   4.174  13.872  0.00  0.00    +0.000 C 
ATOM     23  C   UNL     1       5.857   4.464  15.326  0.00  0.00    +0.000 A 
ATOM     24  C   UNL     1       7.109   4.205  15.889  0.00  0.00    +0.000 A 
ATOM     25  C   UNL     1       7.366   4.539  17.217  0.00  0.00    +0.000 A 
ATOM     26  C   UNL     1       6.368   5.129  18.007  0.00  0.00    +0.000 A 
ATOM     27  C   UNL     1       6.722   5.662  19.371  0.00  0.00    +0.000 C 
ATOM     28  C   UNL     1       5.086   5.347  17.466  0.00  0.00    +0.000 A 
ATOM     29  C   UNL     1       4.845   5.031  16.123  0.00  0.00    +0.000 A 
ENDBRANCH  21  28
ENDBRANCH  20  21
ENDBRANCH  16  20
ENDBRANCH   1  18
TORSDOF 6
ENDMDL
