MODEL 1
REMARK VINA RESULT:      -8.2      0.000      0.000
REMARK  Name = 
REMARK  3 active torsions:
REMARK  status: ('A' for Active; 'I' for Inactive)
REMARK    1  A    between atoms: C_5  and  C_6
REMARK    2  A    between atoms: N_10  and  N_11
REMARK    3  A    between atoms: C_12  and  C_13
REMARK                            x       y       z     vdW  Elec       q    Type
REMARK                         _______ _______ _______ _____ _____    ______ ____
ROOT
ATOM      1  C   UNL     1       0.912   9.588  19.781  0.00  0.00    +0.000 A 
ATOM      2  C   UNL     1       1.153  10.201  18.568  0.00  0.00    +0.000 A 
ATOM      3  S   UNL     1       2.201   9.232  17.623  0.00  0.00    +0.000 S 
ATOM      4  C   UNL     1       2.205   8.035  18.865  0.00  0.00    +0.000 A 
ATOM      5  N   UNL     1       2.909   6.894  18.689  0.00  0.00    +0.000 N 
ATOM      6  N   UNL     1       1.525   8.361  19.943  0.00  0.00    +0.000 NA
ATOM      7  H   UNL     1       3.520   6.848  17.877  0.00  0.00    +0.000 HD
ENDROOT
BRANCH   1  12
ATOM      8  F   UNL     1      -2.193  11.845  23.838  0.00  0.00    +0.000 F 
ATOM      9  C   UNL     1      -1.453  11.296  22.868  0.00  0.00    +0.000 A 
ATOM     10  C   UNL     1      -1.559  11.780  21.568  0.00  0.00    +0.000 A 
ATOM     11  C   UNL     1      -0.778  11.213  20.557  0.00  0.00    +0.000 A 
ATOM     12  C   UNL     1       0.099  10.153  20.845  0.00  0.00    +0.000 A 
ATOM     13  C   UNL     1       0.181   9.692  22.165  0.00  0.00    +0.000 A 
ATOM     14  F   UNL     1       1.021   8.698  22.496  0.00  0.00    +0.000 F 
ATOM     15  C   UNL     1      -0.587  10.257  23.177  0.00  0.00    +0.000 A 
ENDBRANCH   1  12
BRANCH   5  16
ATOM     16  N   UNL     1       2.622   5.725  19.326  0.00  0.00    +0.000 NA
ATOM     17  C   UNL     1       3.501   4.767  19.279  0.00  0.00    +0.000 C 
BRANCH  17  18
ATOM     18  C   UNL     1       4.857   4.872  18.765  0.00  0.00    +0.000 A 
ATOM     19  C   UNL     1       6.005   5.084  19.505  0.00  0.00    +0.000 A 
ATOM     20  N   UNL     1       7.082   5.039  18.668  0.00  0.00    +0.000 N 
ATOM     21  C   UNL     1       6.668   4.779  17.383  0.00  0.00    +0.000 A 
ATOM     22  C   UNL     1       7.422   4.616  16.221  0.00  0.00    +0.000 A 
ATOM     23  C   UNL     1       6.735   4.362  15.032  0.00  0.00    +0.000 A 
ATOM     24  C   UNL     1       5.343   4.289  15.011  0.00  0.00    +0.000 A 
ATOM     25  C   UNL     1       4.603   4.448  16.189  0.00  0.00    +0.000 A 
ATOM     26  C   UNL     1       5.276   4.690  17.408  0.00  0.00    +0.000 A 
ATOM     27  H   UNL     1       8.046   5.149  18.950  0.00  0.00    +0.000 HD
ENDBRANCH  17  18
ENDBRANCH   5  16
TORSDOF 3
ENDMDL
MODEL 2
REMARK VINA RESULT:      -8.2      1.111      1.784
REMARK  Name = 
REMARK  3 active torsions:
REMARK  status: ('A' for Active; 'I' for Inactive)
REMARK    1  A    between atoms: C_5  and  C_6
REMARK    2  A    between atoms: N_10  and  N_11
REMARK    3  A    between atoms: C_12  and  C_13
REMARK                            x       y       z     vdW  Elec       q    Type
REMARK                         _______ _______ _______ _____ _____    ______ ____
ROOT
ATOM      1  C   UNL     1       0.605   9.711  20.002  0.00  0.00    +0.000 A 
ATOM      2  C   UNL     1       0.845  10.132  18.710  0.00  0.00    +0.000 A 
ATOM      3  S   UNL     1       1.911   9.045  17.930  0.00  0.00    +0.000 S 
ATOM      4  C   UNL     1       1.924   8.053  19.341  0.00  0.00    +0.000 A 
ATOM      5  N   UNL     1       2.646   6.910  19.346  0.00  0.00    +0.000 N 
ATOM      6  N   UNL     1       1.234   8.532  20.353  0.00  0.00    +0.000 NA
ATOM      7  H   UNL     1       3.262   6.749  18.553  0.00  0.00    +0.000 HD
ENDROOT
BRANCH   1  12
ATOM      8  F   UNL     1      -2.539  12.521  23.665  0.00  0.00    +0.000 F 
ATOM      9  C   UNL     1      -1.791  11.840  22.789  0.00  0.00    +0.000 A 
ATOM     10  C   UNL     1      -1.684  12.296  21.479  0.00  0.00    +0.000 A 
ATOM     11  C   UNL     1      -0.894  11.590  20.567  0.00  0.00    +0.000 A 
ATOM     12  C   UNL     1      -0.223  10.421  20.963  0.00  0.00    +0.000 A 
ATOM     13  C   UNL     1      -0.353   9.991  22.290  0.00  0.00    +0.000 A 
ATOM     14  F   UNL     1       0.288   8.893  22.723  0.00  0.00    +0.000 F 
ATOM     15  C   UNL     1      -1.130  10.693  23.204  0.00  0.00    +0.000 A 
ENDBRANCH   1  12
BRANCH   5  16
ATOM     16  N   UNL     1       2.370   5.849  20.155  0.00  0.00    +0.000 NA
ATOM     17  C   UNL     1       2.732   4.664  19.757  0.00  0.00    +0.000 C 
BRANCH  17  18
ATOM     18  C   UNL     1       3.572   4.363  18.609  0.00  0.00    +0.000 A 
ATOM     19  C   UNL     1       3.163   3.802  17.414  0.00  0.00    +0.000 A 
ATOM     20  N   UNL     1       4.229   3.754  16.563  0.00  0.00    +0.000 N 
ATOM     21  C   UNL     1       5.338   4.296  17.170  0.00  0.00    +0.000 A 
ATOM     22  C   UNL     1       6.626   4.482  16.666  0.00  0.00    +0.000 A 
ATOM     23  C   UNL     1       7.576   5.060  17.512  0.00  0.00    +0.000 A 
ATOM     24  C   UNL     1       7.246   5.422  18.817  0.00  0.00    +0.000 A 
ATOM     25  C   UNL     1       5.946   5.235  19.303  0.00  0.00    +0.000 A 
ATOM     26  C   UNL     1       4.962   4.668  18.460  0.00  0.00    +0.000 A 
ATOM     27  H   UNL     1       4.207   3.403  15.616  0.00  0.00    +0.000 HD
ENDBRANCH  17  18
ENDBRANCH   5  16
TORSDOF 3
ENDMDL
MODEL 3
REMARK VINA RESULT:      -8.1      0.979      1.343
REMARK  Name = 
REMARK  3 active torsions:
REMARK  status: ('A' for Active; 'I' for Inactive)
REMARK    1  A    between atoms: C_5  and  C_6
REMARK    2  A    between atoms: N_10  and  N_11
REMARK    3  A    between atoms: C_12  and  C_13
REMARK                            x       y       z     vdW  Elec       q    Type
REMARK                         _______ _______ _______ _____ _____    ______ ____
ROOT
ATOM      1  C   UNL     1       0.966   9.352  19.844  0.00  0.00    +0.000 A 
ATOM      2  C   UNL     1       1.000   9.785  18.534  0.00  0.00    +0.000 A 
ATOM      3  S   UNL     1       2.040   8.783  17.615  0.00  0.00    +0.000 S 
ATOM      4  C   UNL     1       2.317   7.803  19.007  0.00  0.00    +0.000 A 
ATOM      5  N   UNL     1       3.123   6.722  18.911  0.00  0.00    +0.000 N 
ATOM      6  N   UNL     1       1.729   8.230  20.103  0.00  0.00    +0.000 NA
ATOM      7  H   UNL     1       3.641   6.606  18.044  0.00  0.00    +0.000 HD
ENDROOT
BRANCH   1  12
ATOM      8  F   UNL     1      -1.968  11.755  23.944  0.00  0.00    +0.000 F 
ATOM      9  C   UNL     1      -1.258  11.186  22.962  0.00  0.00    +0.000 A 
ATOM     10  C   UNL     1      -0.836   9.867  23.098  0.00  0.00    +0.000 A 
ATOM     11  C   UNL     1      -0.103   9.270  22.068  0.00  0.00    +0.000 A 
ATOM     12  C   UNL     1       0.217   9.997  20.909  0.00  0.00    +0.000 A 
ATOM     13  C   UNL     1      -0.226  11.322  20.806  0.00  0.00    +0.000 A 
ATOM     14  F   UNL     1       0.034  12.050  19.708  0.00  0.00    +0.000 F 
ATOM     15  C   UNL     1      -0.962  11.920  21.823  0.00  0.00    +0.000 A 
ENDBRANCH   1  12
BRANCH   5  16
ATOM     16  N   UNL     1       3.042   5.646  19.743  0.00  0.00    +0.000 NA
ATOM     17  C   UNL     1       3.996   4.762  19.697  0.00  0.00    +0.000 C 
BRANCH  17  18
ATOM     18  C   UNL     1       5.249   4.888  18.972  0.00  0.00    +0.000 A 
ATOM     19  C   UNL     1       6.489   5.170  19.514  0.00  0.00    +0.000 A 
ATOM     20  N   UNL     1       7.424   5.124  18.522  0.00  0.00    +0.000 N 
ATOM     21  C   UNL     1       6.825   4.794  17.328  0.00  0.00    +0.000 A 
ATOM     22  C   UNL     1       7.396   4.604  16.070  0.00  0.00    +0.000 A 
ATOM     23  C   UNL     1       6.543   4.275  15.014  0.00  0.00    +0.000 A 
ATOM     24  C   UNL     1       5.168   4.156  15.215  0.00  0.00    +0.000 A 
ATOM     25  C   UNL     1       4.615   4.342  16.487  0.00  0.00    +0.000 A 
ATOM     26  C   UNL     1       5.459   4.660  17.575  0.00  0.00    +0.000 A 
ATOM     27  H   UNL     1       8.415   5.278  18.644  0.00  0.00    +0.000 HD
ENDBRANCH  17  18
ENDBRANCH   5  16
TORSDOF 3
ENDMDL
MODEL 4
REMARK VINA RESULT:      -7.9      2.662      3.505
REMARK  Name = 
REMARK  3 active torsions:
REMARK  status: ('A' for Active; 'I' for Inactive)
REMARK    1  A    between atoms: C_5  and  C_6
REMARK    2  A    between atoms: N_10  and  N_11
REMARK    3  A    between atoms: C_12  and  C_13
REMARK                            x       y       z     vdW  Elec       q    Type
REMARK                         _______ _______ _______ _____ _____    ______ ____
ROOT
ATOM      1  C   UNL     1       1.062  10.053  19.646  0.00  0.00    +0.000 A 
ATOM      2  C   UNL     1       0.891   9.414  20.858  0.00  0.00    +0.000 A 
ATOM      3  S   UNL     1       1.505   7.819  20.768  0.00  0.00    +0.000 S 
ATOM      4  C   UNL     1       2.017   8.113  19.148  0.00  0.00    +0.000 A 
ATOM      5  N   UNL     1       2.657   7.138  18.463  0.00  0.00    +0.000 N 
ATOM      6  N   UNL     1       1.694   9.299  18.677  0.00  0.00    +0.000 NA
ATOM      7  H   UNL     1       2.692   6.218  18.894  0.00  0.00    +0.000 HD
ENDROOT
BRANCH   1  12
ATOM      8  F   UNL     1      -0.633  15.275  18.618  0.00  0.00    +0.000 F 
ATOM      9  C   UNL     1      -0.226  14.022  18.856  0.00  0.00    +0.000 A 
ATOM     10  C   UNL     1       0.914  13.806  19.623  0.00  0.00    +0.000 A 
ATOM     11  C   UNL     1       1.333  12.497  19.879  0.00  0.00    +0.000 A 
ATOM     12  C   UNL     1       0.617  11.406  19.355  0.00  0.00    +0.000 A 
ATOM     13  C   UNL     1      -0.526  11.662  18.588  0.00  0.00    +0.000 A 
ATOM     14  F   UNL     1      -1.256  10.653  18.085  0.00  0.00    +0.000 F 
ATOM     15  C   UNL     1      -0.953  12.961  18.336  0.00  0.00    +0.000 A 
ENDBRANCH   1  12
BRANCH   5  16
ATOM     16  N   UNL     1       3.503   7.379  17.423  0.00  0.00    +0.000 NA
ATOM     17  C   UNL     1       4.538   6.603  17.282  0.00  0.00    +0.000 C 
BRANCH  17  18
ATOM     18  C   UNL     1       4.798   5.376  18.018  0.00  0.00    +0.000 A 
ATOM     19  C   UNL     1       5.828   5.155  18.913  0.00  0.00    +0.000 A 
ATOM     20  N   UNL     1       5.682   3.910  19.452  0.00  0.00    +0.000 N 
ATOM     21  C   UNL     1       4.556   3.307  18.942  0.00  0.00    +0.000 A 
ATOM     22  C   UNL     1       4.008   2.057  19.232  0.00  0.00    +0.000 A 
ATOM     23  C   UNL     1       2.844   1.687  18.554  0.00  0.00    +0.000 A 
ATOM     24  C   UNL     1       2.264   2.534  17.612  0.00  0.00    +0.000 A 
ATOM     25  C   UNL     1       2.824   3.788  17.340  0.00  0.00    +0.000 A 
ATOM     26  C   UNL     1       3.993   4.193  18.025  0.00  0.00    +0.000 A 
ATOM     27  H   UNL     1       6.290   3.498  20.146  0.00  0.00    +0.000 HD
ENDBRANCH  17  18
ENDBRANCH   5  16
TORSDOF 3
ENDMDL
MODEL 5
REMARK VINA RESULT:      -7.9      4.917      8.744
REMARK  Name = 
REMARK  3 active torsions:
REMARK  status: ('A' for Active; 'I' for Inactive)
REMARK    1  A    between atoms: C_5  and  C_6
REMARK    2  A    between atoms: N_10  and  N_11
REMARK    3  A    between atoms: C_12  and  C_13
REMARK                            x       y       z     vdW  Elec       q    Type
REMARK                         _______ _______ _______ _____ _____    ______ ____
ROOT
ATOM      1  C   UNL     1       6.375   5.317  16.017  0.00  0.00    +0.000 A 
ATOM      2  C   UNL     1       7.042   4.836  17.127  0.00  0.00    +0.000 A 
ATOM      3  S   UNL     1       6.501   5.652  18.531  0.00  0.00    +0.000 S 
ATOM      4  C   UNL     1       5.370   6.537  17.575  0.00  0.00    +0.000 A 
ATOM      5  N   UNL     1       4.545   7.426  18.172  0.00  0.00    +0.000 N 
ATOM      6  N   UNL     1       5.434   6.292  16.284  0.00  0.00    +0.000 NA
ATOM      7  H   UNL     1       4.719   7.633  19.152  0.00  0.00    +0.000 HD
ENDROOT
BRANCH   1  12
ATOM      8  F   UNL     1       7.316   3.716  10.750  0.00  0.00    +0.000 F 
ATOM      9  C   UNL     1       7.091   4.091  12.015  0.00  0.00    +0.000 A 
ATOM     10  C   UNL     1       7.939   5.015  12.616  0.00  0.00    +0.000 A 
ATOM     11  C   UNL     1       7.698   5.413  13.935  0.00  0.00    +0.000 A 
ATOM     12  C   UNL     1       6.616   4.877  14.653  0.00  0.00    +0.000 A 
ATOM     13  C   UNL     1       5.783   3.949  14.015  0.00  0.00    +0.000 A 
ATOM     14  F   UNL     1       4.722   3.426  14.652  0.00  0.00    +0.000 F 
ATOM     15  C   UNL     1       6.012   3.554  12.702  0.00  0.00    +0.000 A 
ENDBRANCH   1  12
BRANCH   5  16
ATOM     16  N   UNL     1       3.344   7.805  17.653  0.00  0.00    +0.000 NA
ATOM     17  C   UNL     1       2.295   7.094  17.950  0.00  0.00    +0.000 C 
BRANCH  17  18
ATOM     18  C   UNL     1       2.232   6.027  18.935  0.00  0.00    +0.000 A 
ATOM     19  C   UNL     1       1.998   6.169  20.290  0.00  0.00    +0.000 A 
ATOM     20  N   UNL     1       1.935   4.931  20.858  0.00  0.00    +0.000 N 
ATOM     21  C   UNL     1       2.103   3.963  19.894  0.00  0.00    +0.000 A 
ATOM     22  C   UNL     1       2.080   2.574  20.016  0.00  0.00    +0.000 A 
ATOM     23  C   UNL     1       2.288   1.819  18.859  0.00  0.00    +0.000 A 
ATOM     24  C   UNL     1       2.525   2.438  17.633  0.00  0.00    +0.000 A 
ATOM     25  C   UNL     1       2.537   3.834  17.529  0.00  0.00    +0.000 A 
ATOM     26  C   UNL     1       2.312   4.620  18.682  0.00  0.00    +0.000 A 
ATOM     27  H   UNL     1       1.761   4.743  21.835  0.00  0.00    +0.000 HD
ENDBRANCH  17  18
ENDBRANCH   5  16
TORSDOF 3
ENDMDL
MODEL 6
REMARK VINA RESULT:      -7.9      5.216      8.817
REMARK  Name = 
REMARK  3 active torsions:
REMARK  status: ('A' for Active; 'I' for Inactive)
REMARK    1  A    between atoms: C_5  and  C_6
REMARK    2  A    between atoms: N_10  and  N_11
REMARK    3  A    between atoms: C_12  and  C_13
REMARK                            x       y       z     vdW  Elec       q    Type
REMARK                         _______ _______ _______ _____ _____    ______ ____
ROOT
ATOM      1  C   UNL     1       6.196   5.210  15.813  0.00  0.00    +0.000 A 
ATOM      2  C   UNL     1       6.967   4.838  16.896  0.00  0.00    +0.000 A 
ATOM      3  S   UNL     1       6.555   5.788  18.259  0.00  0.00    +0.000 S 
ATOM      4  C   UNL     1       5.334   6.578  17.332  0.00  0.00    +0.000 A 
ATOM      5  N   UNL     1       4.562   7.524  17.914  0.00  0.00    +0.000 N 
ATOM      6  N   UNL     1       5.278   6.209  16.071  0.00  0.00    +0.000 NA
ATOM      7  H   UNL     1       4.826   7.824  18.849  0.00  0.00    +0.000 HD
ENDROOT
BRANCH   1  12
ATOM      8  F   UNL     1       6.614   2.930  10.731  0.00  0.00    +0.000 F 
ATOM      9  C   UNL     1       6.514   3.485  11.945  0.00  0.00    +0.000 A 
ATOM     10  C   UNL     1       5.418   3.185  12.747  0.00  0.00    +0.000 A 
ATOM     11  C   UNL     1       5.319   3.757  14.019  0.00  0.00    +0.000 A 
ATOM     12  C   UNL     1       6.311   4.639  14.481  0.00  0.00    +0.000 A 
ATOM     13  C   UNL     1       7.401   4.917  13.647  0.00  0.00    +0.000 A 
ATOM     14  F   UNL     1       8.387   5.734  14.053  0.00  0.00    +0.000 F 
ATOM     15  C   UNL     1       7.510   4.345  12.385  0.00  0.00    +0.000 A 
ENDBRANCH   1  12
BRANCH   5  16
ATOM     16  N   UNL     1       3.315   7.853  17.476  0.00  0.00    +0.000 NA
ATOM     17  C   UNL     1       2.311   7.134  17.884  0.00  0.00    +0.000 C 
BRANCH  17  18
ATOM     18  C   UNL     1       2.351   6.111  18.915  0.00  0.00    +0.000 A 
ATOM     19  C   UNL     1       2.233   6.309  20.278  0.00  0.00    +0.000 A 
ATOM     20  N   UNL     1       2.240   5.095  20.902  0.00  0.00    +0.000 N 
ATOM     21  C   UNL     1       2.340   4.089  19.969  0.00  0.00    +0.000 A 
ATOM     22  C   UNL     1       2.351   2.706  20.151  0.00  0.00    +0.000 A 
ATOM     23  C   UNL     1       2.471   1.904  19.014  0.00  0.00    +0.000 A 
ATOM     24  C   UNL     1       2.591   2.472  17.746  0.00  0.00    +0.000 A 
ATOM     25  C   UNL     1       2.570   3.862  17.583  0.00  0.00    +0.000 A 
ATOM     26  C   UNL     1       2.433   4.695  18.717  0.00  0.00    +0.000 A 
ATOM     27  H   UNL     1       2.153   4.949  21.898  0.00  0.00    +0.000 HD
ENDBRANCH  17  18
ENDBRANCH   5  16
TORSDOF 3
ENDMDL
MODEL 7
REMARK VINA RESULT:      -7.8      2.843      3.946
REMARK  Name = 
REMARK  3 active torsions:
REMARK  status: ('A' for Active; 'I' for Inactive)
REMARK    1  A    between atoms: C_5  and  C_6
REMARK    2  A    between atoms: N_10  and  N_11
REMARK    3  A    between atoms: C_12  and  C_13
REMARK                            x       y       z     vdW  Elec       q    Type
REMARK                         _______ _______ _______ _____ _____    ______ ____
ROOT
ATOM      1  C   UNL     1      -0.234   9.663  19.202  0.00  0.00    +0.000 A 
ATOM      2  C   UNL     1      -0.018   9.703  20.565  0.00  0.00    +0.000 A 
ATOM      3  S   UNL     1       1.382   8.802  20.961  0.00  0.00    +0.000 S 
ATOM      4  C   UNL     1       1.641   8.479  19.286  0.00  0.00    +0.000 A 
ATOM      5  N   UNL     1       2.715   7.752  18.906  0.00  0.00    +0.000 N 
ATOM      6  N   UNL     1       0.711   8.954  18.486  0.00  0.00    +0.000 NA
ATOM      7  H   UNL     1       3.259   7.310  19.643  0.00  0.00    +0.000 HD
ENDROOT
BRANCH   1  12
ATOM      8  F   UNL     1      -4.504  12.065  16.520  0.00  0.00    +0.000 F 
ATOM      9  C   UNL     1      -3.486  11.487  17.170  0.00  0.00    +0.000 A 
ATOM     10  C   UNL     1      -2.791  10.445  16.565  0.00  0.00    +0.000 A 
ATOM     11  C   UNL     1      -1.722   9.848  17.241  0.00  0.00    +0.000 A 
ATOM     12  C   UNL     1      -1.358  10.287  18.525  0.00  0.00    +0.000 A 
ATOM     13  C   UNL     1      -2.080  11.340  19.102  0.00  0.00    +0.000 A 
ATOM     14  F   UNL     1      -1.756  11.811  20.317  0.00  0.00    +0.000 F 
ATOM     15  C   UNL     1      -3.139  11.943  18.433  0.00  0.00    +0.000 A 
ENDBRANCH   1  12
BRANCH   5  16
ATOM     16  N   UNL     1       3.282   7.835  17.670  0.00  0.00    +0.000 NA
ATOM     17  C   UNL     1       4.100   6.891  17.304  0.00  0.00    +0.000 C 
BRANCH  17  18
ATOM     18  C   UNL     1       4.340   5.643  18.010  0.00  0.00    +0.000 A 
ATOM     19  C   UNL     1       5.497   5.281  18.673  0.00  0.00    +0.000 A 
ATOM     20  N   UNL     1       5.300   4.072  19.273  0.00  0.00    +0.000 N 
ATOM     21  C   UNL     1       4.018   3.633  19.035  0.00  0.00    +0.000 A 
ATOM     22  C   UNL     1       3.378   2.475  19.478  0.00  0.00    +0.000 A 
ATOM     23  C   UNL     1       2.056   2.272  19.076  0.00  0.00    +0.000 A 
ATOM     24  C   UNL     1       1.409   3.190  18.251  0.00  0.00    +0.000 A 
ATOM     25  C   UNL     1       2.065   4.350  17.823  0.00  0.00    +0.000 A 
ATOM     26  C   UNL     1       3.399   4.587  18.229  0.00  0.00    +0.000 A 
ATOM     27  H   UNL     1       5.980   3.580  19.836  0.00  0.00    +0.000 HD
ENDBRANCH  17  18
ENDBRANCH   5  16
TORSDOF 3
ENDMDL
MODEL 8
REMARK VINA RESULT:      -7.8      1.564      2.309
REMARK  Name = 
REMARK  3 active torsions:
REMARK  status: ('A' for Active; 'I' for Inactive)
REMARK    1  A    between atoms: C_5  and  C_6
REMARK    2  A    between atoms: N_10  and  N_11
REMARK    3  A    between atoms: C_12  and  C_13
REMARK                            x       y       z     vdW  Elec       q    Type
REMARK                         _______ _______ _______ _____ _____    ______ ____
ROOT
ATOM      1  C   UNL     1       0.236  10.106  20.077  0.00  0.00    +0.000 A 
ATOM      2  C   UNL     1       0.602  10.379  18.774  0.00  0.00    +0.000 A 
ATOM      3  S   UNL     1       1.704   9.194  18.216  0.00  0.00    +0.000 S 
ATOM      4  C   UNL     1       1.564   8.364  19.721  0.00  0.00    +0.000 A 
ATOM      5  N   UNL     1       2.251   7.216  19.915  0.00  0.00    +0.000 N 
ATOM      6  N   UNL     1       0.800   8.962  20.609  0.00  0.00    +0.000 NA
ATOM      7  H   UNL     1       2.931   6.958  19.204  0.00  0.00    +0.000 HD
ENDROOT
BRANCH   1  12
ATOM      8  F   UNL     1      -3.165  13.351  23.094  0.00  0.00    +0.000 F 
ATOM      9  C   UNL     1      -2.353  12.566  22.375  0.00  0.00    +0.000 A 
ATOM     10  C   UNL     1      -2.388  12.634  20.986  0.00  0.00    +0.000 A 
ATOM     11  C   UNL     1      -1.534  11.820  20.236  0.00  0.00    +0.000 A 
ATOM     12  C   UNL     1      -0.654  10.931  20.876  0.00  0.00    +0.000 A 
ATOM     13  C   UNL     1      -0.645  10.890  22.276  0.00  0.00    +0.000 A 
ATOM     14  F   UNL     1       0.194  10.074  22.935  0.00  0.00    +0.000 F 
ATOM     15  C   UNL     1      -1.487  11.701  23.029  0.00  0.00    +0.000 A 
ENDBRANCH   1  12
BRANCH   5  16
ATOM     16  N   UNL     1       1.877   6.254  20.805  0.00  0.00    +0.000 NA
ATOM     17  C   UNL     1       1.865   5.017  20.402  0.00  0.00    +0.000 C 
BRANCH  17  18
ATOM     18  C   UNL     1       2.389   4.519  19.141  0.00  0.00    +0.000 A 
ATOM     19  C   UNL     1       1.659   3.967  18.106  0.00  0.00    +0.000 A 
ATOM     20  N   UNL     1       2.501   3.699  17.067  0.00  0.00    +0.000 N 
ATOM     21  C   UNL     1       3.782   4.084  17.390  0.00  0.00    +0.000 A 
ATOM     22  C   UNL     1       4.947   4.029  16.624  0.00  0.00    +0.000 A 
ATOM     23  C   UNL     1       6.129   4.489  17.209  0.00  0.00    +0.000 A 
ATOM     24  C   UNL     1       6.140   4.973  18.517  0.00  0.00    +0.000 A 
ATOM     25  C   UNL     1       4.959   5.029  19.267  0.00  0.00    +0.000 A 
ATOM     26  C   UNL     1       3.746   4.584  18.691  0.00  0.00    +0.000 A 
ATOM     27  H   UNL     1       2.228   3.303  16.178  0.00  0.00    +0.000 HD
ENDBRANCH  17  18
ENDBRANCH   5  16
TORSDOF 3
ENDMDL
MODEL 9
REMARK VINA RESULT:      -7.8      3.799      5.228
REMARK  Name = 
REMARK  3 active torsions:
REMARK  status: ('A' for Active; 'I' for Inactive)
REMARK    1  A    between atoms: C_5  and  C_6
REMARK    2  A    between atoms: N_10  and  N_11
REMARK    3  A    between atoms: C_12  and  C_13
REMARK                            x       y       z     vdW  Elec       q    Type
REMARK                         _______ _______ _______ _____ _____    ______ ____
ROOT
ATOM      1  C   UNL     1       1.090  12.357  19.466  0.00  0.00    +0.000 A 
ATOM      2  C   UNL     1       0.049  11.940  20.272  0.00  0.00    +0.000 A 
ATOM      3  S   UNL     1      -0.396  10.338  19.867  0.00  0.00    +0.000 S 
ATOM      4  C   UNL     1       0.870  10.287  18.698  0.00  0.00    +0.000 A 
ATOM      5  N   UNL     1       1.069   9.159  17.980  0.00  0.00    +0.000 N 
ATOM      6  N   UNL     1       1.541  11.411  18.566  0.00  0.00    +0.000 NA
ATOM      7  H   UNL     1       0.371   8.424  18.069  0.00  0.00    +0.000 HD
ENDROOT
BRANCH   1  12
ATOM      8  F   UNL     1       3.416  17.429  19.721  0.00  0.00    +0.000 F 
ATOM      9  C   UNL     1       2.858  16.214  19.651  0.00  0.00    +0.000 A 
ATOM     10  C   UNL     1       3.508  15.128  20.228  0.00  0.00    +0.000 A 
ATOM     11  C   UNL     1       2.920  13.861  20.162  0.00  0.00    +0.000 A 
ATOM     12  C   UNL     1       1.690  13.681  19.508  0.00  0.00    +0.000 A 
ATOM     13  C   UNL     1       1.064  14.797  18.940  0.00  0.00    +0.000 A 
ATOM     14  F   UNL     1      -0.125  14.680  18.325  0.00  0.00    +0.000 F 
ATOM     15  C   UNL     1       1.638  16.061  19.008  0.00  0.00    +0.000 A 
ENDBRANCH   1  12
BRANCH   5  16
ATOM     16  N   UNL     1       2.263   8.826  17.415  0.00  0.00    +0.000 NA
ATOM     17  C   UNL     1       2.945   7.855  17.950  0.00  0.00    +0.000 C 
BRANCH  17  18
ATOM     18  C   UNL     1       2.482   6.952  18.991  0.00  0.00    +0.000 A 
ATOM     19  C   UNL     1       2.202   7.283  20.304  0.00  0.00    +0.000 A 
ATOM     20  N   UNL     1       1.718   6.179  20.942  0.00  0.00    +0.000 N 
ATOM     21  C   UNL     1       1.652   5.121  20.065  0.00  0.00    +0.000 A 
ATOM     22  C   UNL     1       1.193   3.821  20.274  0.00  0.00    +0.000 A 
ATOM     23  C   UNL     1       1.245   2.934  19.195  0.00  0.00    +0.000 A 
ATOM     24  C   UNL     1       1.752   3.337  17.961  0.00  0.00    +0.000 A 
ATOM     25  C   UNL     1       2.201   4.649  17.768  0.00  0.00    +0.000 A 
ATOM     26  C   UNL     1       2.144   5.570  18.840  0.00  0.00    +0.000 A 
ATOM     27  H   UNL     1       1.421   6.144  21.907  0.00  0.00    +0.000 HD
ENDBRANCH  17  18
ENDBRANCH   5  16
TORSDOF 3
ENDMDL
