MODEL 1
REMARK VINA RESULT:      -8.7      0.000      0.000
REMARK  Name = 
REMARK  9 active torsions:
REMARK  status: ('A' for Active; 'I' for Inactive)
REMARK    1  A    between atoms: C_1  and  O_2
REMARK    2  A    between atoms: O_2  and  C_3
REMARK    3  A    between atoms: C_6  and  O_7
REMARK    4  A    between atoms: O_7  and  C_8
REMARK    5  A    between atoms: C_9  and  C_10
REMARK    6  A    between atoms: C_13  and  C_14
REMARK    7  A    between atoms: N_16  and  C_17
REMARK    8  A    between atoms: CA_21  and  C_22
REMARK    9  A    between atoms: C_22  and  OXT_24
REMARK                            x       y       z     vdW  Elec       q    Type
REMARK                         _______ _______ _______ _____ _____    ______ ____
ROOT
ATOM      1  C   UNL     1       2.641   7.152  18.425  0.00  0.00    +0.000 A 
ATOM      2  C   UNL     1       2.301   6.999  19.785  0.00  0.00    +0.000 A 
ATOM      3  C   UNL     1       1.612   7.988  20.495  0.00  0.00    +0.000 A 
ATOM      4  C   UNL     1       1.215   9.167  19.862  0.00  0.00    +0.000 A 
ATOM      5  C   UNL     1       1.545   9.345  18.516  0.00  0.00    +0.000 A 
ATOM      6  C   UNL     1       2.257   8.357  17.817  0.00  0.00    +0.000 A 
ENDROOT
BRANCH   1  11
ATOM      7  C   UNL     1       5.375   5.528  16.336  0.00  0.00    +0.000 A 
ATOM      8  C   UNL     1       4.996   4.194  16.329  0.00  0.00    +0.000 A 
ATOM      9  C   UNL     1       3.831   3.792  16.979  0.00  0.00    +0.000 A 
ATOM     10  C   UNL     1       3.021   4.722  17.649  0.00  0.00    +0.000 A 
ATOM     11  C   UNL     1       3.397   6.087  17.699  0.00  0.00    +0.000 A 
ATOM     12  C   UNL     1       4.578   6.456  17.008  0.00  0.00    +0.000 A 
BRANCH   7  14
ATOM     13  C   UNL     1       7.070   4.754  14.863  0.00  0.00    +0.000 C 
ATOM     14  O   UNL     1       6.532   5.802  15.660  0.00  0.00    +0.000 OA
ENDBRANCH   7  14
BRANCH  10  15
ATOM     15  O   UNL     1       1.894   4.322  18.330  0.00  0.00    +0.000 OA
ATOM     16  C   UNL     1       1.858   2.948  18.712  0.00  0.00    +0.000 C 
ENDBRANCH  10  15
ENDBRANCH   1  11
BRANCH   4  17
ATOM     17  C   UNL     1       0.476  10.160  20.612  0.00  0.00    +0.000 A 
ATOM     18  C   UNL     1      -0.839  10.524  20.436  0.00  0.00    +0.000 A 
ATOM     19  N   UNL     1      -1.037  11.546  21.333  0.00  0.00    +0.000 N 
ATOM     20  N   UNL     1       0.090  11.749  22.051  0.00  0.00    +0.000 NA
ATOM     21  N   UNL     1       1.023  10.922  21.607  0.00  0.00    +0.000 NA
BRANCH  19  22
ATOM     22  C   UNL     1      -2.188  12.355  21.522  0.00  0.00    +0.000 A 
ATOM     23  C   UNL     1      -2.600  13.267  20.547  0.00  0.00    +0.000 A 
ATOM     24  C   UNL     1      -3.709  14.057  20.814  0.00  0.00    +0.000 A 
ATOM     25  N   UNL     1      -4.418  13.999  21.964  0.00  0.00    +0.000 NA
ATOM     26  CA  UNL     1      -3.988  13.091  22.889  0.00  0.00    +0.000 A 
ATOM     27  C   UNL     1      -2.901  12.252  22.717  0.00  0.00    +0.000 A 
BRANCH  26  28
ATOM     28  C   UNL     1      -4.765  13.056  24.163  0.00  0.00    +0.000 C 
ATOM     29  O   UNL     1      -5.178  12.050  24.706  0.00  0.00    +0.000 OA
BRANCH  28  30
ATOM     30  OXT UNL     1      -4.941  14.315  24.641  0.00  0.00    +0.000 OA
ATOM     31  HXT UNL     1      -4.932  14.282  25.628  0.00  0.00    +0.000 HD
ENDBRANCH  28  30
ENDBRANCH  26  28
ENDBRANCH  19  22
ENDBRANCH   4  17
TORSDOF 7
ENDMDL
MODEL 2
REMARK VINA RESULT:      -8.7      1.519      2.828
REMARK  Name = 
REMARK  9 active torsions:
REMARK  status: ('A' for Active; 'I' for Inactive)
REMARK    1  A    between atoms: C_1  and  O_2
REMARK    2  A    between atoms: O_2  and  C_3
REMARK    3  A    between atoms: C_6  and  O_7
REMARK    4  A    between atoms: O_7  and  C_8
REMARK    5  A    between atoms: C_9  and  C_10
REMARK    6  A    between atoms: C_13  and  C_14
REMARK    7  A    between atoms: N_16  and  C_17
REMARK    8  A    between atoms: CA_21  and  C_22
REMARK    9  A    between atoms: C_22  and  OXT_24
REMARK                            x       y       z     vdW  Elec       q    Type
REMARK                         _______ _______ _______ _____ _____    ______ ____
ROOT
ATOM      1  C   UNL     1       2.301   7.305  18.544  0.00  0.00    +0.000 A 
ATOM      2  C   UNL     1       1.977   7.453  19.908  0.00  0.00    +0.000 A 
ATOM      3  C   UNL     1       1.398   8.622  20.412  0.00  0.00    +0.000 A 
ATOM      4  C   UNL     1       1.101   9.689  19.562  0.00  0.00    +0.000 A 
ATOM      5  C   UNL     1       1.418   9.569  18.206  0.00  0.00    +0.000 A 
ATOM      6  C   UNL     1       2.019   8.401  17.712  0.00  0.00    +0.000 A 
ENDROOT
BRANCH   1  11
ATOM      7  C   UNL     1       2.679   3.640  17.591  0.00  0.00    +0.000 A 
ATOM      8  C   UNL     1       3.959   3.599  17.058  0.00  0.00    +0.000 A 
ATOM      9  C   UNL     1       4.740   4.752  17.018  0.00  0.00    +0.000 A 
ATOM     10  C   UNL     1       4.253   5.972  17.514  0.00  0.00    +0.000 A 
ATOM     11  C   UNL     1       2.939   6.052  18.038  0.00  0.00    +0.000 A 
ATOM     12  C   UNL     1       2.186   4.852  18.077  0.00  0.00    +0.000 A 
BRANCH   7  14
ATOM     13  C   UNL     1       1.151   2.187  18.683  0.00  0.00    +0.000 C 
ATOM     14  O   UNL     1       2.011   2.447  17.581  0.00  0.00    +0.000 OA
ENDBRANCH   7  14
BRANCH  10  15
ATOM     15  O   UNL     1       5.005   7.121  17.436  0.00  0.00    +0.000 OA
ATOM     16  C   UNL     1       6.413   6.931  17.300  0.00  0.00    +0.000 C 
ENDBRANCH  10  15
ENDBRANCH   1  11
BRANCH   4  17
ATOM     17  C   UNL     1       0.474  10.874  20.105  0.00  0.00    +0.000 A 
ATOM     18  C   UNL     1      -0.009  11.049  21.381  0.00  0.00    +0.000 A 
ATOM     19  N   UNL     1      -0.568  12.303  21.371  0.00  0.00    +0.000 N 
ATOM     20  N   UNL     1      -0.382  12.877  20.161  0.00  0.00    +0.000 NA
ATOM     21  N   UNL     1       0.236  12.007  19.377  0.00  0.00    +0.000 NA
BRANCH  19  22
ATOM     22  C   UNL     1      -1.289  12.966  22.398  0.00  0.00    +0.000 A 
ATOM     23  C   UNL     1      -0.753  14.075  23.059  0.00  0.00    +0.000 A 
ATOM     24  C   UNL     1      -1.492  14.650  24.082  0.00  0.00    +0.000 A 
ATOM     25  N   UNL     1      -2.703  14.201  24.483  0.00  0.00    +0.000 NA
ATOM     26  CA  UNL     1      -3.196  13.120  23.810  0.00  0.00    +0.000 A 
ATOM     27  C   UNL     1      -2.543  12.480  22.771  0.00  0.00    +0.000 A 
BRANCH  26  28
ATOM     28  C   UNL     1      -4.522  12.620  24.279  0.00  0.00    +0.000 C 
ATOM     29  O   UNL     1      -5.470  12.365  23.563  0.00  0.00    +0.000 OA
BRANCH  28  30
ATOM     30  OXT UNL     1      -4.519  12.480  25.630  0.00  0.00    +0.000 OA
ATOM     31  HXT UNL     1      -5.314  12.937  25.996  0.00  0.00    +0.000 HD
ENDBRANCH  28  30
ENDBRANCH  26  28
ENDBRANCH  19  22
ENDBRANCH   4  17
TORSDOF 7
ENDMDL
MODEL 3
REMARK VINA RESULT:      -8.6      1.194      1.271
REMARK  Name = 
REMARK  9 active torsions:
REMARK  status: ('A' for Active; 'I' for Inactive)
REMARK    1  A    between atoms: C_1  and  O_2
REMARK    2  A    between atoms: O_2  and  C_3
REMARK    3  A    between atoms: C_6  and  O_7
REMARK    4  A    between atoms: O_7  and  C_8
REMARK    5  A    between atoms: C_9  and  C_10
REMARK    6  A    between atoms: C_13  and  C_14
REMARK    7  A    between atoms: N_16  and  C_17
REMARK    8  A    between atoms: CA_21  and  C_22
REMARK    9  A    between atoms: C_22  and  OXT_24
REMARK                            x       y       z     vdW  Elec       q    Type
REMARK                         _______ _______ _______ _____ _____    ______ ____
ROOT
ATOM      1  C   UNL     1       2.536   6.718  18.978  0.00  0.00    +0.000 A 
ATOM      2  C   UNL     1       2.180   6.367  20.296  0.00  0.00    +0.000 A 
ATOM      3  C   UNL     1       1.519   7.257  21.149  0.00  0.00    +0.000 A 
ATOM      4  C   UNL     1       1.169   8.534  20.707  0.00  0.00    +0.000 A 
ATOM      5  C   UNL     1       1.517   8.908  19.407  0.00  0.00    +0.000 A 
ATOM      6  C   UNL     1       2.200   8.016  18.564  0.00  0.00    +0.000 A 
ENDROOT
BRANCH   1  11
ATOM      7  C   UNL     1       5.366   5.205  16.931  0.00  0.00    +0.000 A 
ATOM      8  C   UNL     1       4.813   4.011  16.491  0.00  0.00    +0.000 A 
ATOM      9  C   UNL     1       3.502   3.680  16.826  0.00  0.00    +0.000 A 
ATOM     10  C   UNL     1       2.716   4.541  17.608  0.00  0.00    +0.000 A 
ATOM     11  C   UNL     1       3.262   5.754  18.097  0.00  0.00    +0.000 A 
ATOM     12  C   UNL     1       4.592   6.061  17.716  0.00  0.00    +0.000 A 
BRANCH   7  14
ATOM     13  C   UNL     1       7.344   6.498  17.164  0.00  0.00    +0.000 C 
ATOM     14  O   UNL     1       6.656   5.424  16.535  0.00  0.00    +0.000 OA
ENDBRANCH   7  14
BRANCH  10  15
ATOM     15  O   UNL     1       1.436   4.196  17.977  0.00  0.00    +0.000 OA
ATOM     16  C   UNL     1       1.282   2.887  18.524  0.00  0.00    +0.000 C 
ENDBRANCH  10  15
ENDBRANCH   1  11
BRANCH   4  17
ATOM     17  C   UNL     1       0.459   9.424  21.600  0.00  0.00    +0.000 A 
ATOM     18  C   UNL     1      -0.396  10.443  21.251  0.00  0.00    +0.000 A 
ATOM     19  N   UNL     1      -0.745  11.027  22.444  0.00  0.00    +0.000 N 
ATOM     20  N   UNL     1      -0.169  10.355  23.467  0.00  0.00    +0.000 NA
ATOM     21  N   UNL     1       0.581   9.388  22.962  0.00  0.00    +0.000 NA
BRANCH  19  22
ATOM     22  C   UNL     1      -1.538  12.181  22.674  0.00  0.00    +0.000 A 
ATOM     23  C   UNL     1      -1.069  13.457  22.354  0.00  0.00    +0.000 A 
ATOM     24  C   UNL     1      -1.878  14.546  22.643  0.00  0.00    +0.000 A 
ATOM     25  N   UNL     1      -3.097  14.448  23.220  0.00  0.00    +0.000 NA
ATOM     26  CA  UNL     1      -3.524  13.185  23.513  0.00  0.00    +0.000 A 
ATOM     27  C   UNL     1      -2.798  12.034  23.257  0.00  0.00    +0.000 A 
BRANCH  26  28
ATOM     28  C   UNL     1      -4.860  13.094  24.172  0.00  0.00    +0.000 C 
ATOM     29  O   UNL     1      -5.366  12.073  24.596  0.00  0.00    +0.000 OA
BRANCH  28  30
ATOM     30  OXT UNL     1      -5.434  14.323  24.240  0.00  0.00    +0.000 OA
ATOM     31  HXT UNL     1      -6.145  14.300  24.924  0.00  0.00    +0.000 HD
ENDBRANCH  28  30
ENDBRANCH  26  28
ENDBRANCH  19  22
ENDBRANCH   4  17
TORSDOF 7
ENDMDL
MODEL 4
REMARK VINA RESULT:      -8.5      0.530      1.021
REMARK  Name = 
REMARK  9 active torsions:
REMARK  status: ('A' for Active; 'I' for Inactive)
REMARK    1  A    between atoms: C_1  and  O_2
REMARK    2  A    between atoms: O_2  and  C_3
REMARK    3  A    between atoms: C_6  and  O_7
REMARK    4  A    between atoms: O_7  and  C_8
REMARK    5  A    between atoms: C_9  and  C_10
REMARK    6  A    between atoms: C_13  and  C_14
REMARK    7  A    between atoms: N_16  and  C_17
REMARK    8  A    between atoms: CA_21  and  C_22
REMARK    9  A    between atoms: C_22  and  OXT_24
REMARK                            x       y       z     vdW  Elec       q    Type
REMARK                         _______ _______ _______ _____ _____    ______ ____
ROOT
ATOM      1  C   UNL     1       2.614   6.911  18.693  0.00  0.00    +0.000 A 
ATOM      2  C   UNL     1       2.170   8.145  18.175  0.00  0.00    +0.000 A 
ATOM      3  C   UNL     1       1.443   9.057  18.947  0.00  0.00    +0.000 A 
ATOM      4  C   UNL     1       1.147   8.777  20.282  0.00  0.00    +0.000 A 
ATOM      5  C   UNL     1       1.571   7.558  20.817  0.00  0.00    +0.000 A 
ATOM      6  C   UNL     1       2.281   6.638  20.029  0.00  0.00    +0.000 A 
ENDROOT
BRANCH   1  11
ATOM      7  C   UNL     1       5.281   5.597  16.317  0.00  0.00    +0.000 A 
ATOM      8  C   UNL     1       4.960   4.250  16.222  0.00  0.00    +0.000 A 
ATOM      9  C   UNL     1       3.858   3.741  16.904  0.00  0.00    +0.000 A 
ATOM     10  C   UNL     1       3.051   4.573  17.696  0.00  0.00    +0.000 A 
ATOM     11  C   UNL     1       3.369   5.947  17.837  0.00  0.00    +0.000 A 
ATOM     12  C   UNL     1       4.488   6.427  17.110  0.00  0.00    +0.000 A 
BRANCH   7  14
ATOM     13  C   UNL     1       7.090   4.953  14.920  0.00  0.00    +0.000 C 
ATOM     14  O   UNL     1       6.380   5.980  15.600  0.00  0.00    +0.000 OA
ENDBRANCH   7  14
BRANCH  10  15
ATOM     15  O   UNL     1       1.988   4.065  18.406  0.00  0.00    +0.000 OA
ATOM     16  C   UNL     1       1.742   2.670  18.236  0.00  0.00    +0.000 C 
ENDBRANCH  10  15
ENDBRANCH   1  11
BRANCH   4  17
ATOM     17  C   UNL     1       0.421   9.752  21.066  0.00  0.00    +0.000 A 
ATOM     18  C   UNL     1      -0.664  10.497  20.667  0.00  0.00    +0.000 A 
ATOM     19  N   UNL     1      -0.932  11.317  21.737  0.00  0.00    +0.000 N 
ATOM     20  N   UNL     1      -0.082  11.039  22.751  0.00  0.00    +0.000 NA
ATOM     21  N   UNL     1       0.758  10.099  22.345  0.00  0.00    +0.000 NA
BRANCH  19  22
ATOM     22  C   UNL     1      -1.895  12.354  21.845  0.00  0.00    +0.000 A 
ATOM     23  C   UNL     1      -1.847  13.476  21.013  0.00  0.00    +0.000 A 
ATOM     24  C   UNL     1      -2.794  14.473  21.200  0.00  0.00    +0.000 A 
ATOM     25  N   UNL     1      -3.762  14.427  22.143  0.00  0.00    +0.000 NA
ATOM     26  CA  UNL     1      -3.779  13.313  22.933  0.00  0.00    +0.000 A 
ATOM     27  C   UNL     1      -2.887  12.261  22.822  0.00  0.00    +0.000 A 
BRANCH  26  28
ATOM     28  C   UNL     1      -4.837  13.289  23.986  0.00  0.00    +0.000 C 
ATOM     29  O   UNL     1      -5.291  12.286  24.502  0.00  0.00    +0.000 OA
BRANCH  28  30
ATOM     30  OXT UNL     1      -5.221  14.554  24.295  0.00  0.00    +0.000 OA
ATOM     31  HXT UNL     1      -5.150  14.674  25.273  0.00  0.00    +0.000 HD
ENDBRANCH  28  30
ENDBRANCH  26  28
ENDBRANCH  19  22
ENDBRANCH   4  17
TORSDOF 7
ENDMDL
MODEL 5
REMARK VINA RESULT:      -8.4      0.938      2.414
REMARK  Name = 
REMARK  9 active torsions:
REMARK  status: ('A' for Active; 'I' for Inactive)
REMARK    1  A    between atoms: C_1  and  O_2
REMARK    2  A    between atoms: O_2  and  C_3
REMARK    3  A    between atoms: C_6  and  O_7
REMARK    4  A    between atoms: O_7  and  C_8
REMARK    5  A    between atoms: C_9  and  C_10
REMARK    6  A    between atoms: C_13  and  C_14
REMARK    7  A    between atoms: N_16  and  C_17
REMARK    8  A    between atoms: CA_21  and  C_22
REMARK    9  A    between atoms: C_22  and  OXT_24
REMARK                            x       y       z     vdW  Elec       q    Type
REMARK                         _______ _______ _______ _____ _____    ______ ____
ROOT
ATOM      1  C   UNL     1       2.464   7.027  18.674  0.00  0.00    +0.000 A 
ATOM      2  C   UNL     1       2.137   7.034  20.046  0.00  0.00    +0.000 A 
ATOM      3  C   UNL     1       1.527   8.133  20.659  0.00  0.00    +0.000 A 
ATOM      4  C   UNL     1       1.198   9.267  19.914  0.00  0.00    +0.000 A 
ATOM      5  C   UNL     1       1.517   9.287  18.554  0.00  0.00    +0.000 A 
ATOM      6  C   UNL     1       2.150   8.188  17.951  0.00  0.00    +0.000 A 
ENDROOT
BRANCH   1  11
ATOM      7  C   UNL     1       3.045   3.424  17.594  0.00  0.00    +0.000 A 
ATOM      8  C   UNL     1       4.229   3.513  16.878  0.00  0.00    +0.000 A 
ATOM      9  C   UNL     1       4.881   4.737  16.749  0.00  0.00    +0.000 A 
ATOM     10  C   UNL     1       4.360   5.899  17.339  0.00  0.00    +0.000 A 
ATOM     11  C   UNL     1       3.136   5.846  18.052  0.00  0.00    +0.000 A 
ATOM     12  C   UNL     1       2.516   4.578  18.175  0.00  0.00    +0.000 A 
BRANCH   7  14
ATOM     13  C   UNL     1       1.445   1.979  18.589  0.00  0.00    +0.000 C 
ATOM     14  O   UNL     1       2.500   2.171  17.656  0.00  0.00    +0.000 OA
ENDBRANCH   7  14
BRANCH  10  15
ATOM     15  O   UNL     1       4.979   7.117  17.177  0.00  0.00    +0.000 OA
ATOM     16  C   UNL     1       6.402   7.106  17.277  0.00  0.00    +0.000 C 
ENDBRANCH  10  15
ENDBRANCH   1  11
BRANCH   4  17
ATOM     17  C   UNL     1       0.539  10.377  20.567  0.00  0.00    +0.000 A 
ATOM     18  C   UNL     1      -0.810  10.646  20.587  0.00  0.00    +0.000 A 
ATOM     19  N   UNL     1      -0.915  11.837  21.264  0.00  0.00    +0.000 N 
ATOM     20  N   UNL     1       0.309  12.237  21.678  0.00  0.00    +0.000 NA
ATOM     21  N   UNL     1       1.203  11.363  21.242  0.00  0.00    +0.000 NA
BRANCH  19  22
ATOM     22  C   UNL     1      -2.069  12.627  21.505  0.00  0.00    +0.000 A 
ATOM     23  C   UNL     1      -2.448  13.642  20.623  0.00  0.00    +0.000 A 
ATOM     24  C   UNL     1      -3.563  14.404  20.939  0.00  0.00    +0.000 A 
ATOM     25  N   UNL     1      -4.308  14.226  22.053  0.00  0.00    +0.000 NA
ATOM     26  CA  UNL     1      -3.910  13.221  22.888  0.00  0.00    +0.000 A 
ATOM     27  C   UNL     1      -2.820  12.399  22.659  0.00  0.00    +0.000 A 
BRANCH  26  28
ATOM     28  C   UNL     1      -4.726  13.052  24.126  0.00  0.00    +0.000 C 
ATOM     29  O   UNL     1      -4.960  11.992  24.674  0.00  0.00    +0.000 OA
BRANCH  28  30
ATOM     30  OXT UNL     1      -5.169  14.259  24.564  0.00  0.00    +0.000 OA
ATOM     31  HXT UNL     1      -4.416  14.734  24.991  0.00  0.00    +0.000 HD
ENDBRANCH  28  30
ENDBRANCH  26  28
ENDBRANCH  19  22
ENDBRANCH   4  17
TORSDOF 7
ENDMDL
MODEL 6
REMARK VINA RESULT:      -8.3      1.476      2.925
REMARK  Name = 
REMARK  9 active torsions:
REMARK  status: ('A' for Active; 'I' for Inactive)
REMARK    1  A    between atoms: C_1  and  O_2
REMARK    2  A    between atoms: O_2  and  C_3
REMARK    3  A    between atoms: C_6  and  O_7
REMARK    4  A    between atoms: O_7  and  C_8
REMARK    5  A    between atoms: C_9  and  C_10
REMARK    6  A    between atoms: C_13  and  C_14
REMARK    7  A    between atoms: N_16  and  C_17
REMARK    8  A    between atoms: CA_21  and  C_22
REMARK    9  A    between atoms: C_22  and  OXT_24
REMARK                            x       y       z     vdW  Elec       q    Type
REMARK                         _______ _______ _______ _____ _____    ______ ____
ROOT
ATOM      1  C   UNL     1       2.423   7.181  18.586  0.00  0.00    +0.000 A 
ATOM      2  C   UNL     1       2.066   8.262  17.754  0.00  0.00    +0.000 A 
ATOM      3  C   UNL     1       1.426   9.403  18.251  0.00  0.00    +0.000 A 
ATOM      4  C   UNL     1       1.133   9.515  19.611  0.00  0.00    +0.000 A 
ATOM      5  C   UNL     1       1.471   8.454  20.455  0.00  0.00    +0.000 A 
ATOM      6  C   UNL     1       2.094   7.304  19.945  0.00  0.00    +0.000 A 
ENDROOT
BRANCH   1  11
ATOM      7  C   UNL     1       2.935   3.541  17.604  0.00  0.00    +0.000 A 
ATOM      8  C   UNL     1       4.160   3.574  16.954  0.00  0.00    +0.000 A 
ATOM      9  C   UNL     1       4.861   4.773  16.841  0.00  0.00    +0.000 A 
ATOM     10  C   UNL     1       4.349   5.963  17.380  0.00  0.00    +0.000 A 
ATOM     11  C   UNL     1       3.087   5.967  18.024  0.00  0.00    +0.000 A 
ATOM     12  C   UNL     1       2.416   4.723  18.134  0.00  0.00    +0.000 A 
BRANCH   7  14
ATOM     13  C   UNL     1       1.243   2.166  18.546  0.00  0.00    +0.000 C 
ATOM     14  O   UNL     1       2.343   2.309  17.657  0.00  0.00    +0.000 OA
ENDBRANCH   7  14
BRANCH  10  15
ATOM     15  O   UNL     1       5.019   7.156  17.231  0.00  0.00    +0.000 OA
ATOM     16  C   UNL     1       6.442   7.079  17.301  0.00  0.00    +0.000 C 
ENDBRANCH  10  15
ENDBRANCH   1  11
BRANCH   4  17
ATOM     17  C   UNL     1       0.498  10.718  20.103  0.00  0.00    +0.000 A 
ATOM     18  C   UNL     1       0.045  10.957  21.379  0.00  0.00    +0.000 A 
ATOM     19  N   UNL     1      -0.537  12.199  21.313  0.00  0.00    +0.000 N 
ATOM     20  N   UNL     1      -0.393  12.706  20.068  0.00  0.00    +0.000 NA
ATOM     21  N   UNL     1       0.220  11.804  19.318  0.00  0.00    +0.000 NA
BRANCH  19  22
ATOM     22  C   UNL     1      -1.244  12.907  22.321  0.00  0.00    +0.000 A 
ATOM     23  C   UNL     1      -0.721  14.072  22.888  0.00  0.00    +0.000 A 
ATOM     24  C   UNL     1      -1.444  14.691  23.898  0.00  0.00    +0.000 A 
ATOM     25  N   UNL     1      -2.625  14.234  24.370  0.00  0.00    +0.000 NA
ATOM     26  CA  UNL     1      -3.106  13.097  23.786  0.00  0.00    +0.000 A 
ATOM     27  C   UNL     1      -2.468  12.409  22.768  0.00  0.00    +0.000 A 
BRANCH  26  28
ATOM     28  C   UNL     1      -4.399  12.590  24.335  0.00  0.00    +0.000 C 
ATOM     29  O   UNL     1      -4.605  12.308  25.499  0.00  0.00    +0.000 OA
BRANCH  28  30
ATOM     30  OXT UNL     1      -5.324  12.496  23.345  0.00  0.00    +0.000 OA
ATOM     31  HXT UNL     1      -6.126  13.004  23.615  0.00  0.00    +0.000 HD
ENDBRANCH  28  30
ENDBRANCH  26  28
ENDBRANCH  19  22
ENDBRANCH   4  17
TORSDOF 7
ENDMDL
MODEL 7
REMARK VINA RESULT:      -8.3      1.406      1.874
REMARK  Name = 
REMARK  9 active torsions:
REMARK  status: ('A' for Active; 'I' for Inactive)
REMARK    1  A    between atoms: C_1  and  O_2
REMARK    2  A    between atoms: O_2  and  C_3
REMARK    3  A    between atoms: C_6  and  O_7
REMARK    4  A    between atoms: O_7  and  C_8
REMARK    5  A    between atoms: C_9  and  C_10
REMARK    6  A    between atoms: C_13  and  C_14
REMARK    7  A    between atoms: N_16  and  C_17
REMARK    8  A    between atoms: CA_21  and  C_22
REMARK    9  A    between atoms: C_22  and  OXT_24
REMARK                            x       y       z     vdW  Elec       q    Type
REMARK                         _______ _______ _______ _____ _____    ______ ____
ROOT
ATOM      1  C   UNL     1       2.691   7.105  18.596  0.00  0.00    +0.000 A 
ATOM      2  C   UNL     1       2.313   8.168  17.751  0.00  0.00    +0.000 A 
ATOM      3  C   UNL     1       1.486   9.208  18.190  0.00  0.00    +0.000 A 
ATOM      4  C   UNL     1       1.018   9.234  19.504  0.00  0.00    +0.000 A 
ATOM      5  C   UNL     1       1.374   8.188  20.360  0.00  0.00    +0.000 A 
ATOM      6  C   UNL     1       2.186   7.137  19.905  0.00  0.00    +0.000 A 
ENDROOT
BRANCH   1  11
ATOM      7  C   UNL     1       5.855   5.192  17.696  0.00  0.00    +0.000 A 
ATOM      8  C   UNL     1       5.355   3.980  17.245  0.00  0.00    +0.000 A 
ATOM      9  C   UNL     1       3.980   3.762  17.197  0.00  0.00    +0.000 A 
ATOM     10  C   UNL     1       3.076   4.758  17.599  0.00  0.00    +0.000 A 
ATOM     11  C   UNL     1       3.557   5.996  18.093  0.00  0.00    +0.000 A 
ATOM     12  C   UNL     1       4.962   6.183  18.106  0.00  0.00    +0.000 A 
BRANCH   7  14
ATOM     13  C   UNL     1       7.794   6.230  18.593  0.00  0.00    +0.000 C 
ATOM     14  O   UNL     1       7.219   5.291  17.693  0.00  0.00    +0.000 OA
ENDBRANCH   7  14
BRANCH  10  15
ATOM     15  O   UNL     1       1.720   4.530  17.595  0.00  0.00    +0.000 OA
ATOM     16  C   UNL     1       1.266   3.480  18.448  0.00  0.00    +0.000 C 
ENDBRANCH  10  15
ENDBRANCH   1  11
BRANCH   4  17
ATOM     17  C   UNL     1       0.190  10.338  19.940  0.00  0.00    +0.000 A 
ATOM     18  C   UNL     1       0.111  10.867  21.208  0.00  0.00    +0.000 A 
ATOM     19  N   UNL     1      -0.861  11.834  21.118  0.00  0.00    +0.000 N 
ATOM     20  N   UNL     1      -1.306  11.918  19.844  0.00  0.00    +0.000 NA
ATOM     21  N   UNL     1      -0.685  10.999  19.123  0.00  0.00    +0.000 NA
BRANCH  19  22
ATOM     22  C   UNL     1      -1.414  12.639  22.148  0.00  0.00    +0.000 A 
ATOM     23  C   UNL     1      -0.687  13.687  22.718  0.00  0.00    +0.000 A 
ATOM     24  C   UNL     1      -1.271  14.408  23.749  0.00  0.00    +0.000 A 
ATOM     25  N   UNL     1      -2.505  14.157  24.240  0.00  0.00    +0.000 NA
ATOM     26  CA  UNL     1      -3.188  13.129  23.654  0.00  0.00    +0.000 A 
ATOM     27  C   UNL     1      -2.699  12.356  22.615  0.00  0.00    +0.000 A 
BRANCH  26  28
ATOM     28  C   UNL     1      -4.539  12.848  24.223  0.00  0.00    +0.000 C 
ATOM     29  O   UNL     1      -4.796  11.964  25.017  0.00  0.00    +0.000 OA
BRANCH  28  30
ATOM     30  OXT UNL     1      -5.447  13.730  23.734  0.00  0.00    +0.000 OA
ATOM     31  HXT UNL     1      -5.527  13.592  22.760  0.00  0.00    +0.000 HD
ENDBRANCH  28  30
ENDBRANCH  26  28
ENDBRANCH  19  22
ENDBRANCH   4  17
TORSDOF 7
ENDMDL
MODEL 8
REMARK VINA RESULT:      -8.3      1.543      1.827
REMARK  Name = 
REMARK  9 active torsions:
REMARK  status: ('A' for Active; 'I' for Inactive)
REMARK    1  A    between atoms: C_1  and  O_2
REMARK    2  A    between atoms: O_2  and  C_3
REMARK    3  A    between atoms: C_6  and  O_7
REMARK    4  A    between atoms: O_7  and  C_8
REMARK    5  A    between atoms: C_9  and  C_10
REMARK    6  A    between atoms: C_13  and  C_14
REMARK    7  A    between atoms: N_16  and  C_17
REMARK    8  A    between atoms: CA_21  and  C_22
REMARK    9  A    between atoms: C_22  and  OXT_24
REMARK                            x       y       z     vdW  Elec       q    Type
REMARK                         _______ _______ _______ _____ _____    ______ ____
ROOT
ATOM      1  C   UNL     1       2.685   7.005  18.712  0.00  0.00    +0.000 A 
ATOM      2  C   UNL     1       2.143   7.127  20.008  0.00  0.00    +0.000 A 
ATOM      3  C   UNL     1       1.408   8.249  20.405  0.00  0.00    +0.000 A 
ATOM      4  C   UNL     1       1.169   9.292  19.508  0.00  0.00    +0.000 A 
ATOM      5  C   UNL     1       1.700   9.198  18.219  0.00  0.00    +0.000 A 
ATOM      6  C   UNL     1       2.455   8.078  17.836  0.00  0.00    +0.000 A 
ENDROOT
BRANCH   1  11
ATOM      7  C   UNL     1       5.718   4.762  18.211  0.00  0.00    +0.000 A 
ATOM      8  C   UNL     1       5.151   3.598  17.712  0.00  0.00    +0.000 A 
ATOM      9  C   UNL     1       3.776   3.521  17.502  0.00  0.00    +0.000 A 
ATOM     10  C   UNL     1       2.940   4.612  17.786  0.00  0.00    +0.000 A 
ATOM     11  C   UNL     1       3.485   5.804  18.324  0.00  0.00    +0.000 A 
ATOM     12  C   UNL     1       4.890   5.847  18.504  0.00  0.00    +0.000 A 
BRANCH   7  14
ATOM     13  C   UNL     1       7.687   5.871  18.938  0.00  0.00    +0.000 C 
ATOM     14  O   UNL     1       7.075   4.720  18.370  0.00  0.00    +0.000 OA
ENDBRANCH   7  14
BRANCH  10  15
ATOM     15  O   UNL     1       1.576   4.524  17.621  0.00  0.00    +0.000 OA
ATOM     16  C   UNL     1       0.921   3.535  18.412  0.00  0.00    +0.000 C 
ENDBRANCH  10  15
ENDBRANCH   1  11
BRANCH   4  17
ATOM     17  C   UNL     1       0.379  10.426  19.934  0.00  0.00    +0.000 A 
ATOM     18  C   UNL     1       0.136  10.831  21.227  0.00  0.00    +0.000 A 
ATOM     19  N   UNL     1      -0.719  11.898  21.100  0.00  0.00    +0.000 N 
ATOM     20  N   UNL     1      -0.937  12.157  19.791  0.00  0.00    +0.000 NA
ATOM     21  N   UNL     1      -0.287  11.254  19.073  0.00  0.00    +0.000 NA
BRANCH  19  22
ATOM     22  C   UNL     1      -1.364  12.649  22.117  0.00  0.00    +0.000 A 
ATOM     23  C   UNL     1      -0.697  13.674  22.794  0.00  0.00    +0.000 A 
ATOM     24  C   UNL     1      -1.372  14.340  23.806  0.00  0.00    +0.000 A 
ATOM     25  N   UNL     1      -2.639  14.057  24.181  0.00  0.00    +0.000 NA
ATOM     26  CA  UNL     1      -3.260  13.054  23.493  0.00  0.00    +0.000 A 
ATOM     27  C   UNL     1      -2.679  12.335  22.463  0.00  0.00    +0.000 A 
BRANCH  26  28
ATOM     28  C   UNL     1      -4.650  12.737  23.935  0.00  0.00    +0.000 C 
ATOM     29  O   UNL     1      -5.663  13.221  23.469  0.00  0.00    +0.000 OA
BRANCH  28  30
ATOM     30  OXT UNL     1      -4.627  11.816  24.933  0.00  0.00    +0.000 OA
ATOM     31  HXT UNL     1      -4.672  12.289  25.798  0.00  0.00    +0.000 HD
ENDBRANCH  28  30
ENDBRANCH  26  28
ENDBRANCH  19  22
ENDBRANCH   4  17
TORSDOF 7
ENDMDL
MODEL 9
REMARK VINA RESULT:      -8.2      1.451      1.833
REMARK  Name = 
REMARK  9 active torsions:
REMARK  status: ('A' for Active; 'I' for Inactive)
REMARK    1  A    between atoms: C_1  and  O_2
REMARK    2  A    between atoms: O_2  and  C_3
REMARK    3  A    between atoms: C_6  and  O_7
REMARK    4  A    between atoms: O_7  and  C_8
REMARK    5  A    between atoms: C_9  and  C_10
REMARK    6  A    between atoms: C_13  and  C_14
REMARK    7  A    between atoms: N_16  and  C_17
REMARK    8  A    between atoms: CA_21  and  C_22
REMARK    9  A    between atoms: C_22  and  OXT_24
REMARK                            x       y       z     vdW  Elec       q    Type
REMARK                         _______ _______ _______ _____ _____    ______ ____
ROOT
ATOM      1  C   UNL     1       2.552   7.119  18.560  0.00  0.00    +0.000 A 
ATOM      2  C   UNL     1       2.258   7.045  19.936  0.00  0.00    +0.000 A 
ATOM      3  C   UNL     1       1.605   8.081  20.614  0.00  0.00    +0.000 A 
ATOM      4  C   UNL     1       1.201   9.229  19.931  0.00  0.00    +0.000 A 
ATOM      5  C   UNL     1       1.486   9.328  18.567  0.00  0.00    +0.000 A 
ATOM      6  C   UNL     1       2.161   8.294  17.899  0.00  0.00    +0.000 A 
ENDROOT
BRANCH   1  11
ATOM      7  C   UNL     1       5.346   5.265  16.760  0.00  0.00    +0.000 A 
ATOM      8  C   UNL     1       4.808   3.997  16.596  0.00  0.00    +0.000 A 
ATOM      9  C   UNL     1       3.518   3.719  17.041  0.00  0.00    +0.000 A 
ATOM     10  C   UNL     1       2.738   4.709  17.659  0.00  0.00    +0.000 A 
ATOM     11  C   UNL     1       3.270   6.006  17.868  0.00  0.00    +0.000 A 
ATOM     12  C   UNL     1       4.579   6.251  17.382  0.00  0.00    +0.000 A 
BRANCH   7  14
ATOM     13  C   UNL     1       6.937   4.720  15.083  0.00  0.00    +0.000 C 
ATOM     14  O   UNL     1       6.617   5.419  16.279  0.00  0.00    +0.000 OA
ENDBRANCH   7  14
BRANCH  10  15
ATOM     15  O   UNL     1       1.480   4.426  18.139  0.00  0.00    +0.000 OA
ATOM     16  C   UNL     1       1.317   3.134  18.721  0.00  0.00    +0.000 C 
ENDBRANCH  10  15
ENDBRANCH   1  11
BRANCH   4  17
ATOM     17  C   UNL     1       0.500  10.271  20.649  0.00  0.00    +0.000 A 
ATOM     18  C   UNL     1      -0.862  10.414  20.785  0.00  0.00    +0.000 A 
ATOM     19  N   UNL     1      -1.017  11.588  21.483  0.00  0.00    +0.000 N 
ATOM     20  N   UNL     1       0.195  12.097  21.797  0.00  0.00    +0.000 NA
ATOM     21  N   UNL     1       1.125  11.312  21.278  0.00  0.00    +0.000 NA
BRANCH  19  22
ATOM     22  C   UNL     1      -2.215  12.267  21.828  0.00  0.00    +0.000 A 
ATOM     23  C   UNL     1      -2.526  12.553  23.160  0.00  0.00    +0.000 A 
ATOM     24  C   UNL     1      -3.733  13.182  23.432  0.00  0.00    +0.000 A 
ATOM     25  N   UNL     1      -4.630  13.534  22.484  0.00  0.00    +0.000 NA
ATOM     26  CA  UNL     1      -4.288  13.243  21.194  0.00  0.00    +0.000 A 
ATOM     27  C   UNL     1      -3.107  12.627  20.817  0.00  0.00    +0.000 A 
BRANCH  26  28
ATOM     28  C   UNL     1      -5.300  13.615  20.161  0.00  0.00    +0.000 C 
ATOM     29  O   UNL     1      -6.276  14.314  20.354  0.00  0.00    +0.000 OA
BRANCH  28  30
ATOM     30  OXT UNL     1      -4.971  13.067  18.964  0.00  0.00    +0.000 OA
ATOM     31  HXT UNL     1      -4.277  12.380  19.111  0.00  0.00    +0.000 HD
ENDBRANCH  28  30
ENDBRANCH  26  28
ENDBRANCH  19  22
ENDBRANCH   4  17
TORSDOF 7
ENDMDL
