MODEL 1
REMARK VINA RESULT:      -6.4      0.000      0.000
REMARK  Name = 
REMARK  4 active torsions:
REMARK  status: ('A' for Active; 'I' for Inactive)
REMARK    1  A    between atoms: C_1  and  C_2
REMARK    2  A    between atoms: N_5  and  C_6
REMARK    3  A    between atoms: C_7  and  S_8
REMARK    4  A    between atoms: S_8  and  C_11
REMARK                            x       y       z     vdW  Elec       q    Type
REMARK                         _______ _______ _______ _____ _____    ______ ____
ROOT
ATOM      1  C   UNL     1      -3.950  12.635  19.919  0.00  0.00    +0.000 A 
ATOM      2  C   UNL     1      -5.243  12.696  19.334  0.00  0.00    +0.000 A 
ATOM      3  C   UNL     1      -5.474  11.993  18.150  0.00  0.00    +0.000 A 
ATOM      4  N   UNL     1      -4.570  11.243  17.493  0.00  0.00    +0.000 NA
ATOM      5  C   UNL     1      -3.349  11.158  18.006  0.00  0.00    +0.000 A 
ATOM      6  C   UNL     1      -2.439  10.400  17.279  0.00  0.00    +0.000 A 
ATOM      7  C   UNL     1      -1.130  10.207  17.708  0.00  0.00    +0.000 A 
ATOM      8  C   UNL     1      -0.751  10.734  18.925  0.00  0.00    +0.000 A 
ATOM      9 CL   UNL     1       0.856  10.517  19.498  0.00  0.00    +0.000 Cl
ATOM     10  C   UNL     1      -1.671  11.457  19.685  0.00  0.00    +0.000 A 
ATOM     11  C   UNL     1      -2.984  11.774  19.226  0.00  0.00    +0.000 A 
ENDROOT
BRANCH   1  16
ATOM     12  C   UNL     1      -3.638  15.527  24.752  0.00  0.00    +0.000 C 
ATOM     13  C   UNL     1      -3.101  14.662  23.617  0.00  0.00    +0.000 C 
ATOM     14  C   UNL     1      -3.292  15.395  22.286  0.00  0.00    +0.000 C 
ATOM     15  C   UNL     1      -2.817  14.544  21.117  0.00  0.00    +0.000 C 
ATOM     16  N   UNL     1      -3.534  13.268  21.103  0.00  0.00    +0.000 N 
ATOM     17  C   UNL     1      -3.273  12.481  22.336  0.00  0.00    +0.000 C 
ATOM     18  C   UNL     1      -3.782  13.287  23.551  0.00  0.00    +0.000 C 
ENDBRANCH   1  16
BRANCH   2  19
ATOM     19  S   UNL     1      -6.656  13.691  19.794  0.00  0.00    +0.000 S 
ATOM     20  O   UNL     1      -6.403  15.068  19.417  0.00  0.00    +0.000 OA
ATOM     21  O   UNL     1      -7.841  13.043  19.250  0.00  0.00    +0.000 OA
BRANCH  19  22
ATOM     22  C   UNL     1      -6.926  13.640  21.558  0.00  0.00    +0.000 A 
ATOM     23  C   UNL     1      -6.956  14.842  22.266  0.00  0.00    +0.000 A 
ATOM     24  C   UNL     1      -7.288  14.846  23.626  0.00  0.00    +0.000 A 
ATOM     25  C   UNL     1      -7.601  13.648  24.272  0.00  0.00    +0.000 A 
ATOM     26  C   UNL     1      -7.545  12.445  23.566  0.00  0.00    +0.000 A 
ATOM     27  C   UNL     1      -7.198  12.432  22.212  0.00  0.00    +0.000 A 
ENDBRANCH  19  22
ENDBRANCH   2  19
TORSDOF 3
ENDMDL
MODEL 2
REMARK VINA RESULT:      -6.3      3.656      6.005
REMARK  Name = 
REMARK  4 active torsions:
REMARK  status: ('A' for Active; 'I' for Inactive)
REMARK    1  A    between atoms: C_1  and  C_2
REMARK    2  A    between atoms: N_5  and  C_6
REMARK    3  A    between atoms: C_7  and  S_8
REMARK    4  A    between atoms: S_8  and  C_11
REMARK                            x       y       z     vdW  Elec       q    Type
REMARK                         _______ _______ _______ _____ _____    ______ ____
ROOT
ATOM      1  C   UNL     1      -1.231  11.233  19.663  0.00  0.00    +0.000 A 
ATOM      2  C   UNL     1      -1.620  11.952  20.824  0.00  0.00    +0.000 A 
ATOM      3  C   UNL     1      -2.880  12.554  20.845  0.00  0.00    +0.000 A 
ATOM      4  N   UNL     1      -3.786  12.517  19.850  0.00  0.00    +0.000 NA
ATOM      5  C   UNL     1      -3.463  11.853  18.747  0.00  0.00    +0.000 A 
ATOM      6  C   UNL     1      -4.412  11.867  17.733  0.00  0.00    +0.000 A 
ATOM      7  C   UNL     1      -4.218  11.197  16.530  0.00  0.00    +0.000 A 
ATOM      8  C   UNL     1      -3.072  10.444  16.372  0.00  0.00    +0.000 A 
ATOM      9 CL   UNL     1      -2.791   9.595  14.904  0.00  0.00    +0.000 Cl
ATOM     10  C   UNL     1      -2.133  10.387  17.403  0.00  0.00    +0.000 A 
ATOM     11  C   UNL     1      -2.243  11.151  18.601  0.00  0.00    +0.000 A 
ENDROOT
BRANCH   1  16
ATOM     12  C   UNL     1       2.933   7.896  17.835  0.00  0.00    +0.000 C 
ATOM     13  C   UNL     1       2.309   8.990  18.695  0.00  0.00    +0.000 C 
ATOM     14  C   UNL     1       1.139   8.404  19.491  0.00  0.00    +0.000 C 
ATOM     15  C   UNL     1       0.452   9.474  20.326  0.00  0.00    +0.000 C 
ATOM     16  N   UNL     1      -0.013  10.561  19.461  0.00  0.00    +0.000 N 
ATOM     17  C   UNL     1       1.118  11.227  18.764  0.00  0.00    +0.000 C 
ATOM     18  C   UNL     1       1.821  10.186  17.865  0.00  0.00    +0.000 C 
ENDBRANCH   1  16
BRANCH   2  19
ATOM     19  S   UNL     1      -0.668  12.371  22.278  0.00  0.00    +0.000 S 
ATOM     20  O   UNL     1      -0.462  11.171  23.066  0.00  0.00    +0.000 OA
ATOM     21  O   UNL     1       0.508  13.104  21.833  0.00  0.00    +0.000 OA
BRANCH  19  22
ATOM     22  C   UNL     1      -1.539  13.555  23.292  0.00  0.00    +0.000 A 
ATOM     23  C   UNL     1      -2.779  13.198  23.823  0.00  0.00    +0.000 A 
ATOM     24  C   UNL     1      -3.429  14.053  24.721  0.00  0.00    +0.000 A 
ATOM     25  C   UNL     1      -2.831  15.259  25.095  0.00  0.00    +0.000 A 
ATOM     26  C   UNL     1      -1.602  15.624  24.542  0.00  0.00    +0.000 A 
ATOM     27  C   UNL     1      -0.956  14.781  23.632  0.00  0.00    +0.000 A 
ENDBRANCH  19  22
ENDBRANCH   2  19
TORSDOF 3
ENDMDL
MODEL 3
REMARK VINA RESULT:      -6.3      3.878      6.687
REMARK  Name = 
REMARK  4 active torsions:
REMARK  status: ('A' for Active; 'I' for Inactive)
REMARK    1  A    between atoms: C_1  and  C_2
REMARK    2  A    between atoms: N_5  and  C_6
REMARK    3  A    between atoms: C_7  and  S_8
REMARK    4  A    between atoms: S_8  and  C_11
REMARK                            x       y       z     vdW  Elec       q    Type
REMARK                         _______ _______ _______ _____ _____    ______ ____
ROOT
ATOM      1  C   UNL     1      -2.009  12.037  20.095  0.00  0.00    +0.000 A 
ATOM      2  C   UNL     1      -0.911  11.434  19.426  0.00  0.00    +0.000 A 
ATOM      3  C   UNL     1      -1.132  10.841  18.181  0.00  0.00    +0.000 A 
ATOM      4  N   UNL     1      -2.312  10.784  17.536  0.00  0.00    +0.000 NA
ATOM      5  C   UNL     1      -3.364  11.338  18.126  0.00  0.00    +0.000 A 
ATOM      6  C   UNL     1      -4.568  11.229  17.441  0.00  0.00    +0.000 A 
ATOM      7  C   UNL     1      -5.748  11.779  17.930  0.00  0.00    +0.000 A 
ATOM      8  C   UNL     1      -5.699  12.510  19.099  0.00  0.00    +0.000 A 
ATOM      9 CL   UNL     1      -7.132  13.214  19.739  0.00  0.00    +0.000 Cl
ATOM     10  C   UNL     1      -4.486  12.664  19.771  0.00  0.00    +0.000 A 
ATOM     11  C   UNL     1      -3.282  12.019  19.363  0.00  0.00    +0.000 A 
ENDROOT
BRANCH   1  16
ATOM     12  C   UNL     1      -3.181  15.027  24.732  0.00  0.00    +0.000 C 
ATOM     13  C   UNL     1      -2.336  14.120  23.844  0.00  0.00    +0.000 C 
ATOM     14  C   UNL     1      -2.057  14.828  22.515  0.00  0.00    +0.000 C 
ATOM     15  C   UNL     1      -1.258  13.938  21.575  0.00  0.00    +0.000 C 
ATOM     16  N   UNL     1      -1.978  12.683  21.343  0.00  0.00    +0.000 N 
ATOM     17  C   UNL     1      -2.160  11.917  22.602  0.00  0.00    +0.000 C 
ATOM     18  C   UNL     1      -3.007  12.766  23.576  0.00  0.00    +0.000 C 
ENDBRANCH   1  16
BRANCH   2  19
ATOM     19  S   UNL     1       0.760  11.155  19.999  0.00  0.00    +0.000 S 
ATOM     20  O   UNL     1       1.619  12.195  19.467  0.00  0.00    +0.000 OA
ATOM     21  O   UNL     1       0.704  10.991  21.444  0.00  0.00    +0.000 OA
BRANCH  19  22
ATOM     22  C   UNL     1       1.377   9.580  19.423  0.00  0.00    +0.000 A 
ATOM     23  C   UNL     1       1.898   9.496  18.132  0.00  0.00    +0.000 A 
ATOM     24  C   UNL     1       2.502   8.311  17.696  0.00  0.00    +0.000 A 
ATOM     25  C   UNL     1       2.593   7.216  18.558  0.00  0.00    +0.000 A 
ATOM     26  C   UNL     1       2.048   7.296  19.840  0.00  0.00    +0.000 A 
ATOM     27  C   UNL     1       1.429   8.471  20.276  0.00  0.00    +0.000 A 
ENDBRANCH  19  22
ENDBRANCH   2  19
TORSDOF 3
ENDMDL
MODEL 4
REMARK VINA RESULT:      -6.0      3.383      7.456
REMARK  Name = 
REMARK  4 active torsions:
REMARK  status: ('A' for Active; 'I' for Inactive)
REMARK    1  A    between atoms: C_1  and  C_2
REMARK    2  A    between atoms: N_5  and  C_6
REMARK    3  A    between atoms: C_7  and  S_8
REMARK    4  A    between atoms: S_8  and  C_11
REMARK                            x       y       z     vdW  Elec       q    Type
REMARK                         _______ _______ _______ _____ _____    ______ ____
ROOT
ATOM      1  C   UNL     1      -2.730  12.336  19.746  0.00  0.00    +0.000 A 
ATOM      2  C   UNL     1      -1.461  12.842  20.132  0.00  0.00    +0.000 A 
ATOM      3  C   UNL     1      -1.376  13.611  21.295  0.00  0.00    +0.000 A 
ATOM      4  N   UNL     1      -2.402  13.925  22.106  0.00  0.00    +0.000 NA
ATOM      5  C   UNL     1      -3.606  13.470  21.782  0.00  0.00    +0.000 A 
ATOM      6  C   UNL     1      -4.642  13.844  22.629  0.00  0.00    +0.000 A 
ATOM      7  C   UNL     1      -5.952  13.424  22.424  0.00  0.00    +0.000 A 
ATOM      8  C   UNL     1      -6.210  12.556  21.383  0.00  0.00    +0.000 A 
ATOM      9 CL   UNL     1      -7.813  12.006  21.093  0.00  0.00    +0.000 Cl
ATOM     10  C   UNL     1      -5.168  12.137  20.554  0.00  0.00    +0.000 A 
ATOM     11  C   UNL     1      -3.837  12.637  20.662  0.00  0.00    +0.000 A 
ENDROOT
BRANCH   1  16
ATOM     12  C   UNL     1      -2.960  10.045  14.596  0.00  0.00    +0.000 C 
ATOM     13  C   UNL     1      -3.280  10.148  16.083  0.00  0.00    +0.000 C 
ATOM     14  C   UNL     1      -3.959  11.491  16.366  0.00  0.00    +0.000 C 
ATOM     15  C   UNL     1      -4.250  11.659  17.849  0.00  0.00    +0.000 C 
ATOM     16  N   UNL     1      -3.009  11.543  18.618  0.00  0.00    +0.000 N 
ATOM     17  C   UNL     1      -2.388  10.204  18.456  0.00  0.00    +0.000 C 
ATOM     18  C   UNL     1      -2.032  10.005  16.966  0.00  0.00    +0.000 C 
ENDBRANCH   1  16
BRANCH   2  19
ATOM     19  S   UNL     1       0.101  12.791  19.263  0.00  0.00    +0.000 S 
ATOM     20  O   UNL     1      -0.123  13.146  17.875  0.00  0.00    +0.000 OA
ATOM     21  O   UNL     1       1.051  13.588  20.025  0.00  0.00    +0.000 OA
BRANCH  19  22
ATOM     22  C   UNL     1       0.802  11.149  19.307  0.00  0.00    +0.000 A 
ATOM     23  C   UNL     1       0.614  10.371  20.448  0.00  0.00    +0.000 A 
ATOM     24  C   UNL     1       1.042   9.038  20.467  0.00  0.00    +0.000 A 
ATOM     25  C   UNL     1       1.648   8.484  19.337  0.00  0.00    +0.000 A 
ATOM     26  C   UNL     1       1.857   9.274  18.205  0.00  0.00    +0.000 A 
ATOM     27  C   UNL     1       1.446  10.610  18.186  0.00  0.00    +0.000 A 
ENDBRANCH  19  22
ENDBRANCH   2  19
TORSDOF 3
ENDMDL
MODEL 5
REMARK VINA RESULT:      -5.9      3.826      6.553
REMARK  Name = 
REMARK  4 active torsions:
REMARK  status: ('A' for Active; 'I' for Inactive)
REMARK    1  A    between atoms: C_1  and  C_2
REMARK    2  A    between atoms: N_5  and  C_6
REMARK    3  A    between atoms: C_7  and  S_8
REMARK    4  A    between atoms: S_8  and  C_11
REMARK                            x       y       z     vdW  Elec       q    Type
REMARK                         _______ _______ _______ _____ _____    ______ ____
ROOT
ATOM      1  C   UNL     1      -2.526  12.253  19.902  0.00  0.00    +0.000 A 
ATOM      2  C   UNL     1      -1.398  11.621  19.314  0.00  0.00    +0.000 A 
ATOM      3  C   UNL     1      -1.586  10.863  18.157  0.00  0.00    +0.000 A 
ATOM      4  N   UNL     1      -2.760  10.668  17.527  0.00  0.00    +0.000 NA
ATOM      5  C   UNL     1      -3.839  11.243  18.043  0.00  0.00    +0.000 A 
ATOM      6  C   UNL     1      -5.034  10.990  17.380  0.00  0.00    +0.000 A 
ATOM      7  C   UNL     1      -6.240  11.542  17.796  0.00  0.00    +0.000 A 
ATOM      8  C   UNL     1      -6.231  12.419  18.862  0.00  0.00    +0.000 A 
ATOM      9 CL   UNL     1      -7.698  13.130  19.409  0.00  0.00    +0.000 Cl
ATOM     10  C   UNL     1      -5.029  12.716  19.505  0.00  0.00    +0.000 A 
ATOM     11  C   UNL     1      -3.794  12.081  19.181  0.00  0.00    +0.000 A 
ENDROOT
BRANCH   1  16
ATOM     12  C   UNL     1      -1.211  15.046  24.623  0.00  0.00    +0.000 C 
ATOM     13  C   UNL     1      -2.111  14.625  23.467  0.00  0.00    +0.000 C 
ATOM     14  C   UNL     1      -2.290  13.104  23.489  0.00  0.00    +0.000 C 
ATOM     15  C   UNL     1      -3.140  12.632  22.319  0.00  0.00    +0.000 C 
ATOM     16  N   UNL     1      -2.531  13.055  21.056  0.00  0.00    +0.000 N 
ATOM     17  C   UNL     1      -2.453  14.535  20.956  0.00  0.00    +0.000 C 
ATOM     18  C   UNL     1      -1.558  15.058  22.102  0.00  0.00    +0.000 C 
ENDBRANCH   1  16
BRANCH   2  19
ATOM     19  S   UNL     1       0.282  11.497  19.914  0.00  0.00    +0.000 S 
ATOM     20  O   UNL     1       1.071  12.559  19.322  0.00  0.00    +0.000 OA
ATOM     21  O   UNL     1       0.221  11.421  21.366  0.00  0.00    +0.000 OA
BRANCH  19  22
ATOM     22  C   UNL     1       1.013   9.937  19.444  0.00  0.00    +0.000 A 
ATOM     23  C   UNL     1       1.561   9.811  18.168  0.00  0.00    +0.000 A 
ATOM     24  C   UNL     1       2.252   8.647  17.813  0.00  0.00    +0.000 A 
ATOM     25  C   UNL     1       2.402   7.614  18.741  0.00  0.00    +0.000 A 
ATOM     26  C   UNL     1       1.831   7.733  20.009  0.00  0.00    +0.000 A 
ATOM     27  C   UNL     1       1.126   8.888  20.364  0.00  0.00    +0.000 A 
ENDBRANCH  19  22
ENDBRANCH   2  19
TORSDOF 3
ENDMDL
MODEL 6
REMARK VINA RESULT:      -5.9     10.518     13.550
REMARK  Name = 
REMARK  4 active torsions:
REMARK  status: ('A' for Active; 'I' for Inactive)
REMARK    1  A    between atoms: C_1  and  C_2
REMARK    2  A    between atoms: N_5  and  C_6
REMARK    3  A    between atoms: C_7  and  S_8
REMARK    4  A    between atoms: S_8  and  C_11
REMARK                            x       y       z     vdW  Elec       q    Type
REMARK                         _______ _______ _______ _____ _____    ______ ____
ROOT
ATOM      1  C   UNL     1       6.703  14.627  20.821  0.00  0.00    +0.000 A 
ATOM      2  C   UNL     1       7.105  13.911  21.979  0.00  0.00    +0.000 A 
ATOM      3  C   UNL     1       6.131  13.559  22.916  0.00  0.00    +0.000 A 
ATOM      4  N   UNL     1       4.817  13.835  22.827  0.00  0.00    +0.000 NA
ATOM      5  C   UNL     1       4.399  14.502  21.757  0.00  0.00    +0.000 A 
ATOM      6  C   UNL     1       3.041  14.794  21.720  0.00  0.00    +0.000 A 
ATOM      7  C   UNL     1       2.460  15.468  20.651  0.00  0.00    +0.000 A 
ATOM      8  C   UNL     1       3.252  15.796  19.570  0.00  0.00    +0.000 A 
ATOM      9 CL   UNL     1       2.577  16.626  18.224  0.00  0.00    +0.000 Cl
ATOM     10  C   UNL     1       4.608  15.466  19.578  0.00  0.00    +0.000 A 
ATOM     11  C   UNL     1       5.261  14.880  20.702  0.00  0.00    +0.000 A 
ENDROOT
BRANCH   1  16
ATOM     12  C   UNL     1      10.998  15.601  17.295  0.00  0.00    +0.000 C 
ATOM     13  C   UNL     1       9.555  15.690  17.780  0.00  0.00    +0.000 C 
ATOM     14  C   UNL     1       9.523  16.346  19.164  0.00  0.00    +0.000 C 
ATOM     15  C   UNL     1       8.105  16.407  19.711  0.00  0.00    +0.000 C 
ATOM     16  N   UNL     1       7.534  15.060  19.772  0.00  0.00    +0.000 N 
ATOM     17  C   UNL     1       7.443  14.443  18.424  0.00  0.00    +0.000 C 
ATOM     18  C   UNL     1       8.869  14.318  17.844  0.00  0.00    +0.000 C 
ENDBRANCH   1  16
BRANCH   2  19
ATOM     19  S   UNL     1       8.747  13.495  22.550  0.00  0.00    +0.000 S 
ATOM     20  O   UNL     1       9.449  14.716  22.891  0.00  0.00    +0.000 OA
ATOM     21  O   UNL     1       8.605  12.480  23.584  0.00  0.00    +0.000 OA
BRANCH  19  22
ATOM     22  C   UNL     1       9.675  12.662  21.272  0.00  0.00    +0.000 A 
ATOM     23  C   UNL     1       9.167  11.476  20.740  0.00  0.00    +0.000 A 
ATOM     24  C   UNL     1       9.804  10.866  19.653  0.00  0.00    +0.000 A 
ATOM     25  C   UNL     1      10.942  11.451  19.093  0.00  0.00    +0.000 A 
ATOM     26  C   UNL     1      11.461  12.624  19.643  0.00  0.00    +0.000 A 
ATOM     27  C   UNL     1      10.838  13.229  20.739  0.00  0.00    +0.000 A 
ENDBRANCH  19  22
ENDBRANCH   2  19
TORSDOF 3
ENDMDL
MODEL 7
REMARK VINA RESULT:      -5.9      3.649      7.651
REMARK  Name = 
REMARK  4 active torsions:
REMARK  status: ('A' for Active; 'I' for Inactive)
REMARK    1  A    between atoms: C_1  and  C_2
REMARK    2  A    between atoms: N_5  and  C_6
REMARK    3  A    between atoms: C_7  and  S_8
REMARK    4  A    between atoms: S_8  and  C_11
REMARK                            x       y       z     vdW  Elec       q    Type
REMARK                         _______ _______ _______ _____ _____    ______ ____
ROOT
ATOM      1  C   UNL     1      -2.242  12.056  19.700  0.00  0.00    +0.000 A 
ATOM      2  C   UNL     1      -1.114  12.367  20.505  0.00  0.00    +0.000 A 
ATOM      3  C   UNL     1      -1.320  13.042  21.710  0.00  0.00    +0.000 A 
ATOM      4  N   UNL     1      -2.511  13.435  22.197  0.00  0.00    +0.000 NA
ATOM      5  C   UNL     1      -3.592  13.162  21.476  0.00  0.00    +0.000 A 
ATOM      6  C   UNL     1      -4.797  13.614  22.000  0.00  0.00    +0.000 A 
ATOM      7  C   UNL     1      -6.012  13.382  21.363  0.00  0.00    +0.000 A 
ATOM      8  C   UNL     1      -6.017  12.624  20.210  0.00  0.00    +0.000 A 
ATOM      9 CL   UNL     1      -7.496  12.307  19.391  0.00  0.00    +0.000 Cl
ATOM     10  C   UNL     1      -4.817  12.126  19.701  0.00  0.00    +0.000 A 
ATOM     11  C   UNL     1      -3.543  12.440  20.261  0.00  0.00    +0.000 A 
ENDROOT
BRANCH   1  16
ATOM     12  C   UNL     1      -3.564   9.689  14.753  0.00  0.00    +0.000 C 
ATOM     13  C   UNL     1      -2.629  10.117  15.880  0.00  0.00    +0.000 C 
ATOM     14  C   UNL     1      -3.091   9.479  17.193  0.00  0.00    +0.000 C 
ATOM     15  C   UNL     1      -2.216   9.920  18.357  0.00  0.00    +0.000 C 
ATOM     16  N   UNL     1      -2.232  11.381  18.467  0.00  0.00    +0.000 N 
ATOM     17  C   UNL     1      -1.677  12.027  17.250  0.00  0.00    +0.000 C 
ATOM     18  C   UNL     1      -2.563  11.642  16.044  0.00  0.00    +0.000 C 
ENDBRANCH   1  16
BRANCH   2  19
ATOM     19  S   UNL     1       0.628  12.168  20.153  0.00  0.00    +0.000 S 
ATOM     20  O   UNL     1       0.960  12.943  18.973  0.00  0.00    +0.000 OA
ATOM     21  O   UNL     1       1.356  12.452  21.381  0.00  0.00    +0.000 OA
BRANCH  19  22
ATOM     22  C   UNL     1       1.021  10.458  19.820  0.00  0.00    +0.000 A 
ATOM     23  C   UNL     1       1.421  10.101  18.533  0.00  0.00    +0.000 A 
ATOM     24  C   UNL     1       1.855   8.796  18.270  0.00  0.00    +0.000 A 
ATOM     25  C   UNL     1       1.898   7.854  19.300  0.00  0.00    +0.000 A 
ATOM     26  C   UNL     1       1.473   8.209  20.582  0.00  0.00    +0.000 A 
ATOM     27  C   UNL     1       1.023   9.506  20.846  0.00  0.00    +0.000 A 
ENDBRANCH  19  22
ENDBRANCH   2  19
TORSDOF 3
ENDMDL
MODEL 8
REMARK VINA RESULT:      -5.9      4.428      7.685
REMARK  Name = 
REMARK  4 active torsions:
REMARK  status: ('A' for Active; 'I' for Inactive)
REMARK    1  A    between atoms: C_1  and  C_2
REMARK    2  A    between atoms: N_5  and  C_6
REMARK    3  A    between atoms: C_7  and  S_8
REMARK    4  A    between atoms: S_8  and  C_11
REMARK                            x       y       z     vdW  Elec       q    Type
REMARK                         _______ _______ _______ _____ _____    ______ ____
ROOT
ATOM      1  C   UNL     1      -0.828  13.431  21.349  0.00  0.00    +0.000 A 
ATOM      2  C   UNL     1       0.298  14.266  21.119  0.00  0.00    +0.000 A 
ATOM      3  C   UNL     1       0.614  15.236  22.072  0.00  0.00    +0.000 A 
ATOM      4  N   UNL     1      -0.057  15.463  23.216  0.00  0.00    +0.000 NA
ATOM      5  C   UNL     1      -1.115  14.703  23.471  0.00  0.00    +0.000 A 
ATOM      6  C   UNL     1      -1.798  14.992  24.646  0.00  0.00    +0.000 A 
ATOM      7  C   UNL     1      -2.912  14.264  25.050  0.00  0.00    +0.000 A 
ATOM      8  C   UNL     1      -3.305  13.184  24.288  0.00  0.00    +0.000 A 
ATOM      9 CL   UNL     1      -4.675  12.252  24.751  0.00  0.00    +0.000 Cl
ATOM     10  C   UNL     1      -2.598  12.857  23.130  0.00  0.00    +0.000 A 
ATOM     11  C   UNL     1      -1.525  13.648  22.623  0.00  0.00    +0.000 A 
ENDROOT
BRANCH   1  16
ATOM     12  C   UNL     1      -1.783   9.863  17.086  0.00  0.00    +0.000 C 
ATOM     13  C   UNL     1      -1.950  10.411  18.499  0.00  0.00    +0.000 C 
ATOM     14  C   UNL     1      -2.451  11.857  18.427  0.00  0.00    +0.000 C 
ATOM     15  C   UNL     1      -2.582  12.463  19.816  0.00  0.00    +0.000 C 
ATOM     16  N   UNL     1      -1.295  12.403  20.511  0.00  0.00    +0.000 N 
ATOM     17  C   UNL     1      -0.840  11.001  20.700  0.00  0.00    +0.000 C 
ATOM     18  C   UNL     1      -0.648  10.356  19.310  0.00  0.00    +0.000 C 
ENDBRANCH   1  16
BRANCH   2  19
ATOM     19  S   UNL     1       1.343  14.398  19.674  0.00  0.00    +0.000 S 
ATOM     20  O   UNL     1       2.729  14.434  20.100  0.00  0.00    +0.000 OA
ATOM     21  O   UNL     1       0.942  13.350  18.748  0.00  0.00    +0.000 OA
BRANCH  19  22
ATOM     22  C   UNL     1       1.002  15.903  18.775  0.00  0.00    +0.000 A 
ATOM     23  C   UNL     1       2.067  16.600  18.205  0.00  0.00    +0.000 A 
ATOM     24  C   UNL     1       1.823  17.711  17.390  0.00  0.00    +0.000 A 
ATOM     25  C   UNL     1       0.510  18.117  17.139  0.00  0.00    +0.000 A 
ATOM     26  C   UNL     1      -0.553  17.432  17.731  0.00  0.00    +0.000 A 
ATOM     27  C   UNL     1      -0.314  16.331  18.559  0.00  0.00    +0.000 A 
ENDBRANCH  19  22
ENDBRANCH   2  19
TORSDOF 3
ENDMDL
MODEL 9
REMARK VINA RESULT:      -5.8      4.415      6.395
REMARK  Name = 
REMARK  4 active torsions:
REMARK  status: ('A' for Active; 'I' for Inactive)
REMARK    1  A    between atoms: C_1  and  C_2
REMARK    2  A    between atoms: N_5  and  C_6
REMARK    3  A    between atoms: C_7  and  S_8
REMARK    4  A    between atoms: S_8  and  C_11
REMARK                            x       y       z     vdW  Elec       q    Type
REMARK                         _______ _______ _______ _____ _____    ______ ____
ROOT
ATOM      1  C   UNL     1       0.421  13.417  19.951  0.00  0.00    +0.000 A 
ATOM      2  C   UNL     1       0.742  12.180  19.331  0.00  0.00    +0.000 A 
ATOM      3  C   UNL     1       1.786  12.151  18.405  0.00  0.00    +0.000 A 
ATOM      4  N   UNL     1       2.539  13.203  18.034  0.00  0.00    +0.000 NA
ATOM      5  C   UNL     1       2.272  14.378  18.592  0.00  0.00    +0.000 A 
ATOM      6  C   UNL     1       3.051  15.444  18.157  0.00  0.00    +0.000 A 
ATOM      7  C   UNL     1       2.897  16.727  18.669  0.00  0.00    +0.000 A 
ATOM      8  C   UNL     1       1.985  16.927  19.685  0.00  0.00    +0.000 A 
ATOM      9 CL   UNL     1       1.763  18.496  20.352  0.00  0.00    +0.000 Cl
ATOM     10  C   UNL     1       1.231  15.853  20.161  0.00  0.00    +0.000 A 
ATOM     11  C   UNL     1       1.278  14.551  19.583  0.00  0.00    +0.000 A 
ENDROOT
BRANCH   1  16
ATOM     12  C   UNL     1      -3.937  12.971  23.505  0.00  0.00    +0.000 C 
ATOM     13  C   UNL     1      -2.760  13.672  22.837  0.00  0.00    +0.000 C 
ATOM     14  C   UNL     1      -2.995  13.730  21.324  0.00  0.00    +0.000 C 
ATOM     15  C   UNL     1      -1.818  14.376  20.609  0.00  0.00    +0.000 C 
ATOM     16  N   UNL     1      -0.588  13.640  20.906  0.00  0.00    +0.000 N 
ATOM     17  C   UNL     1      -0.270  13.667  22.357  0.00  0.00    +0.000 C 
ATOM     18  C   UNL     1      -1.420  12.978  23.124  0.00  0.00    +0.000 C 
ENDBRANCH   1  16
BRANCH   2  19
ATOM     19  S   UNL     1      -0.101  10.606  19.422  0.00  0.00    +0.000 S 
ATOM     20  O   UNL     1       0.806   9.563  18.984  0.00  0.00    +0.000 OA
ATOM     21  O   UNL     1      -0.674  10.494  20.755  0.00  0.00    +0.000 OA
BRANCH  19  22
ATOM     22  C   UNL     1      -1.529  10.584  18.350  0.00  0.00    +0.000 A 
ATOM     23  C   UNL     1      -2.599  11.430  18.642  0.00  0.00    +0.000 A 
ATOM     24  C   UNL     1      -3.677  11.529  17.755  0.00  0.00    +0.000 A 
ATOM     25  C   UNL     1      -3.677  10.788  16.571  0.00  0.00    +0.000 A 
ATOM     26  C   UNL     1      -2.616   9.924  16.294  0.00  0.00    +0.000 A 
ATOM     27  C   UNL     1      -1.544   9.809  17.184  0.00  0.00    +0.000 A 
ENDBRANCH  19  22
ENDBRANCH   2  19
TORSDOF 3
ENDMDL
