MODEL 1
REMARK VINA RESULT:      -8.9      0.000      0.000
REMARK  Name = 
REMARK  4 active torsions:
REMARK  status: ('A' for Active; 'I' for Inactive)
REMARK    1  A    between atoms: C_1  and  C_2
REMARK    2  A    between atoms: C_5  and  C_6
REMARK    3  A    between atoms: C_12  and  C_14
REMARK    4  A    between atoms: C_17  and  C_18
REMARK                            x       y       z     vdW  Elec       q    Type
REMARK                         _______ _______ _______ _____ _____    ______ ____
ROOT
ATOM      1  C   UNL     1       4.537   3.643  17.220  0.00  0.00    +0.000 C 
ATOM      2  O   UNL     1       4.345   2.429  17.254  0.00  0.00    +0.000 OA
ATOM      3  N   UNL     1       3.954   4.577  18.113  0.00  0.00    +0.000 N 
ATOM      4  C   UNL     1       4.071   6.010  17.923  0.00  0.00    +0.000 C 
ATOM      5  C   UNL     1       2.800   6.754  18.204  0.00  0.00    +0.000 C 
ATOM      6  N   UNL     1       2.262   6.526  19.535  0.00  0.00    +0.000 N 
ATOM      7  C   UNL     1       1.645   7.568  20.269  0.00  0.00    +0.000 C 
ATOM      8  O   UNL     1       1.261   7.493  21.435  0.00  0.00    +0.000 OA
ATOM      9  C   UNL     1       2.397   5.158  20.009  0.00  0.00    +0.000 A 
ATOM     10  C   UNL     1       1.709   4.726  21.160  0.00  0.00    +0.000 A 
ATOM     11  C   UNL     1       1.814   3.418  21.637  0.00  0.00    +0.000 A 
ATOM     12  C   UNL     1       2.610   2.504  20.973  0.00  0.00    +0.000 A 
ATOM     13  C   UNL     1       3.293   2.894  19.820  0.00  0.00    +0.000 A 
ATOM     14  C   UNL     1       3.204   4.200  19.302  0.00  0.00    +0.000 A 
ENDROOT
BRANCH   1  19
ATOM     15  C   UNL     1       8.068   5.274  12.881  0.00  0.00    +0.000 C 
ATOM     16  C   UNL     1       7.141   4.895  13.999  0.00  0.00    +0.000 A 
ATOM     17  C   UNL     1       7.495   5.091  15.337  0.00  0.00    +0.000 A 
ATOM     18  C   UNL     1       6.630   4.691  16.364  0.00  0.00    +0.000 A 
ATOM     19  C   UNL     1       5.387   4.108  16.069  0.00  0.00    +0.000 A 
ATOM     20  C   UNL     1       5.001   4.012  14.728  0.00  0.00    +0.000 A 
ATOM     21  C   UNL     1       5.892   4.342  13.703  0.00  0.00    +0.000 A 
ENDBRANCH   1  19
BRANCH   7  22
ATOM     22  C   UNL     1       1.511   8.934  19.662  0.00  0.00    +0.000 A 
ATOM     23  C   UNL     1       1.907   9.241  18.355  0.00  0.00    +0.000 A 
ATOM     24  C   UNL     1       1.921  10.565  17.911  0.00  0.00    +0.000 A 
ATOM     25  C   UNL     1       1.433  11.590  18.727  0.00  0.00    +0.000 A 
ATOM     26  C   UNL     1       1.421  13.011  18.247  0.00  0.00    +0.000 C 
ATOM     27  C   UNL     1       0.918  11.268  19.988  0.00  0.00    +0.000 A 
ATOM     28  C   UNL     1       0.969   9.953  20.458  0.00  0.00    +0.000 A 
ENDBRANCH   7  22
TORSDOF 2
ENDMDL
MODEL 2
REMARK VINA RESULT:      -8.8      0.175      7.072
REMARK  Name = 
REMARK  4 active torsions:
REMARK  status: ('A' for Active; 'I' for Inactive)
REMARK    1  A    between atoms: C_1  and  C_2
REMARK    2  A    between atoms: C_5  and  C_6
REMARK    3  A    between atoms: C_12  and  C_14
REMARK    4  A    between atoms: C_17  and  C_18
REMARK                            x       y       z     vdW  Elec       q    Type
REMARK                         _______ _______ _______ _____ _____    ______ ____
ROOT
ATOM      1  C   UNL     1       1.651   7.546  20.237  0.00  0.00    +0.000 C 
ATOM      2  O   UNL     1       1.342   7.436  21.422  0.00  0.00    +0.000 OA
ATOM      3  N   UNL     1       2.181   6.499  19.441  0.00  0.00    +0.000 N 
ATOM      4  C   UNL     1       2.692   6.724  18.103  0.00  0.00    +0.000 C 
ATOM      5  C   UNL     1       3.957   5.972  17.815  0.00  0.00    +0.000 C 
ATOM      6  N   UNL     1       3.851   4.536  18.013  0.00  0.00    +0.000 N 
ATOM      7  C   UNL     1       4.509   3.623  17.154  0.00  0.00    +0.000 C 
ATOM      8  O   UNL     1       4.390   2.399  17.182  0.00  0.00    +0.000 OA
ATOM      9  C   UNL     1       3.048   4.149  19.161  0.00  0.00    +0.000 A 
ATOM     10  C   UNL     1       3.058   2.819  19.629  0.00  0.00    +0.000 A 
ATOM     11  C   UNL     1       2.303   2.416  20.731  0.00  0.00    +0.000 A 
ATOM     12  C   UNL     1       1.515   3.336  21.399  0.00  0.00    +0.000 A 
ATOM     13  C   UNL     1       1.494   4.665  20.973  0.00  0.00    +0.000 A 
ATOM     14  C   UNL     1       2.251   5.110  19.873  0.00  0.00    +0.000 A 
ENDROOT
BRANCH   1  19
ATOM     15  C   UNL     1       1.268  13.045  18.351  0.00  0.00    +0.000 C 
ATOM     16  C   UNL     1       1.327  11.622  18.820  0.00  0.00    +0.000 A 
ATOM     17  C   UNL     1       0.812  11.241  20.064  0.00  0.00    +0.000 A 
ATOM     18  C   UNL     1       0.916   9.913  20.496  0.00  0.00    +0.000 A 
ATOM     19  C   UNL     1       1.515   8.938  19.683  0.00  0.00    +0.000 A 
ATOM     20  C   UNL     1       1.933   9.308  18.400  0.00  0.00    +0.000 A 
ATOM     21  C   UNL     1       1.897  10.646  17.996  0.00  0.00    +0.000 A 
ENDBRANCH   1  19
BRANCH   7  22
ATOM     22  C   UNL     1       5.360   4.134  16.027  0.00  0.00    +0.000 A 
ATOM     23  C   UNL     1       4.946   4.141  14.690  0.00  0.00    +0.000 A 
ATOM     24  C   UNL     1       5.846   4.462  13.671  0.00  0.00    +0.000 A 
ATOM     25  C   UNL     1       7.141   4.890  13.981  0.00  0.00    +0.000 A 
ATOM     26  C   UNL     1       8.105   5.260  12.894  0.00  0.00    +0.000 C 
ATOM     27  C   UNL     1       7.517   5.004  15.324  0.00  0.00    +0.000 A 
ATOM     28  C   UNL     1       6.638   4.616  16.340  0.00  0.00    +0.000 A 
ENDBRANCH   7  22
TORSDOF 2
ENDMDL
MODEL 3
REMARK VINA RESULT:      -7.8      6.098      9.968
REMARK  Name = 
REMARK  4 active torsions:
REMARK  status: ('A' for Active; 'I' for Inactive)
REMARK    1  A    between atoms: C_1  and  C_2
REMARK    2  A    between atoms: C_5  and  C_6
REMARK    3  A    between atoms: C_12  and  C_14
REMARK    4  A    between atoms: C_17  and  C_18
REMARK                            x       y       z     vdW  Elec       q    Type
REMARK                         _______ _______ _______ _____ _____    ______ ____
ROOT
ATOM      1  C   UNL     1       4.788  16.248  18.874  0.00  0.00    +0.000 C 
ATOM      2  O   UNL     1       4.801  17.473  18.982  0.00  0.00    +0.000 OA
ATOM      3  N   UNL     1       3.614  15.461  18.754  0.00  0.00    +0.000 N 
ATOM      4  C   UNL     1       3.643  14.013  18.807  0.00  0.00    +0.000 C 
ATOM      5  C   UNL     1       2.518  13.424  19.604  0.00  0.00    +0.000 C 
ATOM      6  N   UNL     1       1.196  13.825  19.150  0.00  0.00    +0.000 N 
ATOM      7  C   UNL     1       0.108  12.920  19.161  0.00  0.00    +0.000 C 
ATOM      8  O   UNL     1      -1.012  13.140  18.699  0.00  0.00    +0.000 OA
ATOM      9  C   UNL     1       1.106  15.212  18.723  0.00  0.00    +0.000 A 
ATOM     10  C   UNL     1      -0.148  15.814  18.498  0.00  0.00    +0.000 A 
ATOM     11  C   UNL     1      -0.268  17.143  18.092  0.00  0.00    +0.000 A 
ATOM     12  C   UNL     1       0.866  17.911  17.902  0.00  0.00    +0.000 A 
ATOM     13  C   UNL     1       2.124  17.352  18.132  0.00  0.00    +0.000 A 
ATOM     14  C   UNL     1       2.285  16.018  18.552  0.00  0.00    +0.000 A 
ENDROOT
BRANCH   1  19
ATOM     15  C   UNL     1       9.901  13.517  19.464  0.00  0.00    +0.000 C 
ATOM     16  C   UNL     1       8.606  14.259  19.312  0.00  0.00    +0.000 A 
ATOM     17  C   UNL     1       7.895  14.720  20.424  0.00  0.00    +0.000 A 
ATOM     18  C   UNL     1       6.667  15.375  20.258  0.00  0.00    +0.000 A 
ATOM     19  C   UNL     1       6.141  15.598  18.976  0.00  0.00    +0.000 A 
ATOM     20  C   UNL     1       6.909  15.224  17.868  0.00  0.00    +0.000 A 
ATOM     21  C   UNL     1       8.098  14.506  18.033  0.00  0.00    +0.000 A 
ENDBRANCH   1  19
BRANCH   7  22
ATOM     22  C   UNL     1       0.299  11.522  19.674  0.00  0.00    +0.000 A 
ATOM     23  C   UNL     1       0.050  11.146  20.999  0.00  0.00    +0.000 A 
ATOM     24  C   UNL     1       0.416   9.877  21.456  0.00  0.00    +0.000 A 
ATOM     25  C   UNL     1       0.933   8.928  20.569  0.00  0.00    +0.000 A 
ATOM     26  C   UNL     1       1.304   7.556  21.047  0.00  0.00    +0.000 C 
ATOM     27  C   UNL     1       1.066   9.262  19.216  0.00  0.00    +0.000 A 
ATOM     28  C   UNL     1       0.764  10.553  18.774  0.00  0.00    +0.000 A 
ENDBRANCH   7  22
TORSDOF 2
ENDMDL
MODEL 4
REMARK VINA RESULT:      -7.7      6.140     10.273
REMARK  Name = 
REMARK  4 active torsions:
REMARK  status: ('A' for Active; 'I' for Inactive)
REMARK    1  A    between atoms: C_1  and  C_2
REMARK    2  A    between atoms: C_5  and  C_6
REMARK    3  A    between atoms: C_12  and  C_14
REMARK    4  A    between atoms: C_17  and  C_18
REMARK                            x       y       z     vdW  Elec       q    Type
REMARK                         _______ _______ _______ _____ _____    ______ ____
ROOT
ATOM      1  C   UNL     1       0.193  12.937  19.127  0.00  0.00    +0.000 C 
ATOM      2  O   UNL     1      -0.888  13.135  18.575  0.00  0.00    +0.000 OA
ATOM      3  N   UNL     1       1.258  13.872  19.175  0.00  0.00    +0.000 N 
ATOM      4  C   UNL     1       2.571  13.527  19.683  0.00  0.00    +0.000 C 
ATOM      5  C   UNL     1       3.694  14.094  18.866  0.00  0.00    +0.000 C 
ATOM      6  N   UNL     1       3.643  15.539  18.714  0.00  0.00    +0.000 N 
ATOM      7  C   UNL     1       4.823  16.322  18.717  0.00  0.00    +0.000 C 
ATOM      8  O   UNL     1       4.868  17.551  18.701  0.00  0.00    +0.000 OA
ATOM      9  C   UNL     1       2.304  16.076  18.539  0.00  0.00    +0.000 A 
ATOM     10  C   UNL     1       2.113  17.411  18.131  0.00  0.00    +0.000 A 
ATOM     11  C   UNL     1       0.840  17.954  17.949  0.00  0.00    +0.000 A 
ATOM     12  C   UNL     1      -0.280  17.174  18.169  0.00  0.00    +0.000 A 
ATOM     13  C   UNL     1      -0.127  15.843  18.558  0.00  0.00    +0.000 A 
ATOM     14  C   UNL     1       1.140  15.256  18.741  0.00  0.00    +0.000 A 
ENDROOT
BRANCH   1  19
ATOM     15  C   UNL     1       1.145   7.582  21.217  0.00  0.00    +0.000 C 
ATOM     16  C   UNL     1       0.860   8.948  20.666  0.00  0.00    +0.000 A 
ATOM     17  C   UNL     1       1.124   9.265  19.330  0.00  0.00    +0.000 A 
ATOM     18  C   UNL     1       0.887  10.560  18.849  0.00  0.00    +0.000 A 
ATOM     19  C   UNL     1       0.361  11.553  19.691  0.00  0.00    +0.000 A 
ATOM     20  C   UNL     1       0.004  11.196  20.996  0.00  0.00    +0.000 A 
ATOM     21  C   UNL     1       0.307   9.926  21.497  0.00  0.00    +0.000 A 
ENDBRANCH   1  19
BRANCH   7  22
ATOM     22  C   UNL     1       6.163  15.658  18.852  0.00  0.00    +0.000 A 
ATOM     23  C   UNL     1       6.836  15.054  17.783  0.00  0.00    +0.000 A 
ATOM     24  C   UNL     1       7.991  14.301  18.008  0.00  0.00    +0.000 A 
ATOM     25  C   UNL     1       8.553  14.233  19.287  0.00  0.00    +0.000 A 
ATOM     26  C   UNL     1       9.807  13.447  19.531  0.00  0.00    +0.000 C 
ATOM     27  C   UNL     1       7.950  14.940  20.334  0.00  0.00    +0.000 A 
ATOM     28  C   UNL     1       6.757  15.636  20.122  0.00  0.00    +0.000 A 
ENDBRANCH   7  22
TORSDOF 2
ENDMDL
MODEL 5
REMARK VINA RESULT:      -7.7      7.052     10.742
REMARK  Name = 
REMARK  4 active torsions:
REMARK  status: ('A' for Active; 'I' for Inactive)
REMARK    1  A    between atoms: C_1  and  C_2
REMARK    2  A    between atoms: C_5  and  C_6
REMARK    3  A    between atoms: C_12  and  C_14
REMARK    4  A    between atoms: C_17  and  C_18
REMARK                            x       y       z     vdW  Elec       q    Type
REMARK                         _______ _______ _______ _____ _____    ______ ____
ROOT
ATOM      1  C   UNL     1      -0.161  13.385  19.468  0.00  0.00    +0.000 C 
ATOM      2  O   UNL     1      -1.213  13.618  18.875  0.00  0.00    +0.000 OA
ATOM      3  N   UNL     1       1.004  14.189  19.389  0.00  0.00    +0.000 N 
ATOM      4  C   UNL     1       2.270  13.778  19.965  0.00  0.00    +0.000 C 
ATOM      5  C   UNL     1       3.449  14.082  19.090  0.00  0.00    +0.000 C 
ATOM      6  N   UNL     1       3.565  15.482  18.717  0.00  0.00    +0.000 N 
ATOM      7  C   UNL     1       4.827  16.116  18.620  0.00  0.00    +0.000 C 
ATOM      8  O   UNL     1       5.013  17.315  18.417  0.00  0.00    +0.000 OA
ATOM      9  C   UNL     1       2.296  16.135  18.441  0.00  0.00    +0.000 A 
ATOM     10  C   UNL     1       2.259  17.404  17.831  0.00  0.00    +0.000 A 
ATOM     11  C   UNL     1       1.057  18.055  17.548  0.00  0.00    +0.000 A 
ATOM     12  C   UNL     1      -0.145  17.451  17.866  0.00  0.00    +0.000 A 
ATOM     13  C   UNL     1      -0.146  16.186  18.456  0.00  0.00    +0.000 A 
ATOM     14  C   UNL     1       1.045  15.495  18.747  0.00  0.00    +0.000 A 
ENDROOT
BRANCH   1  19
ATOM     15  C   UNL     1      -0.423   8.450  22.553  0.00  0.00    +0.000 C 
ATOM     16  C   UNL     1      -0.313   9.725  21.771  0.00  0.00    +0.000 A 
ATOM     17  C   UNL     1      -0.545  10.969  22.367  0.00  0.00    +0.000 A 
ATOM     18  C   UNL     1      -0.476  12.142  21.605  0.00  0.00    +0.000 A 
ATOM     19  C   UNL     1      -0.153  12.094  20.239  0.00  0.00    +0.000 A 
ATOM     20  C   UNL     1       0.177  10.855  19.679  0.00  0.00    +0.000 A 
ATOM     21  C   UNL     1       0.038   9.677  20.418  0.00  0.00    +0.000 A 
ENDBRANCH   1  19
BRANCH   7  22
ATOM     22  C   UNL     1       6.082  15.332  18.876  0.00  0.00    +0.000 A 
ATOM     23  C   UNL     1       6.711  15.270  20.124  0.00  0.00    +0.000 A 
ATOM     24  C   UNL     1       7.968  14.672  20.255  0.00  0.00    +0.000 A 
ATOM     25  C   UNL     1       8.562  14.029  19.165  0.00  0.00    +0.000 A 
ATOM     26  C   UNL     1       9.898  13.363  19.304  0.00  0.00    +0.000 C 
ATOM     27  C   UNL     1       7.875  13.982  17.946  0.00  0.00    +0.000 A 
ATOM     28  C   UNL     1       6.651  14.640  17.798  0.00  0.00    +0.000 A 
ENDBRANCH   7  22
TORSDOF 2
ENDMDL
MODEL 6
REMARK VINA RESULT:      -7.6      7.095     10.077
REMARK  Name = 
REMARK  4 active torsions:
REMARK  status: ('A' for Active; 'I' for Inactive)
REMARK    1  A    between atoms: C_1  and  C_2
REMARK    2  A    between atoms: C_5  and  C_6
REMARK    3  A    between atoms: C_12  and  C_14
REMARK    4  A    between atoms: C_17  and  C_18
REMARK                            x       y       z     vdW  Elec       q    Type
REMARK                         _______ _______ _______ _____ _____    ______ ____
ROOT
ATOM      1  C   UNL     1       4.831  16.216  18.660  0.00  0.00    +0.000 C 
ATOM      2  O   UNL     1       4.980  17.434  18.575  0.00  0.00    +0.000 OA
ATOM      3  N   UNL     1       3.576  15.556  18.678  0.00  0.00    +0.000 N 
ATOM      4  C   UNL     1       3.448  14.139  18.957  0.00  0.00    +0.000 C 
ATOM      5  C   UNL     1       2.289  13.810  19.850  0.00  0.00    +0.000 C 
ATOM      6  N   UNL     1       1.007  14.281  19.352  0.00  0.00    +0.000 N 
ATOM      7  C   UNL     1      -0.173  13.515  19.517  0.00  0.00    +0.000 C 
ATOM      8  O   UNL     1      -1.274  13.784  19.038  0.00  0.00    +0.000 OA
ATOM      9  C   UNL     1       1.056  15.585  18.713  0.00  0.00    +0.000 A 
ATOM     10  C   UNL     1      -0.131  16.281  18.409  0.00  0.00    +0.000 A 
ATOM     11  C   UNL     1      -0.119  17.537  17.801  0.00  0.00    +0.000 A 
ATOM     12  C   UNL     1       1.086  18.135  17.480  0.00  0.00    +0.000 A 
ATOM     13  C   UNL     1       2.282  17.481  17.782  0.00  0.00    +0.000 A 
ATOM     14  C   UNL     1       2.309  16.219  18.405  0.00  0.00    +0.000 A 
ENDROOT
BRANCH   1  19
ATOM     15  C   UNL     1       9.900  13.385  19.149  0.00  0.00    +0.000 C 
ATOM     16  C   UNL     1       8.573  14.076  19.033  0.00  0.00    +0.000 A 
ATOM     17  C   UNL     1       7.868  14.102  17.825  0.00  0.00    +0.000 A 
ATOM     18  C   UNL     1       6.650  14.789  17.732  0.00  0.00    +0.000 A 
ATOM     19  C   UNL     1       6.107  15.443  18.849  0.00  0.00    +0.000 A 
ATOM     20  C   UNL     1       6.771  15.324  20.075  0.00  0.00    +0.000 A 
ATOM     21  C   UNL     1       8.020  14.702  20.154  0.00  0.00    +0.000 A 
ENDBRANCH   1  19
BRANCH   7  22
ATOM     22  C   UNL     1      -0.119  12.202  20.241  0.00  0.00    +0.000 A 
ATOM     23  C   UNL     1       0.138  10.981  19.607  0.00  0.00    +0.000 A 
ATOM     24  C   UNL     1      -0.002   9.777  20.304  0.00  0.00    +0.000 A 
ATOM     25  C   UNL     1      -0.291   9.782  21.672  0.00  0.00    +0.000 A 
ATOM     26  C   UNL     1      -0.417   8.495  22.432  0.00  0.00    +0.000 C 
ATOM     27  C   UNL     1      -0.424  11.007  22.335  0.00  0.00    +0.000 A 
ATOM     28  C   UNL     1      -0.353  12.208  21.624  0.00  0.00    +0.000 A 
ENDBRANCH   7  22
TORSDOF 2
ENDMDL
MODEL 7
REMARK VINA RESULT:      -7.6      5.793     10.140
REMARK  Name = 
REMARK  4 active torsions:
REMARK  status: ('A' for Active; 'I' for Inactive)
REMARK    1  A    between atoms: C_1  and  C_2
REMARK    2  A    between atoms: C_5  and  C_6
REMARK    3  A    between atoms: C_12  and  C_14
REMARK    4  A    between atoms: C_17  and  C_18
REMARK                            x       y       z     vdW  Elec       q    Type
REMARK                         _______ _______ _______ _____ _____    ______ ____
ROOT
ATOM      1  C   UNL     1       0.255  12.647  19.007  0.00  0.00    +0.000 C 
ATOM      2  O   UNL     1      -0.814  12.796  18.418  0.00  0.00    +0.000 OA
ATOM      3  N   UNL     1       1.240  13.656  19.158  0.00  0.00    +0.000 N 
ATOM      4  C   UNL     1       2.554  13.382  19.705  0.00  0.00    +0.000 C 
ATOM      5  C   UNL     1       3.661  14.082  18.976  0.00  0.00    +0.000 C 
ATOM      6  N   UNL     1       3.503  15.525  18.905  0.00  0.00    +0.000 N 
ATOM      7  C   UNL     1       4.617  16.394  19.008  0.00  0.00    +0.000 C 
ATOM      8  O   UNL     1       4.565  17.622  19.066  0.00  0.00    +0.000 OA
ATOM      9  C   UNL     1       2.134  15.968  18.699  0.00  0.00    +0.000 A 
ATOM     10  C   UNL     1       1.855  17.307  18.361  0.00  0.00    +0.000 A 
ATOM     11  C   UNL     1       0.553  17.762  18.152  0.00  0.00    +0.000 A 
ATOM     12  C   UNL     1      -0.511  16.887  18.274  0.00  0.00    +0.000 A 
ATOM     13  C   UNL     1      -0.270  15.549  18.592  0.00  0.00    +0.000 A 
ATOM     14  C   UNL     1       1.031  15.051  18.799  0.00  0.00    +0.000 A 
ENDROOT
BRANCH   1  19
ATOM     15  C   UNL     1       1.536   7.259  20.815  0.00  0.00    +0.000 C 
ATOM     16  C   UNL     1       1.167   8.631  20.335  0.00  0.00    +0.000 A 
ATOM     17  C   UNL     1       1.423   9.039  19.022  0.00  0.00    +0.000 A 
ATOM     18  C   UNL     1       1.106  10.340  18.610  0.00  0.00    +0.000 A 
ATOM     19  C   UNL     1       0.508  11.248  19.497  0.00  0.00    +0.000 A 
ATOM     20  C   UNL     1       0.162  10.797  20.776  0.00  0.00    +0.000 A 
ATOM     21  C   UNL     1       0.543   9.525  21.211  0.00  0.00    +0.000 A 
ENDBRANCH   1  19
BRANCH   7  22
ATOM     22  C   UNL     1       5.998  15.827  19.166  0.00  0.00    +0.000 A 
ATOM     23  C   UNL     1       6.611  15.623  20.408  0.00  0.00    +0.000 A 
ATOM     24  C   UNL     1       7.958  15.261  20.482  0.00  0.00    +0.000 A 
ATOM     25  C   UNL     1       8.683  14.989  19.317  0.00  0.00    +0.000 A 
ATOM     26  C   UNL     1      10.122  14.575  19.390  0.00  0.00    +0.000 C 
ATOM     27  C   UNL     1       8.035  15.070  18.079  0.00  0.00    +0.000 A 
ATOM     28  C   UNL     1       6.707  15.500  18.002  0.00  0.00    +0.000 A 
ENDBRANCH   7  22
TORSDOF 2
ENDMDL
MODEL 8
REMARK VINA RESULT:      -7.5      7.417     10.995
REMARK  Name = 
REMARK  4 active torsions:
REMARK  status: ('A' for Active; 'I' for Inactive)
REMARK    1  A    between atoms: C_1  and  C_2
REMARK    2  A    between atoms: C_5  and  C_6
REMARK    3  A    between atoms: C_12  and  C_14
REMARK    4  A    between atoms: C_17  and  C_18
REMARK                            x       y       z     vdW  Elec       q    Type
REMARK                         _______ _______ _______ _____ _____    ______ ____
ROOT
ATOM      1  C   UNL     1      -0.410  13.705  19.783  0.00  0.00    +0.000 C 
ATOM      2  O   UNL     1      -1.458  13.910  19.173  0.00  0.00    +0.000 OA
ATOM      3  N   UNL     1       0.783  14.452  19.611  0.00  0.00    +0.000 N 
ATOM      4  C   UNL     1       2.038  14.061  20.222  0.00  0.00    +0.000 C 
ATOM      5  C   UNL     1       3.219  14.224  19.312  0.00  0.00    +0.000 C 
ATOM      6  N   UNL     1       3.382  15.570  18.788  0.00  0.00    +0.000 N 
ATOM      7  C   UNL     1       4.665  16.144  18.615  0.00  0.00    +0.000 C 
ATOM      8  O   UNL     1       4.891  17.306  18.281  0.00  0.00    +0.000 OA
ATOM      9  C   UNL     1       2.134  16.234  18.448  0.00  0.00    +0.000 A 
ATOM     10  C   UNL     1       2.137  17.430  17.702  0.00  0.00    +0.000 A 
ATOM     11  C   UNL     1       0.957  18.089  17.355  0.00  0.00    +0.000 A 
ATOM     12  C   UNL     1      -0.263  17.567  17.744  0.00  0.00    +0.000 A 
ATOM     13  C   UNL     1      -0.304  16.376  18.470  0.00  0.00    +0.000 A 
ATOM     14  C   UNL     1       0.864  15.677  18.829  0.00  0.00    +0.000 A 
ENDROOT
BRANCH   1  19
ATOM     15  C   UNL     1      -0.217   9.034  23.260  0.00  0.00    +0.000 C 
ATOM     16  C   UNL     1      -0.306  10.222  22.349  0.00  0.00    +0.000 A 
ATOM     17  C   UNL     1       0.184  10.176  21.040  0.00  0.00    +0.000 A 
ATOM     18  C   UNL     1       0.127  11.312  20.222  0.00  0.00    +0.000 A 
ATOM     19  C   UNL     1      -0.441  12.507  20.691  0.00  0.00    +0.000 A 
ATOM     20  C   UNL     1      -1.020  12.511  21.965  0.00  0.00    +0.000 A 
ATOM     21  C   UNL     1      -0.898  11.402  22.808  0.00  0.00    +0.000 A 
ENDBRANCH   1  19
BRANCH   7  22
ATOM     22  C   UNL     1       5.893  15.347  18.950  0.00  0.00    +0.000 A 
ATOM     23  C   UNL     1       6.418  15.247  20.243  0.00  0.00    +0.000 A 
ATOM     24  C   UNL     1       7.659  14.640  20.458  0.00  0.00    +0.000 A 
ATOM     25  C   UNL     1       8.339  14.026  19.401  0.00  0.00    +0.000 A 
ATOM     26  C   UNL     1       9.658  13.351  19.630  0.00  0.00    +0.000 C 
ATOM     27  C   UNL     1       7.754  14.017  18.130  0.00  0.00    +0.000 A 
ATOM     28  C   UNL     1       6.547  14.684  17.902  0.00  0.00    +0.000 A 
ENDBRANCH   7  22
TORSDOF 2
ENDMDL
MODEL 9
REMARK VINA RESULT:      -7.4      8.472     10.011
REMARK  Name = 
REMARK  4 active torsions:
REMARK  status: ('A' for Active; 'I' for Inactive)
REMARK    1  A    between atoms: C_1  and  C_2
REMARK    2  A    between atoms: C_5  and  C_6
REMARK    3  A    between atoms: C_12  and  C_14
REMARK    4  A    between atoms: C_17  and  C_18
REMARK                            x       y       z     vdW  Elec       q    Type
REMARK                         _______ _______ _______ _____ _____    ______ ____
ROOT
ATOM      1  C   UNL     1      -3.990  11.930  19.318  0.00  0.00    +0.000 C 
ATOM      2  O   UNL     1      -5.180  11.953  19.628  0.00  0.00    +0.000 OA
ATOM      3  N   UNL     1      -2.947  12.516  20.079  0.00  0.00    +0.000 N 
ATOM      4  C   UNL     1      -1.588  12.615  19.585  0.00  0.00    +0.000 C 
ATOM      5  C   UNL     1      -0.936  13.929  19.896  0.00  0.00    +0.000 C 
ATOM      6  N   UNL     1      -0.918  14.261  21.311  0.00  0.00    +0.000 N 
ATOM      7  C   UNL     1       0.191  14.916  21.900  0.00  0.00    +0.000 C 
ATOM      8  O   UNL     1       0.336  15.138  23.102  0.00  0.00    +0.000 OA
ATOM      9  C   UNL     1      -2.126  13.888  22.028  0.00  0.00    +0.000 A 
ATOM     10  C   UNL     1      -2.362  14.363  23.333  0.00  0.00    +0.000 A 
ATOM     11  C   UNL     1      -3.514  14.027  24.046  0.00  0.00    +0.000 A 
ATOM     12  C   UNL     1      -4.465  13.205  23.471  0.00  0.00    +0.000 A 
ATOM     13  C   UNL     1      -4.271  12.729  22.173  0.00  0.00    +0.000 A 
ATOM     14  C   UNL     1      -3.128  13.055  21.419  0.00  0.00    +0.000 A 
ENDROOT
BRANCH   1  19
ATOM     15  C   UNL     1      -2.848   9.778  14.026  0.00  0.00    +0.000 C 
ATOM     16  C   UNL     1      -3.173  10.301  15.394  0.00  0.00    +0.000 A 
ATOM     17  C   UNL     1      -4.191  11.238  15.594  0.00  0.00    +0.000 A 
ATOM     18  C   UNL     1      -4.448  11.742  16.876  0.00  0.00    +0.000 A 
ATOM     19  C   UNL     1      -3.706  11.299  17.982  0.00  0.00    +0.000 A 
ATOM     20  C   UNL     1      -2.760  10.287  17.786  0.00  0.00    +0.000 A 
ATOM     21  C   UNL     1      -2.453   9.837  16.499  0.00  0.00    +0.000 A 
ENDBRANCH   1  19
BRANCH   7  22
ATOM     22  C   UNL     1       1.368  15.305  21.054  0.00  0.00    +0.000 A 
ATOM     23  C   UNL     1       1.441  16.506  20.339  0.00  0.00    +0.000 A 
ATOM     24  C   UNL     1       2.481  16.730  19.433  0.00  0.00    +0.000 A 
ATOM     25  C   UNL     1       3.522  15.805  19.310  0.00  0.00    +0.000 A 
ATOM     26  C   UNL     1       4.655  16.050  18.358  0.00  0.00    +0.000 C 
ATOM     27  C   UNL     1       3.516  14.662  20.117  0.00  0.00    +0.000 A 
ATOM     28  C   UNL     1       2.441  14.406  20.972  0.00  0.00    +0.000 A 
ENDBRANCH   7  22
TORSDOF 2
ENDMDL
