MODEL 1
REMARK VINA RESULT:      -8.0      0.000      0.000
REMARK  Name = 
REMARK  3 active torsions:
REMARK  status: ('A' for Active; 'I' for Inactive)
REMARK    1  A    between atoms: C_2  and  C_3
REMARK    2  A    between atoms: C_12  and  N_13
REMARK    3  A    between atoms: N_16  and  C_17
REMARK                            x       y       z     vdW  Elec       q    Type
REMARK                         _______ _______ _______ _____ _____    ______ ____
ROOT
ATOM      1  O   UNL     1       4.654   2.227  19.630  0.00  0.00    +0.000 OA
ATOM      2  C   UNL     1       4.495   3.365  19.200  0.00  0.00    +0.000 C 
ATOM      3  N   UNL     1       3.488   4.215  19.691  0.00  0.00    +0.000 N 
ATOM      4  C   UNL     1       2.613   3.742  20.758  0.00  0.00    +0.000 C 
ATOM      5  C   UNL     1       1.220   4.329  20.570  0.00  0.00    +0.000 C 
ATOM      6  C   UNL     1       1.249   5.864  20.543  0.00  0.00    +0.000 C 
ATOM      7  C   UNL     1       2.299   6.429  19.559  0.00  0.00    +0.000 C 
ATOM      8  C   UNL     1       3.626   5.661  19.648  0.00  0.00    +0.000 C 
ENDROOT
BRANCH   7   9
ATOM      9  N   UNL     1       2.429   7.901  19.645  0.00  0.00    +0.000 NA
ATOM     10  C   UNL     1       2.384   8.668  18.380  0.00  0.00    +0.000 C 
ATOM     11  C   UNL     1       0.996   9.080  17.837  0.00  0.00    +0.000 C 
ATOM     12  N   UNL     1       0.205   9.730  18.889  0.00  0.00    +0.000 N 
ATOM     13  C   UNL     1       0.108   8.958  20.139  0.00  0.00    +0.000 C 
ATOM     14  C   UNL     1       1.516   8.535  20.633  0.00  0.00    +0.000 C 
BRANCH  12  15
ATOM     15  C   UNL     1      -0.984  10.368  18.521  0.00  0.00    +0.000 A 
ATOM     16  C   UNL     1      -1.604  11.360  19.298  0.00  0.00    +0.000 A 
ATOM     17  C   UNL     1      -2.826  11.913  18.904  0.00  0.00    +0.000 A 
ATOM     18  C   UNL     1      -3.435  11.475  17.738  0.00  0.00    +0.000 A 
ATOM     19  F   UNL     1      -4.619  11.992  17.375  0.00  0.00    +0.000 F 
ATOM     20  C   UNL     1      -2.835  10.513  16.942  0.00  0.00    +0.000 A 
ATOM     21  C   UNL     1      -1.611   9.969  17.334  0.00  0.00    +0.000 A 
ENDBRANCH  12  15
ENDBRANCH   7   9
BRANCH   2  22
ATOM     22  C   UNL     1       5.395   3.915  18.167  0.00  0.00    +0.000 A 
ATOM     23  C   UNL     1       5.044   3.986  16.824  0.00  0.00    +0.000 A 
ATOM     24  S   UNL     1       6.373   4.525  15.886  0.00  0.00    +0.000 S 
ATOM     25  C   UNL     1       7.294   4.704  17.318  0.00  0.00    +0.000 A 
ATOM     26  N   UNL     1       6.681   4.385  18.434  0.00  0.00    +0.000 NA
ENDBRANCH   2  22
TORSDOF 3
ENDMDL
MODEL 2
REMARK VINA RESULT:      -7.4      0.713      1.282
REMARK  Name = 
REMARK  3 active torsions:
REMARK  status: ('A' for Active; 'I' for Inactive)
REMARK    1  A    between atoms: C_2  and  C_3
REMARK    2  A    between atoms: C_12  and  N_13
REMARK    3  A    between atoms: N_16  and  C_17
REMARK                            x       y       z     vdW  Elec       q    Type
REMARK                         _______ _______ _______ _____ _____    ______ ____
ROOT
ATOM      1  O   UNL     1       4.761   2.378  19.364  0.00  0.00    +0.000 OA
ATOM      2  C   UNL     1       4.498   3.500  18.944  0.00  0.00    +0.000 C 
ATOM      3  N   UNL     1       3.533   4.319  19.558  0.00  0.00    +0.000 N 
ATOM      4  C   UNL     1       2.833   3.834  20.742  0.00  0.00    +0.000 C 
ATOM      5  C   UNL     1       1.404   4.362  20.739  0.00  0.00    +0.000 C 
ATOM      6  C   UNL     1       1.365   5.896  20.687  0.00  0.00    +0.000 C 
ATOM      7  C   UNL     1       2.246   6.482  19.559  0.00  0.00    +0.000 C 
ATOM      8  C   UNL     1       3.604   5.768  19.476  0.00  0.00    +0.000 C 
ENDROOT
BRANCH   7   9
ATOM      9  N   UNL     1       2.325   7.960  19.606  0.00  0.00    +0.000 NA
ATOM     10  C   UNL     1       2.262   8.690  18.320  0.00  0.00    +0.000 C 
ATOM     11  C   UNL     1       0.863   9.040  17.759  0.00  0.00    +0.000 C 
ATOM     12  N   UNL     1       0.045   9.690  18.790  0.00  0.00    +0.000 N 
ATOM     13  C   UNL     1      -0.033   8.950  20.060  0.00  0.00    +0.000 C 
ATOM     14  C   UNL     1       1.386   8.589  20.572  0.00  0.00    +0.000 C 
BRANCH  12  15
ATOM     15  C   UNL     1      -1.164  10.278  18.399  0.00  0.00    +0.000 A 
ATOM     16  C   UNL     1      -1.862   9.915  17.236  0.00  0.00    +0.000 A 
ATOM     17  C   UNL     1      -3.032  10.587  16.870  0.00  0.00    +0.000 A 
ATOM     18  C   UNL     1      -3.506  11.623  17.659  0.00  0.00    +0.000 A 
ATOM     19  F   UNL     1      -4.617  12.281  17.292  0.00  0.00    +0.000 F 
ATOM     20  C   UNL     1      -2.848  11.987  18.823  0.00  0.00    +0.000 A 
ATOM     21  C   UNL     1      -1.685  11.310  19.191  0.00  0.00    +0.000 A 
ENDBRANCH  12  15
ENDBRANCH   7   9
BRANCH   2  22
ATOM     22  C   UNL     1       5.223   4.065  17.789  0.00  0.00    +0.000 A 
ATOM     23  C   UNL     1       6.473   4.659  17.903  0.00  0.00    +0.000 A 
ATOM     24  S   UNL     1       6.949   5.345  16.406  0.00  0.00    +0.000 S 
ATOM     25  C   UNL     1       5.514   4.745  15.690  0.00  0.00    +0.000 A 
ATOM     26  N   UNL     1       4.713   4.080  16.490  0.00  0.00    +0.000 NA
ENDBRANCH   2  22
TORSDOF 3
ENDMDL
MODEL 3
REMARK VINA RESULT:      -7.2      5.291      9.481
REMARK  Name = 
REMARK  3 active torsions:
REMARK  status: ('A' for Active; 'I' for Inactive)
REMARK    1  A    between atoms: C_2  and  C_3
REMARK    2  A    between atoms: C_12  and  N_13
REMARK    3  A    between atoms: N_16  and  C_17
REMARK                            x       y       z     vdW  Elec       q    Type
REMARK                         _______ _______ _______ _____ _____    ______ ____
ROOT
ATOM      1  O   UNL     1      -4.850  13.173  19.592  0.00  0.00    +0.000 OA
ATOM      2  C   UNL     1      -3.843  12.712  20.119  0.00  0.00    +0.000 C 
ATOM      3  N   UNL     1      -2.946  11.886  19.417  0.00  0.00    +0.000 N 
ATOM      4  C   UNL     1      -3.207  11.579  18.015  0.00  0.00    +0.000 C 
ATOM      5  C   UNL     1      -2.731  10.164  17.709  0.00  0.00    +0.000 C 
ATOM      6  C   UNL     1      -1.240   9.984  18.027  0.00  0.00    +0.000 C 
ATOM      7  C   UNL     1      -0.865  10.471  19.446  0.00  0.00    +0.000 C 
ATOM      8  C   UNL     1      -1.541  11.810  19.779  0.00  0.00    +0.000 C 
ENDROOT
BRANCH   7   9
ATOM      9  N   UNL     1       0.595  10.436  19.694  0.00  0.00    +0.000 NA
ATOM     10  C   UNL     1       1.110   9.380  20.595  0.00  0.00    +0.000 C 
ATOM     11  C   UNL     1       1.442   8.003  19.974  0.00  0.00    +0.000 C 
ATOM     12  N   UNL     1       2.295   8.166  18.790  0.00  0.00    +0.000 N 
ATOM     13  C   UNL     1       1.775   9.116  17.793  0.00  0.00    +0.000 C 
ATOM     14  C   UNL     1       1.422  10.472  18.460  0.00  0.00    +0.000 C 
BRANCH  12  15
ATOM     15  C   UNL     1       2.879   7.022  18.235  0.00  0.00    +0.000 A 
ATOM     16  C   UNL     1       2.433   5.717  18.501  0.00  0.00    +0.000 A 
ATOM     17  C   UNL     1       3.101   4.613  17.963  0.00  0.00    +0.000 A 
ATOM     18  C   UNL     1       4.217   4.807  17.164  0.00  0.00    +0.000 A 
ATOM     19  F   UNL     1       4.870   3.744  16.669  0.00  0.00    +0.000 F 
ATOM     20  C   UNL     1       4.666   6.084  16.869  0.00  0.00    +0.000 A 
ATOM     21  C   UNL     1       3.992   7.184  17.400  0.00  0.00    +0.000 A 
ENDBRANCH  12  15
ENDBRANCH   7   9
BRANCH   2  22
ATOM     22  C   UNL     1      -3.498  13.045  21.515  0.00  0.00    +0.000 A 
ATOM     23  C   UNL     1      -2.768  14.175  21.861  0.00  0.00    +0.000 A 
ATOM     24  S   UNL     1      -2.413  14.169  23.538  0.00  0.00    +0.000 S 
ATOM     25  C   UNL     1      -3.312  12.721  23.708  0.00  0.00    +0.000 A 
ATOM     26  N   UNL     1      -3.845  12.248  22.606  0.00  0.00    +0.000 NA
ENDBRANCH   2  22
TORSDOF 3
ENDMDL
MODEL 4
REMARK VINA RESULT:      -7.1      1.002      1.134
REMARK  Name = 
REMARK  3 active torsions:
REMARK  status: ('A' for Active; 'I' for Inactive)
REMARK    1  A    between atoms: C_2  and  C_3
REMARK    2  A    between atoms: C_12  and  N_13
REMARK    3  A    between atoms: N_16  and  C_17
REMARK                            x       y       z     vdW  Elec       q    Type
REMARK                         _______ _______ _______ _____ _____    ______ ____
ROOT
ATOM      1  O   UNL     1       4.250   2.186  18.617  0.00  0.00    +0.000 OA
ATOM      2  C   UNL     1       4.107   3.379  18.371  0.00  0.00    +0.000 C 
ATOM      3  N   UNL     1       3.190   4.181  19.075  0.00  0.00    +0.000 N 
ATOM      4  C   UNL     1       2.395   3.586  20.144  0.00  0.00    +0.000 C 
ATOM      5  C   UNL     1       1.020   4.242  20.178  0.00  0.00    +0.000 C 
ATOM      6  C   UNL     1       1.119   5.762  20.369  0.00  0.00    +0.000 C 
ATOM      7  C   UNL     1       2.100   6.430  19.377  0.00  0.00    +0.000 C 
ATOM      8  C   UNL     1       3.392   5.612  19.226  0.00  0.00    +0.000 C 
ENDROOT
BRANCH   7   9
ATOM      9  N   UNL     1       2.308   7.868  19.661  0.00  0.00    +0.000 NA
ATOM     10  C   UNL     1       2.211   8.810  18.523  0.00  0.00    +0.000 C 
ATOM     11  C   UNL     1       0.810   9.349  18.152  0.00  0.00    +0.000 C 
ATOM     12  N   UNL     1       0.127   9.869  19.343  0.00  0.00    +0.000 N 
ATOM     13  C   UNL     1       0.081   8.930  20.475  0.00  0.00    +0.000 C 
ATOM     14  C   UNL     1       1.498   8.387  20.795  0.00  0.00    +0.000 C 
BRANCH  12  15
ATOM     15  C   UNL     1      -1.053  10.599  19.161  0.00  0.00    +0.000 A 
ATOM     16  C   UNL     1      -1.433  11.676  19.979  0.00  0.00    +0.000 A 
ATOM     17  C   UNL     1      -2.656  12.322  19.782  0.00  0.00    +0.000 A 
ATOM     18  C   UNL     1      -3.506  11.894  18.774  0.00  0.00    +0.000 A 
ATOM     19  F   UNL     1      -4.690  12.502  18.602  0.00  0.00    +0.000 F 
ATOM     20  C   UNL     1      -3.146  10.848  17.939  0.00  0.00    +0.000 A 
ATOM     21  C   UNL     1      -1.921  10.210  18.132  0.00  0.00    +0.000 A 
ENDBRANCH  12  15
ENDBRANCH   7   9
BRANCH   2  22
ATOM     22  C   UNL     1       4.933   4.045  17.344  0.00  0.00    +0.000 A 
ATOM     23  C   UNL     1       6.206   4.535  17.605  0.00  0.00    +0.000 A 
ATOM     24  S   UNL     1       6.811   5.383  16.244  0.00  0.00    +0.000 S 
ATOM     25  C   UNL     1       5.390   4.980  15.378  0.00  0.00    +0.000 A 
ATOM     26  N   UNL     1       4.505   4.268  16.036  0.00  0.00    +0.000 NA
ENDBRANCH   2  22
TORSDOF 3
ENDMDL
MODEL 5
REMARK VINA RESULT:      -6.9      5.324      9.685
REMARK  Name = 
REMARK  3 active torsions:
REMARK  status: ('A' for Active; 'I' for Inactive)
REMARK    1  A    between atoms: C_2  and  C_3
REMARK    2  A    between atoms: C_12  and  N_13
REMARK    3  A    between atoms: N_16  and  C_17
REMARK                            x       y       z     vdW  Elec       q    Type
REMARK                         _______ _______ _______ _____ _____    ______ ____
ROOT
ATOM      1  O   UNL     1      -5.343  13.110  19.095  0.00  0.00    +0.000 OA
ATOM      2  C   UNL     1      -4.312  12.742  19.647  0.00  0.00    +0.000 C 
ATOM      3  N   UNL     1      -3.388  11.893  19.011  0.00  0.00    +0.000 N 
ATOM      4  C   UNL     1      -3.651  11.445  17.647  0.00  0.00    +0.000 C 
ATOM      5  C   UNL     1      -3.118  10.030  17.467  0.00  0.00    +0.000 C 
ATOM      6  C   UNL     1      -1.617   9.942  17.778  0.00  0.00    +0.000 C 
ATOM      7  C   UNL     1      -1.247  10.575  19.139  0.00  0.00    +0.000 C 
ATOM      8  C   UNL     1      -1.977  11.910  19.357  0.00  0.00    +0.000 C 
ENDROOT
BRANCH   7   9
ATOM      9  N   UNL     1       0.215  10.625  19.368  0.00  0.00    +0.000 NA
ATOM     10  C   UNL     1       0.731  10.039  20.626  0.00  0.00    +0.000 C 
ATOM     11  C   UNL     1       1.039   8.523  20.640  0.00  0.00    +0.000 C 
ATOM     12  N   UNL     1       1.877   8.159  19.492  0.00  0.00    +0.000 N 
ATOM     13  C   UNL     1       1.354   8.608  18.191  0.00  0.00    +0.000 C 
ATOM     14  C   UNL     1       1.025  10.124  18.227  0.00  0.00    +0.000 C 
BRANCH  12  15
ATOM     15  C   UNL     1       2.440   6.878  19.466  0.00  0.00    +0.000 A 
ATOM     16  C   UNL     1       3.390   6.467  18.517  0.00  0.00    +0.000 A 
ATOM     17  C   UNL     1       3.865   5.152  18.508  0.00  0.00    +0.000 A 
ATOM     18  C   UNL     1       3.392   4.244  19.442  0.00  0.00    +0.000 A 
ATOM     19  F   UNL     1       3.833   2.976  19.416  0.00  0.00    +0.000 F 
ATOM     20  C   UNL     1       2.471   4.628  20.403  0.00  0.00    +0.000 A 
ATOM     21  C   UNL     1       2.004   5.943  20.415  0.00  0.00    +0.000 A 
ENDBRANCH  12  15
ENDBRANCH   7   9
BRANCH   2  22
ATOM     22  C   UNL     1      -3.966  13.218  21.001  0.00  0.00    +0.000 A 
ATOM     23  C   UNL     1      -4.441  12.608  22.156  0.00  0.00    +0.000 A 
ATOM     24  S   UNL     1      -3.978  13.508  23.540  0.00  0.00    +0.000 S 
ATOM     25  C   UNL     1      -3.119  14.593  22.531  0.00  0.00    +0.000 A 
ATOM     26  N   UNL     1      -3.162  14.331  21.246  0.00  0.00    +0.000 NA
ENDBRANCH   2  22
TORSDOF 3
ENDMDL
MODEL 6
REMARK VINA RESULT:      -6.7      5.206      8.858
REMARK  Name = 
REMARK  3 active torsions:
REMARK  status: ('A' for Active; 'I' for Inactive)
REMARK    1  A    between atoms: C_2  and  C_3
REMARK    2  A    between atoms: C_12  and  N_13
REMARK    3  A    between atoms: N_16  and  C_17
REMARK                            x       y       z     vdW  Elec       q    Type
REMARK                         _______ _______ _______ _____ _____    ______ ____
ROOT
ATOM      1  O   UNL     1      -6.150  11.323  18.303  0.00  0.00    +0.000 OA
ATOM      2  C   UNL     1      -4.948  11.558  18.343  0.00  0.00    +0.000 C 
ATOM      3  N   UNL     1      -4.371  12.323  19.373  0.00  0.00    +0.000 N 
ATOM      4  C   UNL     1      -5.221  12.842  20.438  0.00  0.00    +0.000 C 
ATOM      5  C   UNL     1      -4.694  14.197  20.893  0.00  0.00    +0.000 C 
ATOM      6  C   UNL     1      -3.236  14.110  21.368  0.00  0.00    +0.000 C 
ATOM      7  C   UNL     1      -2.315  13.395  20.352  0.00  0.00    +0.000 C 
ATOM      8  C   UNL     1      -2.985  12.141  19.769  0.00  0.00    +0.000 C 
ENDROOT
BRANCH   7   9
ATOM      9  N   UNL     1      -0.947  13.180  20.875  0.00  0.00    +0.000 NA
ATOM     10  C   UNL     1      -0.735  12.032  21.786  0.00  0.00    +0.000 C 
ATOM     11  C   UNL     1      -0.432  10.655  21.150  0.00  0.00    +0.000 C 
ATOM     12  N   UNL     1       0.652  10.771  20.168  0.00  0.00    +0.000 N 
ATOM     13  C   UNL     1       0.444  11.819  19.155  0.00  0.00    +0.000 C 
ATOM     14  C   UNL     1       0.110  13.175  19.829  0.00  0.00    +0.000 C 
BRANCH  12  15
ATOM     15  C   UNL     1       1.212   9.593  19.660  0.00  0.00    +0.000 A 
ATOM     16  C   UNL     1       1.478   8.460  20.446  0.00  0.00    +0.000 A 
ATOM     17  C   UNL     1       2.097   7.337  19.890  0.00  0.00    +0.000 A 
ATOM     18  C   UNL     1       2.456   7.343  18.550  0.00  0.00    +0.000 A 
ATOM     19  F   UNL     1       3.071   6.272  18.025  0.00  0.00    +0.000 F 
ATOM     20  C   UNL     1       2.186   8.439  17.748  0.00  0.00    +0.000 A 
ATOM     21  C   UNL     1       1.560   9.555  18.304  0.00  0.00    +0.000 A 
ENDBRANCH  12  15
ENDBRANCH   7   9
BRANCH   2  22
ATOM     22  C   UNL     1      -4.034  11.002  17.326  0.00  0.00    +0.000 A 
ATOM     23  C   UNL     1      -4.128  11.318  15.976  0.00  0.00    +0.000 A 
ATOM     24  S   UNL     1      -3.023  10.379  15.062  0.00  0.00    +0.000 S 
ATOM     25  C   UNL     1      -2.440   9.679  16.513  0.00  0.00    +0.000 A 
ATOM     26  N   UNL     1      -3.016  10.093  17.617  0.00  0.00    +0.000 NA
ENDBRANCH   2  22
TORSDOF 3
ENDMDL
MODEL 7
REMARK VINA RESULT:      -6.6      5.479      9.945
REMARK  Name = 
REMARK  3 active torsions:
REMARK  status: ('A' for Active; 'I' for Inactive)
REMARK    1  A    between atoms: C_2  and  C_3
REMARK    2  A    between atoms: C_12  and  N_13
REMARK    3  A    between atoms: N_16  and  C_17
REMARK                            x       y       z     vdW  Elec       q    Type
REMARK                         _______ _______ _______ _____ _____    ______ ____
ROOT
ATOM      1  O   UNL     1      -6.288  12.517  17.370  0.00  0.00    +0.000 OA
ATOM      2  C   UNL     1      -5.411  12.270  18.191  0.00  0.00    +0.000 C 
ATOM      3  N   UNL     1      -4.221  11.610  17.836  0.00  0.00    +0.000 N 
ATOM      4  C   UNL     1      -4.008  11.220  16.446  0.00  0.00    +0.000 C 
ATOM      5  C   UNL     1      -3.226   9.914  16.400  0.00  0.00    +0.000 C 
ATOM      6  C   UNL     1      -1.882  10.029  17.134  0.00  0.00    +0.000 C 
ATOM      7  C   UNL     1      -2.023  10.617  18.557  0.00  0.00    +0.000 C 
ATOM      8  C   UNL     1      -2.989  11.812  18.580  0.00  0.00    +0.000 C 
ENDROOT
BRANCH   7   9
ATOM      9  N   UNL     1      -0.715  10.867  19.204  0.00  0.00    +0.000 NA
ATOM     10  C   UNL     1      -0.366  10.043  20.383  0.00  0.00    +0.000 C 
ATOM     11  C   UNL     1       0.310   8.675  20.130  0.00  0.00    +0.000 C 
ATOM     12  N   UNL     1       1.452   8.827  19.220  0.00  0.00    +0.000 N 
ATOM     13  C   UNL     1       1.141   9.535  17.968  0.00  0.00    +0.000 C 
ATOM     14  C   UNL     1       0.435  10.884  18.262  0.00  0.00    +0.000 C 
BRANCH  12  15
ATOM     15  C   UNL     1       2.316   7.738  19.058  0.00  0.00    +0.000 A 
ATOM     16  C   UNL     1       3.189   7.596  17.968  0.00  0.00    +0.000 A 
ATOM     17  C   UNL     1       3.980   6.451  17.833  0.00  0.00    +0.000 A 
ATOM     18  C   UNL     1       3.900   5.444  18.783  0.00  0.00    +0.000 A 
ATOM     19  F   UNL     1       4.644   4.336  18.639  0.00  0.00    +0.000 F 
ATOM     20  C   UNL     1       3.063   5.568  19.880  0.00  0.00    +0.000 A 
ATOM     21  C   UNL     1       2.280   6.715  20.016  0.00  0.00    +0.000 A 
ENDBRANCH  12  15
ENDBRANCH   7   9
BRANCH   2  22
ATOM     22  C   UNL     1      -5.547  12.701  19.596  0.00  0.00    +0.000 A 
ATOM     23  C   UNL     1      -6.122  11.901  20.576  0.00  0.00    +0.000 A 
ATOM     24  S   UNL     1      -6.265  12.767  22.048  0.00  0.00    +0.000 S 
ATOM     25  C   UNL     1      -5.489  14.108  21.319  0.00  0.00    +0.000 A 
ATOM     26  N   UNL     1      -5.142  13.952  20.063  0.00  0.00    +0.000 NA
ENDBRANCH   2  22
TORSDOF 3
ENDMDL
MODEL 8
REMARK VINA RESULT:      -6.6      0.999      1.468
REMARK  Name = 
REMARK  3 active torsions:
REMARK  status: ('A' for Active; 'I' for Inactive)
REMARK    1  A    between atoms: C_2  and  C_3
REMARK    2  A    between atoms: C_12  and  N_13
REMARK    3  A    between atoms: N_16  and  C_17
REMARK                            x       y       z     vdW  Elec       q    Type
REMARK                         _______ _______ _______ _____ _____    ______ ____
ROOT
ATOM      1  O   UNL     1       4.072   1.965  18.462  0.00  0.00    +0.000 OA
ATOM      2  C   UNL     1       3.971   3.176  18.303  0.00  0.00    +0.000 C 
ATOM      3  N   UNL     1       3.100   3.961  19.080  0.00  0.00    +0.000 N 
ATOM      4  C   UNL     1       2.301   3.323  20.121  0.00  0.00    +0.000 C 
ATOM      5  C   UNL     1       0.954   4.025  20.229  0.00  0.00    +0.000 C 
ATOM      6  C   UNL     1       1.116   5.524  20.523  0.00  0.00    +0.000 C 
ATOM      7  C   UNL     1       2.104   6.222  19.560  0.00  0.00    +0.000 C 
ATOM      8  C   UNL     1       3.360   5.369  19.326  0.00  0.00    +0.000 C 
ENDROOT
BRANCH   7   9
ATOM      9  N   UNL     1       2.372   7.628  19.939  0.00  0.00    +0.000 NA
ATOM     10  C   UNL     1       2.310   8.649  18.868  0.00  0.00    +0.000 C 
ATOM     11  C   UNL     1       0.931   9.269  18.544  0.00  0.00    +0.000 C 
ATOM     12  N   UNL     1       0.276   9.735  19.772  0.00  0.00    +0.000 N 
ATOM     13  C   UNL     1       0.196   8.723  20.839  0.00  0.00    +0.000 C 
ATOM     14  C   UNL     1       1.590   8.102  21.111  0.00  0.00    +0.000 C 
BRANCH  12  15
ATOM     15  C   UNL     1      -0.873  10.524  19.649  0.00  0.00    +0.000 A 
ATOM     16  C   UNL     1      -1.720  10.489  18.530  0.00  0.00    +0.000 A 
ATOM     17  C   UNL     1      -2.818  11.350  18.441  0.00  0.00    +0.000 A 
ATOM     18  C   UNL     1      -3.071  12.250  19.465  0.00  0.00    +0.000 A 
ATOM     19  F   UNL     1      -4.113  13.091  19.366  0.00  0.00    +0.000 F 
ATOM     20  C   UNL     1      -2.264  12.290  20.590  0.00  0.00    +0.000 A 
ATOM     21  C   UNL     1      -1.173  11.424  20.680  0.00  0.00    +0.000 A 
ENDBRANCH  12  15
ENDBRANCH   7   9
BRANCH   2  22
ATOM     22  C   UNL     1       4.804   3.881  17.308  0.00  0.00    +0.000 A 
ATOM     23  C   UNL     1       4.369   4.147  16.016  0.00  0.00    +0.000 A 
ATOM     24  S   UNL     1       5.636   4.830  15.086  0.00  0.00    +0.000 S 
ATOM     25  C   UNL     1       6.647   4.803  16.468  0.00  0.00    +0.000 A 
ATOM     26  N   UNL     1       6.105   4.317  17.560  0.00  0.00    +0.000 NA
ENDBRANCH   2  22
TORSDOF 3
ENDMDL
MODEL 9
REMARK VINA RESULT:      -6.3      3.279      5.420
REMARK  Name = 
REMARK  3 active torsions:
REMARK  status: ('A' for Active; 'I' for Inactive)
REMARK    1  A    between atoms: C_2  and  C_3
REMARK    2  A    between atoms: C_12  and  N_13
REMARK    3  A    between atoms: N_16  and  C_17
REMARK                            x       y       z     vdW  Elec       q    Type
REMARK                         _______ _______ _______ _____ _____    ______ ____
ROOT
ATOM      1  O   UNL     1       8.004   5.492  13.699  0.00  0.00    +0.000 OA
ATOM      2  C   UNL     1       7.095   4.805  14.151  0.00  0.00    +0.000 C 
ATOM      3  N   UNL     1       6.771   4.803  15.521  0.00  0.00    +0.000 N 
ATOM      4  C   UNL     1       7.525   5.655  16.433  0.00  0.00    +0.000 C 
ATOM      5  C   UNL     1       7.653   4.963  17.784  0.00  0.00    +0.000 C 
ATOM      6  C   UNL     1       6.280   4.623  18.382  0.00  0.00    +0.000 C 
ATOM      7  C   UNL     1       5.360   3.878  17.388  0.00  0.00    +0.000 C 
ATOM      8  C   UNL     1       5.428   4.497  15.983  0.00  0.00    +0.000 C 
ENDROOT
BRANCH   7   9
ATOM      9  N   UNL     1       3.989   3.685  17.913  0.00  0.00    +0.000 NA
ATOM     10  C   UNL     1       3.789   3.826  19.373  0.00  0.00    +0.000 C 
ATOM     11  C   UNL     1       3.527   5.245  19.930  0.00  0.00    +0.000 C 
ATOM     12  N   UNL     1       2.455   5.903  19.173  0.00  0.00    +0.000 N 
ATOM     13  C   UNL     1       2.656   5.906  17.715  0.00  0.00    +0.000 C 
ATOM     14  C   UNL     1       2.949   4.473  17.199  0.00  0.00    +0.000 C 
BRANCH  12  15
ATOM     15  C   UNL     1       1.931   7.099  19.677  0.00  0.00    +0.000 A 
ATOM     16  C   UNL     1       1.409   7.231  20.974  0.00  0.00    +0.000 A 
ATOM     17  C   UNL     1       0.841   8.438  21.393  0.00  0.00    +0.000 A 
ATOM     18  C   UNL     1       0.788   9.513  20.519  0.00  0.00    +0.000 A 
ATOM     19  F   UNL     1       0.221  10.663  20.918  0.00  0.00    +0.000 F 
ATOM     20  C   UNL     1       1.315   9.416  19.242  0.00  0.00    +0.000 A 
ATOM     21  C   UNL     1       1.888   8.214  18.829  0.00  0.00    +0.000 A 
ENDBRANCH  12  15
ENDBRANCH   7   9
BRANCH   2  22
ATOM     22  C   UNL     1       6.259   3.975  13.262  0.00  0.00    +0.000 A 
ATOM     23  C   UNL     1       6.779   2.947  12.484  0.00  0.00    +0.000 A 
ATOM     24  S   UNL     1       5.567   2.301  11.459  0.00  0.00    +0.000 S 
ATOM     25  C   UNL     1       4.423   3.363  12.164  0.00  0.00    +0.000 A 
ATOM     26  N   UNL     1       4.886   4.160  13.098  0.00  0.00    +0.000 NA
ENDBRANCH   2  22
TORSDOF 3
ENDMDL
