MODEL 1
REMARK VINA RESULT:      -6.5      0.000      0.000
REMARK  Name = 
REMARK  7 active torsions:
REMARK  status: ('A' for Active; 'I' for Inactive)
REMARK    1  A    between atoms: C_1  and  C_2
REMARK    2  A    between atoms: N_6  and  C_7
REMARK    3  A    between atoms: N_10  and  C_11
REMARK    4  A    between atoms: C_15  and  C_16
REMARK    5  A    between atoms: C_20  and  C_21
REMARK    6  A    between atoms: C_21  and  C_22
REMARK    7  A    between atoms: C_21  and  C_23
REMARK                            x       y       z     vdW  Elec       q    Type
REMARK                         _______ _______ _______ _____ _____    ______ ____
ROOT
ATOM      1  C   UNL     1      -1.308  11.979  22.150  0.00  0.00    +0.000 C 
ATOM      2  C   UNL     1      -0.502  10.768  21.810  0.00  0.00    +0.000 A 
ATOM      3  C   UNL     1       0.027  10.006  22.839  0.00  0.00    +0.000 A 
ATOM      4  N   UNL     1       0.784   8.914  22.663  0.00  0.00    +0.000 NA
ATOM      5  C   UNL     1       1.043   8.558  21.401  0.00  0.00    +0.000 A 
ATOM      6  N   UNL     1       1.833   7.432  21.272  0.00  0.00    +0.000 N 
ATOM      7  N   UNL     1       0.567   9.206  20.333  0.00  0.00    +0.000 NA
ATOM      8  C   UNL     1      -0.215  10.293  20.538  0.00  0.00    +0.000 A 
ATOM      9  H   UNL     1       1.799   6.939  22.157  0.00  0.00    +0.000 HD
ENDROOT
BRANCH   6  10
ATOM     10  C   UNL     1       1.722   6.613  20.069  0.00  0.00    +0.000 C 
ATOM     11  C   UNL     1       1.538   5.126  20.395  0.00  0.00    +0.000 C 
ATOM     12  C   UNL     1       1.576   4.283  19.125  0.00  0.00    +0.000 C 
ATOM     13  N   UNL     1       2.839   4.484  18.405  0.00  0.00    +0.000 NA
ATOM     14  C   UNL     1       2.921   3.598  17.246  0.00  0.00    +0.000 C 
ATOM     15  C   UNL     1       2.995   5.888  18.004  0.00  0.00    +0.000 C 
ATOM     16  C   UNL     1       2.999   6.799  19.232  0.00  0.00    +0.000 C 
ENDBRANCH   6  10
BRANCH   8  17
ATOM     17  C   UNL     1      -0.745  10.890  19.308  0.00  0.00    +0.000 A 
ATOM     18  C   UNL     1      -1.615  10.262  18.438  0.00  0.00    +0.000 A 
ATOM     19  N   UNL     1      -1.843  11.119  17.407  0.00  0.00    +0.000 N 
ATOM     20  N   UNL     1      -1.157  12.256  17.503  0.00  0.00    +0.000 NA
ATOM     21  C   UNL     1      -0.446  12.124  18.638  0.00  0.00    +0.000 A 
ATOM     22  H   UNL     1      -2.438  10.983  16.597  0.00  0.00    +0.000 HD
BRANCH  21  23
ATOM     23  C   UNL     1       0.515  13.225  19.008  0.00  0.00    +0.000 C 
ATOM     24  C   UNL     1       1.820  13.102  18.210  0.00  0.00    +0.000 C 
ATOM     25  C   UNL     1      -0.107  14.612  18.804  0.00  0.00    +0.000 C 
ENDBRANCH  21  23
ENDBRANCH   8  17
TORSDOF 3
ENDMDL
MODEL 2
REMARK VINA RESULT:      -6.4      2.861      7.904
REMARK  Name = 
REMARK  7 active torsions:
REMARK  status: ('A' for Active; 'I' for Inactive)
REMARK    1  A    between atoms: C_1  and  C_2
REMARK    2  A    between atoms: N_6  and  C_7
REMARK    3  A    between atoms: N_10  and  C_11
REMARK    4  A    between atoms: C_15  and  C_16
REMARK    5  A    between atoms: C_20  and  C_21
REMARK    6  A    between atoms: C_21  and  C_22
REMARK    7  A    between atoms: C_21  and  C_23
REMARK                            x       y       z     vdW  Elec       q    Type
REMARK                         _______ _______ _______ _____ _____    ______ ____
ROOT
ATOM      1  C   UNL     1       4.750   2.241  20.019  0.00  0.00    +0.000 C 
ATOM      2  C   UNL     1       3.929   3.485  19.911  0.00  0.00    +0.000 A 
ATOM      3  C   UNL     1       2.649   3.490  20.441  0.00  0.00    +0.000 A 
ATOM      4  N   UNL     1       1.810   4.534  20.386  0.00  0.00    +0.000 NA
ATOM      5  C   UNL     1       2.253   5.632  19.766  0.00  0.00    +0.000 A 
ATOM      6  N   UNL     1       1.349   6.676  19.729  0.00  0.00    +0.000 N 
ATOM      7  N   UNL     1       3.476   5.746  19.239  0.00  0.00    +0.000 NA
ATOM      8  C   UNL     1       4.314   4.684  19.327  0.00  0.00    +0.000 A 
ATOM      9  H   UNL     1       0.653   6.495  20.444  0.00  0.00    +0.000 HD
ENDROOT
BRANCH   6  10
ATOM     10  C   UNL     1       1.842   8.047  19.636  0.00  0.00    +0.000 C 
ATOM     11  C   UNL     1       1.006   9.021  20.476  0.00  0.00    +0.000 C 
ATOM     12  C   UNL     1       1.452  10.460  20.240  0.00  0.00    +0.000 C 
ATOM     13  N   UNL     1       1.348  10.810  18.819  0.00  0.00    +0.000 NA
ATOM     14  C   UNL     1       1.672  12.220  18.608  0.00  0.00    +0.000 C 
ATOM     15  C   UNL     1       2.209   9.945  18.002  0.00  0.00    +0.000 C 
ATOM     16  C   UNL     1       1.803   8.480  18.161  0.00  0.00    +0.000 C 
ENDBRANCH   6  10
BRANCH   8  17
ATOM     17  C   UNL     1       5.653   4.932  18.784  0.00  0.00    +0.000 A 
ATOM     18  C   UNL     1       6.759   5.274  19.537  0.00  0.00    +0.000 A 
ATOM     19  N   UNL     1       7.795   5.454  18.675  0.00  0.00    +0.000 N 
ATOM     20  N   UNL     1       7.453   5.298  17.398  0.00  0.00    +0.000 NA
ATOM     21  C   UNL     1       6.137   5.018  17.435  0.00  0.00    +0.000 A 
ATOM     22  H   UNL     1       8.754   5.704  18.889  0.00  0.00    +0.000 HD
BRANCH  21  23
ATOM     23  C   UNL     1       5.407   4.857  16.126  0.00  0.00    +0.000 C 
ATOM     24  C   UNL     1       5.209   6.217  15.441  0.00  0.00    +0.000 C 
ATOM     25  C   UNL     1       6.133   3.886  15.187  0.00  0.00    +0.000 C 
ENDBRANCH  21  23
ENDBRANCH   8  17
TORSDOF 3
ENDMDL
MODEL 3
REMARK VINA RESULT:      -6.3      2.800      7.411
REMARK  Name = 
REMARK  7 active torsions:
REMARK  status: ('A' for Active; 'I' for Inactive)
REMARK    1  A    between atoms: C_1  and  C_2
REMARK    2  A    between atoms: N_6  and  C_7
REMARK    3  A    between atoms: N_10  and  C_11
REMARK    4  A    between atoms: C_15  and  C_16
REMARK    5  A    between atoms: C_20  and  C_21
REMARK    6  A    between atoms: C_21  and  C_22
REMARK    7  A    between atoms: C_21  and  C_23
REMARK                            x       y       z     vdW  Elec       q    Type
REMARK                         _______ _______ _______ _____ _____    ______ ____
ROOT
ATOM      1  C   UNL     1       4.731   3.364  18.830  0.00  0.00    +0.000 C 
ATOM      2  C   UNL     1       3.862   4.514  19.225  0.00  0.00    +0.000 A 
ATOM      3  C   UNL     1       2.991   4.358  20.291  0.00  0.00    +0.000 A 
ATOM      4  N   UNL     1       2.147   5.305  20.726  0.00  0.00    +0.000 NA
ATOM      5  C   UNL     1       2.154   6.467  20.066  0.00  0.00    +0.000 A 
ATOM      6  N   UNL     1       1.263   7.407  20.546  0.00  0.00    +0.000 N 
ATOM      7  N   UNL     1       2.968   6.734  19.039  0.00  0.00    +0.000 NA
ATOM      8  C   UNL     1       3.827   5.768  18.633  0.00  0.00    +0.000 A 
ATOM      9  H   UNL     1       1.006   7.124  21.485  0.00  0.00    +0.000 HD
ENDROOT
BRANCH   6  10
ATOM     10  C   UNL     1       1.542   8.825  20.349  0.00  0.00    +0.000 C 
ATOM     11  C   UNL     1       0.780   9.709  21.345  0.00  0.00    +0.000 C 
ATOM     12  C   UNL     1       0.975  11.186  21.019  0.00  0.00    +0.000 C 
ATOM     13  N   UNL     1       0.533  11.479  19.651  0.00  0.00    +0.000 NA
ATOM     14  C   UNL     1       0.619  12.912  19.375  0.00  0.00    +0.000 C 
ATOM     15  C   UNL     1       1.310  10.708  18.673  0.00  0.00    +0.000 C 
ATOM     16  C   UNL     1       1.140   9.208  18.915  0.00  0.00    +0.000 C 
ENDBRANCH   6  10
BRANCH   8  17
ATOM     17  C   UNL     1       4.724   6.182  17.549  0.00  0.00    +0.000 A 
ATOM     18  C   UNL     1       4.333   6.413  16.245  0.00  0.00    +0.000 A 
ATOM     19  N   UNL     1       5.448   6.741  15.541  0.00  0.00    +0.000 N 
ATOM     20  N   UNL     1       6.562   6.706  16.269  0.00  0.00    +0.000 NA
ATOM     21  C   UNL     1       6.151   6.327  17.493  0.00  0.00    +0.000 A 
ATOM     22  H   UNL     1       5.524   6.978  14.558  0.00  0.00    +0.000 HD
BRANCH  21  23
ATOM     23  C   UNL     1       7.196   6.112  18.559  0.00  0.00    +0.000 C 
ATOM     24  C   UNL     1       7.926   4.778  18.346  0.00  0.00    +0.000 C 
ATOM     25  C   UNL     1       8.200   7.269  18.611  0.00  0.00    +0.000 C 
ENDBRANCH  21  23
ENDBRANCH   8  17
TORSDOF 3
ENDMDL
MODEL 4
REMARK VINA RESULT:      -6.2      2.362      7.961
REMARK  Name = 
REMARK  7 active torsions:
REMARK  status: ('A' for Active; 'I' for Inactive)
REMARK    1  A    between atoms: C_1  and  C_2
REMARK    2  A    between atoms: N_6  and  C_7
REMARK    3  A    between atoms: N_10  and  C_11
REMARK    4  A    between atoms: C_15  and  C_16
REMARK    5  A    between atoms: C_20  and  C_21
REMARK    6  A    between atoms: C_21  and  C_22
REMARK    7  A    between atoms: C_21  and  C_23
REMARK                            x       y       z     vdW  Elec       q    Type
REMARK                         _______ _______ _______ _____ _____    ______ ____
ROOT
ATOM      1  C   UNL     1       5.312   3.419  16.289  0.00  0.00    +0.000 C 
ATOM      2  C   UNL     1       4.689   4.686  16.778  0.00  0.00    +0.000 A 
ATOM      3  C   UNL     1       5.214   5.896  16.355  0.00  0.00    +0.000 A 
ATOM      4  N   UNL     1       4.759   7.097  16.740  0.00  0.00    +0.000 NA
ATOM      5  C   UNL     1       3.736   7.106  17.600  0.00  0.00    +0.000 A 
ATOM      6  N   UNL     1       3.309   8.366  17.973  0.00  0.00    +0.000 N 
ATOM      7  N   UNL     1       3.138   6.000  18.056  0.00  0.00    +0.000 NA
ATOM      8  C   UNL     1       3.602   4.799  17.634  0.00  0.00    +0.000 A 
ATOM      9  H   UNL     1       3.664   9.019  17.283  0.00  0.00    +0.000 HD
ENDROOT
BRANCH   6  10
ATOM     10  C   UNL     1       1.925   8.557  18.395  0.00  0.00    +0.000 C 
ATOM     11  C   UNL     1       1.273   9.765  17.711  0.00  0.00    +0.000 C 
ATOM     12  C   UNL     1      -0.117  10.027  18.283  0.00  0.00    +0.000 C 
ATOM     13  N   UNL     1      -0.049  10.250  19.732  0.00  0.00    +0.000 NA
ATOM     14  C   UNL     1      -1.364  10.606  20.263  0.00  0.00    +0.000 C 
ATOM     15  C   UNL     1       0.492   9.070  20.418  0.00  0.00    +0.000 C 
ATOM     16  C   UNL     1       1.903   8.760  19.920  0.00  0.00    +0.000 C 
ENDBRANCH   6  10
BRANCH   8  17
ATOM     17  C   UNL     1       2.837   3.653  18.134  0.00  0.00    +0.000 A 
ATOM     18  C   UNL     1       2.313   2.649  17.344  0.00  0.00    +0.000 A 
ATOM     19  N   UNL     1       1.646   1.795  18.165  0.00  0.00    +0.000 N 
ATOM     20  N   UNL     1       1.650   2.177  19.440  0.00  0.00    +0.000 NA
ATOM     21  C   UNL     1       2.339   3.333  19.442  0.00  0.00    +0.000 A 
ATOM     22  H   UNL     1       1.148   0.946  17.920  0.00  0.00    +0.000 HD
BRANCH  21  23
ATOM     23  C   UNL     1       2.466   4.084  20.743  0.00  0.00    +0.000 C 
ATOM     24  C   UNL     1       1.500   5.277  20.782  0.00  0.00    +0.000 C 
ATOM     25  C   UNL     1       2.233   3.169  21.951  0.00  0.00    +0.000 C 
ENDBRANCH  21  23
ENDBRANCH   8  17
TORSDOF 3
ENDMDL
MODEL 5
REMARK VINA RESULT:      -6.2      2.606      7.477
REMARK  Name = 
REMARK  7 active torsions:
REMARK  status: ('A' for Active; 'I' for Inactive)
REMARK    1  A    between atoms: C_1  and  C_2
REMARK    2  A    between atoms: N_6  and  C_7
REMARK    3  A    between atoms: N_10  and  C_11
REMARK    4  A    between atoms: C_15  and  C_16
REMARK    5  A    between atoms: C_20  and  C_21
REMARK    6  A    between atoms: C_21  and  C_22
REMARK    7  A    between atoms: C_21  and  C_23
REMARK                            x       y       z     vdW  Elec       q    Type
REMARK                         _______ _______ _______ _____ _____    ______ ____
ROOT
ATOM      1  C   UNL     1       4.445   2.069  19.326  0.00  0.00    +0.000 C 
ATOM      2  C   UNL     1       3.706   3.330  19.637  0.00  0.00    +0.000 A 
ATOM      3  C   UNL     1       2.940   3.390  20.789  0.00  0.00    +0.000 A 
ATOM      4  N   UNL     1       2.215   4.454  21.163  0.00  0.00    +0.000 NA
ATOM      5  C   UNL     1       2.239   5.515  20.351  0.00  0.00    +0.000 A 
ATOM      6  N   UNL     1       1.471   6.582  20.776  0.00  0.00    +0.000 N 
ATOM      7  N   UNL     1       2.960   5.575  19.227  0.00  0.00    +0.000 NA
ATOM      8  C   UNL     1       3.702   4.495  18.882  0.00  0.00    +0.000 A 
ATOM      9  H   UNL     1       1.292   6.447  21.765  0.00  0.00    +0.000 HD
ENDROOT
BRANCH   6  10
ATOM     10  C   UNL     1       1.830   7.934  20.360  0.00  0.00    +0.000 C 
ATOM     11  C   UNL     1       1.015   9.002  21.099  0.00  0.00    +0.000 C 
ATOM     12  C   UNL     1       1.305  10.391  20.537  0.00  0.00    +0.000 C 
ATOM     13  N   UNL     1       1.011  10.442  19.100  0.00  0.00    +0.000 NA
ATOM     14  C   UNL     1       1.187  11.798  18.585  0.00  0.00    +0.000 C 
ATOM     15  C   UNL     1       1.845   9.486  18.361  0.00  0.00    +0.000 C 
ATOM     16  C   UNL     1       1.586   8.060  18.847  0.00  0.00    +0.000 C 
ENDBRANCH   6  10
BRANCH   8  17
ATOM     17  C   UNL     1       4.511   4.686  17.674  0.00  0.00    +0.000 A 
ATOM     18  C   UNL     1       4.330   4.004  16.487  0.00  0.00    +0.000 A 
ATOM     19  N   UNL     1       5.291   4.431  15.625  0.00  0.00    +0.000 N 
ATOM     20  N   UNL     1       6.127   5.317  16.163  0.00  0.00    +0.000 NA
ATOM     21  C   UNL     1       5.695   5.460  17.430  0.00  0.00    +0.000 A 
ATOM     22  H   UNL     1       5.447   4.144  14.665  0.00  0.00    +0.000 HD
BRANCH  21  23
ATOM     23  C   UNL     1       6.484   6.353  18.354  0.00  0.00    +0.000 C 
ATOM     24  C   UNL     1       7.239   5.523  19.402  0.00  0.00    +0.000 C 
ATOM     25  C   UNL     1       7.457   7.250  17.581  0.00  0.00    +0.000 C 
ENDBRANCH  21  23
ENDBRANCH   8  17
TORSDOF 3
ENDMDL
MODEL 6
REMARK VINA RESULT:      -6.1      2.569      8.124
REMARK  Name = 
REMARK  7 active torsions:
REMARK  status: ('A' for Active; 'I' for Inactive)
REMARK    1  A    between atoms: C_1  and  C_2
REMARK    2  A    between atoms: N_6  and  C_7
REMARK    3  A    between atoms: N_10  and  C_11
REMARK    4  A    between atoms: C_15  and  C_16
REMARK    5  A    between atoms: C_20  and  C_21
REMARK    6  A    between atoms: C_21  and  C_22
REMARK    7  A    between atoms: C_21  and  C_23
REMARK                            x       y       z     vdW  Elec       q    Type
REMARK                         _______ _______ _______ _____ _____    ______ ____
ROOT
ATOM      1  C   UNL     1       5.862   3.914  16.234  0.00  0.00    +0.000 C 
ATOM      2  C   UNL     1       5.046   5.064  16.729  0.00  0.00    +0.000 A 
ATOM      3  C   UNL     1       4.980   6.216  15.962  0.00  0.00    +0.000 A 
ATOM      4  N   UNL     1       4.302   7.319  16.309  0.00  0.00    +0.000 NA
ATOM      5  C   UNL     1       3.662   7.290  17.482  0.00  0.00    +0.000 A 
ATOM      6  N   UNL     1       2.986   8.453  17.797  0.00  0.00    +0.000 N 
ATOM      7  N   UNL     1       3.639   6.225  18.290  0.00  0.00    +0.000 NA
ATOM      8  C   UNL     1       4.314   5.114  17.906  0.00  0.00    +0.000 A 
ATOM      9  H   UNL     1       2.868   8.974  16.936  0.00  0.00    +0.000 HD
ENDROOT
BRANCH   6  10
ATOM     10  C   UNL     1       1.826   8.389  18.681  0.00  0.00    +0.000 C 
ATOM     11  C   UNL     1       1.155   9.757  18.855  0.00  0.00    +0.000 C 
ATOM     12  C   UNL     1       0.043   9.688  19.896  0.00  0.00    +0.000 C 
ATOM     13  N   UNL     1       0.567   9.221  21.185  0.00  0.00    +0.000 NA
ATOM     14  C   UNL     1      -0.474   9.256  22.211  0.00  0.00    +0.000 C 
ATOM     15  C   UNL     1       1.137   7.873  21.062  0.00  0.00    +0.000 C 
ATOM     16  C   UNL     1       2.285   7.868  20.053  0.00  0.00    +0.000 C 
ENDBRANCH   6  10
BRANCH   8  17
ATOM     17  C   UNL     1       4.169   3.980  18.824  0.00  0.00    +0.000 A 
ATOM     18  C   UNL     1       5.211   3.201  19.287  0.00  0.00    +0.000 A 
ATOM     19  N   UNL     1       4.673   2.237  20.081  0.00  0.00    +0.000 N 
ATOM     20  N   UNL     1       3.345   2.289  20.149  0.00  0.00    +0.000 NA
ATOM     21  C   UNL     1       3.008   3.324  19.356  0.00  0.00    +0.000 A 
ATOM     22  H   UNL     1       5.152   1.501  20.588  0.00  0.00    +0.000 HD
BRANCH  21  23
ATOM     23  C   UNL     1       1.543   3.613  19.147  0.00  0.00    +0.000 C 
ATOM     24  C   UNL     1       0.801   2.356  18.670  0.00  0.00    +0.000 C 
ATOM     25  C   UNL     1       0.889   4.169  20.417  0.00  0.00    +0.000 C 
ENDBRANCH  21  23
ENDBRANCH   8  17
TORSDOF 3
ENDMDL
MODEL 7
REMARK VINA RESULT:      -6.1      3.721      8.258
REMARK  Name = 
REMARK  7 active torsions:
REMARK  status: ('A' for Active; 'I' for Inactive)
REMARK    1  A    between atoms: C_1  and  C_2
REMARK    2  A    between atoms: N_6  and  C_7
REMARK    3  A    between atoms: N_10  and  C_11
REMARK    4  A    between atoms: C_15  and  C_16
REMARK    5  A    between atoms: C_20  and  C_21
REMARK    6  A    between atoms: C_21  and  C_22
REMARK    7  A    between atoms: C_21  and  C_23
REMARK                            x       y       z     vdW  Elec       q    Type
REMARK                         _______ _______ _______ _____ _____    ______ ____
ROOT
ATOM      1  C   UNL     1      -0.269   9.633  17.589  0.00  0.00    +0.000 C 
ATOM      2  C   UNL     1      -1.526  10.324  18.007  0.00  0.00    +0.000 A 
ATOM      3  C   UNL     1      -2.702  10.040  17.333  0.00  0.00    +0.000 A 
ATOM      4  N   UNL     1      -3.886  10.610  17.599  0.00  0.00    +0.000 NA
ATOM      5  C   UNL     1      -3.911  11.518  18.578  0.00  0.00    +0.000 A 
ATOM      6  N   UNL     1      -5.151  12.082  18.808  0.00  0.00    +0.000 N 
ATOM      7  N   UNL     1      -2.842  11.853  19.309  0.00  0.00    +0.000 NA
ATOM      8  C   UNL     1      -1.662  11.246  19.035  0.00  0.00    +0.000 A 
ATOM      9  H   UNL     1      -5.841  11.469  18.390  0.00  0.00    +0.000 HD
ENDROOT
BRANCH   6  10
ATOM     10  C   UNL     1      -5.465  12.603  20.134  0.00  0.00    +0.000 C 
ATOM     11  C   UNL     1      -6.685  11.911  20.754  0.00  0.00    +0.000 C 
ATOM     12  C   UNL     1      -7.077  12.577  22.069  0.00  0.00    +0.000 C 
ATOM     13  N   UNL     1      -7.362  14.002  21.864  0.00  0.00    +0.000 NA
ATOM     14  C   UNL     1      -7.841  14.617  23.101  0.00  0.00    +0.000 C 
ATOM     15  C   UNL     1      -6.178  14.704  21.353  0.00  0.00    +0.000 C 
ATOM     16  C   UNL     1      -5.740  14.112  20.014  0.00  0.00    +0.000 C 
ENDBRANCH   6  10
BRANCH   8  17
ATOM     17  C   UNL     1      -0.570  11.628  19.937  0.00  0.00    +0.000 A 
ATOM     18  C   UNL     1       0.184  12.779  19.820  0.00  0.00    +0.000 A 
ATOM     19  N   UNL     1       1.112  12.755  20.813  0.00  0.00    +0.000 N 
ATOM     20  N   UNL     1       1.061  11.654  21.559  0.00  0.00    +0.000 NA
ATOM     21  C   UNL     1       0.064  10.929  21.018  0.00  0.00    +0.000 A 
ATOM     22  H   UNL     1       1.823  13.447  21.025  0.00  0.00    +0.000 HD
BRANCH  21  23
ATOM     23  C   UNL     1      -0.211   9.560  21.589  0.00  0.00    +0.000 C 
ATOM     24  C   UNL     1       0.914   8.580  21.224  0.00  0.00    +0.000 C 
ATOM     25  C   UNL     1      -0.404   9.609  23.109  0.00  0.00    +0.000 C 
ENDBRANCH  21  23
ENDBRANCH   8  17
TORSDOF 3
ENDMDL
MODEL 8
REMARK VINA RESULT:      -6.1      6.767     10.572
REMARK  Name = 
REMARK  7 active torsions:
REMARK  status: ('A' for Active; 'I' for Inactive)
REMARK    1  A    between atoms: C_1  and  C_2
REMARK    2  A    between atoms: N_6  and  C_7
REMARK    3  A    between atoms: N_10  and  C_11
REMARK    4  A    between atoms: C_15  and  C_16
REMARK    5  A    between atoms: C_20  and  C_21
REMARK    6  A    between atoms: C_21  and  C_22
REMARK    7  A    between atoms: C_21  and  C_23
REMARK                            x       y       z     vdW  Elec       q    Type
REMARK                         _______ _______ _______ _____ _____    ______ ____
ROOT
ATOM      1  C   UNL     1       7.810   5.230  12.259  0.00  0.00    +0.000 C 
ATOM      2  C   UNL     1       7.142   4.798  13.525  0.00  0.00    +0.000 A 
ATOM      3  C   UNL     1       7.646   5.247  14.734  0.00  0.00    +0.000 A 
ATOM      4  N   UNL     1       7.150   4.912  15.934  0.00  0.00    +0.000 NA
ATOM      5  C   UNL     1       6.104   4.080  15.943  0.00  0.00    +0.000 A 
ATOM      6  N   UNL     1       5.635   3.760  17.202  0.00  0.00    +0.000 N 
ATOM      7  N   UNL     1       5.524   3.604  14.836  0.00  0.00    +0.000 NA
ATOM      8  C   UNL     1       6.030   3.975  13.635  0.00  0.00    +0.000 A 
ATOM      9  H   UNL     1       5.991   4.460  17.842  0.00  0.00    +0.000 HD
ENDROOT
BRANCH   6  10
ATOM     10  C   UNL     1       4.236   3.380  17.369  0.00  0.00    +0.000 C 
ATOM     11  C   UNL     1       3.332   4.594  17.614  0.00  0.00    +0.000 C 
ATOM     12  C   UNL     1       1.906   4.154  17.932  0.00  0.00    +0.000 C 
ATOM     13  N   UNL     1       1.885   3.270  19.105  0.00  0.00    +0.000 NA
ATOM     14  C   UNL     1       0.512   2.935  19.475  0.00  0.00    +0.000 C 
ATOM     15  C   UNL     1       2.675   2.057  18.860  0.00  0.00    +0.000 C 
ATOM     16  C   UNL     1       4.131   2.416  18.563  0.00  0.00    +0.000 C 
ENDBRANCH   6  10
BRANCH   8  17
ATOM     17  C   UNL     1       5.281   3.459  12.485  0.00  0.00    +0.000 A 
ATOM     18  C   UNL     1       4.051   3.928  12.068  0.00  0.00    +0.000 A 
ATOM     19  N   UNL     1       3.672   3.177  11.001  0.00  0.00    +0.000 N 
ATOM     20  N   UNL     1       4.540   2.213  10.699  0.00  0.00    +0.000 NA
ATOM     21  C   UNL     1       5.515   2.338  11.618  0.00  0.00    +0.000 A 
ATOM     22  H   UNL     1       2.827   3.254  10.446  0.00  0.00    +0.000 HD
BRANCH  21  23
ATOM     23  C   UNL     1       6.636   1.331  11.608  0.00  0.00    +0.000 C 
ATOM     24  C   UNL     1       6.123  -0.054  11.189  0.00  0.00    +0.000 C 
ATOM     25  C   UNL     1       7.786   1.773  10.695  0.00  0.00    +0.000 C 
ENDBRANCH  21  23
ENDBRANCH   8  17
TORSDOF 3
ENDMDL
MODEL 9
REMARK VINA RESULT:      -6.1      0.904      2.156
REMARK  Name = 
REMARK  7 active torsions:
REMARK  status: ('A' for Active; 'I' for Inactive)
REMARK    1  A    between atoms: C_1  and  C_2
REMARK    2  A    between atoms: N_6  and  C_7
REMARK    3  A    between atoms: N_10  and  C_11
REMARK    4  A    between atoms: C_15  and  C_16
REMARK    5  A    between atoms: C_20  and  C_21
REMARK    6  A    between atoms: C_21  and  C_22
REMARK    7  A    between atoms: C_21  and  C_23
REMARK                            x       y       z     vdW  Elec       q    Type
REMARK                         _______ _______ _______ _____ _____    ______ ____
ROOT
ATOM      1  C   UNL     1      -1.427  12.164  22.215  0.00  0.00    +0.000 C 
ATOM      2  C   UNL     1      -0.652  10.923  21.909  0.00  0.00    +0.000 A 
ATOM      3  C   UNL     1      -0.411  10.017  22.929  0.00  0.00    +0.000 A 
ATOM      4  N   UNL     1       0.288   8.882  22.785  0.00  0.00    +0.000 NA
ATOM      5  C   UNL     1       0.787   8.631  21.572  0.00  0.00    +0.000 A 
ATOM      6  N   UNL     1       1.506   7.455  21.477  0.00  0.00    +0.000 N 
ATOM      7  N   UNL     1       0.597   9.424  20.511  0.00  0.00    +0.000 NA
ATOM      8  C   UNL     1      -0.133  10.553  20.677  0.00  0.00    +0.000 A 
ATOM      9  H   UNL     1       1.248   6.882  22.272  0.00  0.00    +0.000 HD
ENDROOT
BRANCH   6  10
ATOM     10  C   UNL     1       1.599   6.774  20.190  0.00  0.00    +0.000 C 
ATOM     11  C   UNL     1       1.517   5.250  20.334  0.00  0.00    +0.000 C 
ATOM     12  C   UNL     1       1.767   4.564  18.994  0.00  0.00    +0.000 C 
ATOM     13  N   UNL     1       3.076   4.945  18.452  0.00  0.00    +0.000 NA
ATOM     14  C   UNL     1       3.361   4.207  17.223  0.00  0.00    +0.000 C 
ATOM     15  C   UNL     1       3.146   6.394  18.223  0.00  0.00    +0.000 C 
ATOM     16  C   UNL     1       2.936   7.154  19.531  0.00  0.00    +0.000 C 
ENDBRANCH   6  10
BRANCH   8  17
ATOM     17  C   UNL     1      -0.343  11.316  19.442  0.00  0.00    +0.000 A 
ATOM     18  C   UNL     1       0.516  12.280  18.953  0.00  0.00    +0.000 A 
ATOM     19  N   UNL     1      -0.041  12.779  17.817  0.00  0.00    +0.000 N 
ATOM     20  N   UNL     1      -1.229  12.247  17.534  0.00  0.00    +0.000 NA
ATOM     21  C   UNL     1      -1.455  11.377  18.535  0.00  0.00    +0.000 A 
ATOM     22  H   UNL     1       0.324  13.495  17.201  0.00  0.00    +0.000 HD
BRANCH  21  23
ATOM     23  C   UNL     1      -2.775  10.649  18.560  0.00  0.00    +0.000 C 
ATOM     24  C   UNL     1      -3.946  11.641  18.600  0.00  0.00    +0.000 C 
ATOM     25  C   UNL     1      -2.920   9.699  17.366  0.00  0.00    +0.000 C 
ENDBRANCH  21  23
ENDBRANCH   8  17
TORSDOF 3
ENDMDL
