MODEL 1
REMARK VINA RESULT:      -7.7      0.000      0.000
REMARK  Name = 
REMARK  9 active torsions:
REMARK  status: ('A' for Active; 'I' for Inactive)
REMARK    1  A    between atoms: C_1  and  C_2
REMARK    2  A    between atoms: C_2  and  O_3
REMARK    3  A    between atoms: O_3  and  C_4
REMARK    4  A    between atoms: C_7  and  N_8
REMARK    5  A    between atoms: C_9  and  C_11
REMARK    6  A    between atoms: C_11  and  S_12
REMARK    7  A    between atoms: S_12  and  C_13
REMARK    8  A    between atoms: C_16  and  C_17
REMARK    9  A    between atoms: N_23  and  N_24
REMARK                            x       y       z     vdW  Elec       q    Type
REMARK                         _______ _______ _______ _____ _____    ______ ____
ROOT
ATOM      1  S   UNL     1       2.212   2.217  20.468  0.00  0.00    +0.000 S 
ENDROOT
BRANCH   1   2
ATOM      2  C   UNL     1       2.654   2.775  18.889  0.00  0.00    +0.000 A 
ATOM      3  N   UNL     1       1.863   2.915  17.853  0.00  0.00    +0.000 NA
ATOM      4  N   UNL     1       2.640   3.378  16.809  0.00  0.00    +0.000 NA
ATOM      5  C   UNL     1       3.886   3.534  17.243  0.00  0.00    +0.000 A 
ATOM      6  N   UNL     1       3.939   3.123  18.563  0.00  0.00    +0.000 N 
BRANCH   5   7
ATOM      7  C   UNL     1       5.031   4.024  16.478  0.00  0.00    +0.000 A 
ATOM      8  C   UNL     1       5.057   3.954  15.088  0.00  0.00    +0.000 A 
ATOM      9  C   UNL     1       6.195   4.396  14.417  0.00  0.00    +0.000 A 
ATOM     10  C   UNL     1       7.262   4.909  15.146  0.00  0.00    +0.000 A 
ATOM     11  C   UNL     1       7.146   4.965  16.524  0.00  0.00    +0.000 A 
ATOM     12  N   UNL     1       6.059   4.540  17.206  0.00  0.00    +0.000 NA
ENDBRANCH   5   7
BRANCH   6  13
ATOM     13  N   UNL     1       5.103   3.012  19.400  0.00  0.00    +0.000 N 
ATOM     14  H   UNL     1       4.840   3.210  20.370  0.00  0.00    +0.000 HD
ATOM     15  H   UNL     1       5.473   2.063  19.386  0.00  0.00    +0.000 HD
ENDBRANCH   6  13
ENDBRANCH   1   2
BRANCH   1  16
ATOM     16  C   UNL     1       2.383   3.731  21.449  0.00  0.00    +0.000 C 
BRANCH  16  18
ATOM     17  N   UNL     1       2.464   6.007  20.594  0.00  0.00    +0.000 N 
ATOM     18  C   UNL     1       1.658   4.893  20.792  0.00  0.00    +0.000 C 
ATOM     19  O   UNL     1       0.477   4.788  20.471  0.00  0.00    +0.000 OA
ATOM     20  H   UNL     1       3.469   5.863  20.679  0.00  0.00    +0.000 HD
BRANCH  17  24
ATOM     21  C   UNL     1       1.271   9.623  18.769  0.00  0.00    +0.000 A 
ATOM     22  C   UNL     1       0.994   9.405  20.117  0.00  0.00    +0.000 A 
ATOM     23  C   UNL     1       1.395   8.225  20.745  0.00  0.00    +0.000 A 
ATOM     24  C   UNL     1       2.060   7.232  20.026  0.00  0.00    +0.000 A 
ATOM     25  C   UNL     1       2.344   7.454  18.673  0.00  0.00    +0.000 A 
ATOM     26  C   UNL     1       1.935   8.639  18.042  0.00  0.00    +0.000 A 
BRANCH  21  27
ATOM     27  O   UNL     1       0.826  10.819  18.283  0.00  0.00    +0.000 OA
BRANCH  27  29
ATOM     28  C   UNL     1       2.461  12.538  18.240  0.00  0.00    +0.000 C 
ATOM     29  C   UNL     1       1.253  11.991  18.976  0.00  0.00    +0.000 C 
ENDBRANCH  27  29
ENDBRANCH  21  27
ENDBRANCH  17  24
ENDBRANCH  16  18
ENDBRANCH   1  16
TORSDOF 8
ENDMDL
MODEL 2
REMARK VINA RESULT:      -7.5      5.479      7.170
REMARK  Name = 
REMARK  9 active torsions:
REMARK  status: ('A' for Active; 'I' for Inactive)
REMARK    1  A    between atoms: C_1  and  C_2
REMARK    2  A    between atoms: C_2  and  O_3
REMARK    3  A    between atoms: O_3  and  C_4
REMARK    4  A    between atoms: C_7  and  N_8
REMARK    5  A    between atoms: C_9  and  C_11
REMARK    6  A    between atoms: C_11  and  S_12
REMARK    7  A    between atoms: S_12  and  C_13
REMARK    8  A    between atoms: C_16  and  C_17
REMARK    9  A    between atoms: N_23  and  N_24
REMARK                            x       y       z     vdW  Elec       q    Type
REMARK                         _______ _______ _______ _____ _____    ______ ____
ROOT
ATOM      1  S   UNL     1       7.113   5.905  16.974  0.00  0.00    +0.000 S 
ENDROOT
BRANCH   1   2
ATOM      2  C   UNL     1       5.466   5.845  17.506  0.00  0.00    +0.000 A 
ATOM      3  N   UNL     1       4.508   6.686  17.201  0.00  0.00    +0.000 NA
ATOM      4  N   UNL     1       3.367   6.256  17.851  0.00  0.00    +0.000 NA
ATOM      5  C   UNL     1       3.653   5.144  18.520  0.00  0.00    +0.000 A 
ATOM      6  N   UNL     1       4.999   4.871  18.350  0.00  0.00    +0.000 N 
BRANCH   5   7
ATOM      7  C   UNL     1       2.738   4.340  19.327  0.00  0.00    +0.000 A 
ATOM      8  C   UNL     1       1.674   3.653  18.747  0.00  0.00    +0.000 A 
ATOM      9  C   UNL     1       0.810   2.940  19.574  0.00  0.00    +0.000 A 
ATOM     10  C   UNL     1       1.038   2.917  20.946  0.00  0.00    +0.000 A 
ATOM     11  C   UNL     1       2.132   3.608  21.438  0.00  0.00    +0.000 A 
ATOM     12  N   UNL     1       2.987   4.314  20.665  0.00  0.00    +0.000 NA
ENDBRANCH   5   7
BRANCH   6  13
ATOM     13  N   UNL     1       5.769   3.831  18.979  0.00  0.00    +0.000 N 
ATOM     14  H   UNL     1       5.224   2.964  18.984  0.00  0.00    +0.000 HD
ATOM     15  H   UNL     1       6.620   3.638  18.452  0.00  0.00    +0.000 HD
ENDBRANCH   6  13
ENDBRANCH   1   2
BRANCH   1  16
ATOM     16  C   UNL     1       7.923   6.693  18.390  0.00  0.00    +0.000 C 
BRANCH  16  18
ATOM     17  N   UNL     1       8.916   8.796  19.103  0.00  0.00    +0.000 N 
ATOM     18  C   UNL     1       8.097   8.185  18.161  0.00  0.00    +0.000 C 
ATOM     19  O   UNL     1       7.557   8.734  17.205  0.00  0.00    +0.000 OA
ATOM     20  H   UNL     1       9.486   8.180  19.680  0.00  0.00    +0.000 HD
BRANCH  17  24
ATOM     21  C   UNL     1       9.862  12.911  19.119  0.00  0.00    +0.000 A 
ATOM     22  C   UNL     1       9.602  12.257  20.322  0.00  0.00    +0.000 A 
ATOM     23  C   UNL     1       9.305  10.894  20.341  0.00  0.00    +0.000 A 
ATOM     24  C   UNL     1       9.240  10.167  19.153  0.00  0.00    +0.000 A 
ATOM     25  C   UNL     1       9.507  10.824  17.945  0.00  0.00    +0.000 A 
ATOM     26  C   UNL     1       9.800  12.196  17.926  0.00  0.00    +0.000 A 
BRANCH  21  27
ATOM     27  O   UNL     1      10.141  14.242  19.245  0.00  0.00    +0.000 OA
BRANCH  27  29
ATOM     28  C   UNL     1      12.331  15.080  19.609  0.00  0.00    +0.000 C 
ATOM     29  C   UNL     1      11.053  14.611  20.278  0.00  0.00    +0.000 C 
ENDBRANCH  27  29
ENDBRANCH  21  27
ENDBRANCH  17  24
ENDBRANCH  16  18
ENDBRANCH   1  16
TORSDOF 8
ENDMDL
MODEL 3
REMARK VINA RESULT:      -7.4      5.393      7.148
REMARK  Name = 
REMARK  9 active torsions:
REMARK  status: ('A' for Active; 'I' for Inactive)
REMARK    1  A    between atoms: C_1  and  C_2
REMARK    2  A    between atoms: C_2  and  O_3
REMARK    3  A    between atoms: O_3  and  C_4
REMARK    4  A    between atoms: C_7  and  N_8
REMARK    5  A    between atoms: C_9  and  C_11
REMARK    6  A    between atoms: C_11  and  S_12
REMARK    7  A    between atoms: S_12  and  C_13
REMARK    8  A    between atoms: C_16  and  C_17
REMARK    9  A    between atoms: N_23  and  N_24
REMARK                            x       y       z     vdW  Elec       q    Type
REMARK                         _______ _______ _______ _____ _____    ______ ____
ROOT
ATOM      1  S   UNL     1       7.086   5.989  16.929  0.00  0.00    +0.000 S 
ENDROOT
BRANCH   1   2
ATOM      2  C   UNL     1       5.449   5.937  17.492  0.00  0.00    +0.000 A 
ATOM      3  N   UNL     1       4.510   6.822  17.267  0.00  0.00    +0.000 NA
ATOM      4  N   UNL     1       3.371   6.380  17.911  0.00  0.00    +0.000 NA
ATOM      5  C   UNL     1       3.638   5.217  18.495  0.00  0.00    +0.000 A 
ATOM      6  N   UNL     1       4.972   4.919  18.277  0.00  0.00    +0.000 N 
BRANCH   5   7
ATOM      7  C   UNL     1       2.717   4.384  19.265  0.00  0.00    +0.000 A 
ATOM      8  C   UNL     1       1.764   3.587  18.636  0.00  0.00    +0.000 A 
ATOM      9  C   UNL     1       0.884   2.849  19.425  0.00  0.00    +0.000 A 
ATOM     10  C   UNL     1       0.989   2.913  20.810  0.00  0.00    +0.000 A 
ATOM     11  C   UNL     1       1.980   3.712  21.355  0.00  0.00    +0.000 A 
ATOM     12  N   UNL     1       2.845   4.445  20.619  0.00  0.00    +0.000 NA
ENDBRANCH   5   7
BRANCH   6  13
ATOM     13  N   UNL     1       5.724   3.818  18.815  0.00  0.00    +0.000 N 
ATOM     14  H   UNL     1       5.825   3.942  19.827  0.00  0.00    +0.000 HD
ATOM     15  H   UNL     1       5.232   2.937  18.676  0.00  0.00    +0.000 HD
ENDBRANCH   6  13
ENDBRANCH   1   2
BRANCH   1  16
ATOM     16  C   UNL     1       7.930   6.757  18.337  0.00  0.00    +0.000 C 
BRANCH  16  18
ATOM     17  N   UNL     1       8.935   8.857  19.042  0.00  0.00    +0.000 N 
ATOM     18  C   UNL     1       8.060   8.258  18.145  0.00  0.00    +0.000 C 
ATOM     19  O   UNL     1       7.439   8.826  17.250  0.00  0.00    +0.000 OA
ATOM     20  H   UNL     1       9.558   8.235  19.555  0.00  0.00    +0.000 HD
BRANCH  17  24
ATOM     21  C   UNL     1       9.871  12.960  19.388  0.00  0.00    +0.000 A 
ATOM     22  C   UNL     1       9.790  12.373  18.126  0.00  0.00    +0.000 A 
ATOM     23  C   UNL     1       9.463  11.023  17.988  0.00  0.00    +0.000 A 
ATOM     24  C   UNL     1       9.237  10.232  19.113  0.00  0.00    +0.000 A 
ATOM     25  C   UNL     1       9.313  10.823  20.381  0.00  0.00    +0.000 A 
ATOM     26  C   UNL     1       9.646  12.179  20.519  0.00  0.00    +0.000 A 
BRANCH  21  27
ATOM     27  O   UNL     1      10.194  14.286  19.378  0.00  0.00    +0.000 OA
BRANCH  27  29
ATOM     28  C   UNL     1      11.079  15.696  21.069  0.00  0.00    +0.000 C 
ATOM     29  C   UNL     1       9.820  15.045  20.527  0.00  0.00    +0.000 C 
ENDBRANCH  27  29
ENDBRANCH  21  27
ENDBRANCH  17  24
ENDBRANCH  16  18
ENDBRANCH   1  16
TORSDOF 8
ENDMDL
MODEL 4
REMARK VINA RESULT:      -7.3      5.433      7.223
REMARK  Name = 
REMARK  9 active torsions:
REMARK  status: ('A' for Active; 'I' for Inactive)
REMARK    1  A    between atoms: C_1  and  C_2
REMARK    2  A    between atoms: C_2  and  O_3
REMARK    3  A    between atoms: O_3  and  C_4
REMARK    4  A    between atoms: C_7  and  N_8
REMARK    5  A    between atoms: C_9  and  C_11
REMARK    6  A    between atoms: C_11  and  S_12
REMARK    7  A    between atoms: S_12  and  C_13
REMARK    8  A    between atoms: C_16  and  C_17
REMARK    9  A    between atoms: N_23  and  N_24
REMARK                            x       y       z     vdW  Elec       q    Type
REMARK                         _______ _______ _______ _____ _____    ______ ____
ROOT
ATOM      1  S   UNL     1       7.120   6.219  16.908  0.00  0.00    +0.000 S 
ENDROOT
BRANCH   1   2
ATOM      2  C   UNL     1       5.480   6.084  17.451  0.00  0.00    +0.000 A 
ATOM      3  N   UNL     1       4.512   6.945  17.255  0.00  0.00    +0.000 NA
ATOM      4  N   UNL     1       3.384   6.433  17.867  0.00  0.00    +0.000 NA
ATOM      5  C   UNL     1       3.687   5.255  18.401  0.00  0.00    +0.000 A 
ATOM      6  N   UNL     1       5.033   5.015  18.184  0.00  0.00    +0.000 N 
BRANCH   5   7
ATOM      7  C   UNL     1       2.789   4.356  19.123  0.00  0.00    +0.000 A 
ATOM      8  C   UNL     1       1.913   4.835  20.093  0.00  0.00    +0.000 A 
ATOM      9  C   UNL     1       1.112   3.924  20.779  0.00  0.00    +0.000 A 
ATOM     10  C   UNL     1       1.197   2.571  20.469  0.00  0.00    +0.000 A 
ATOM     11  C   UNL     1       2.078   2.181  19.475  0.00  0.00    +0.000 A 
ATOM     12  N   UNL     1       2.872   3.038  18.795  0.00  0.00    +0.000 NA
ENDBRANCH   5   7
BRANCH   6  13
ATOM     13  N   UNL     1       5.820   3.918  18.680  0.00  0.00    +0.000 N 
ATOM     14  H   UNL     1       6.777   4.003  18.326  0.00  0.00    +0.000 HD
ATOM     15  H   UNL     1       5.881   3.943  19.697  0.00  0.00    +0.000 HD
ENDBRANCH   6  13
ENDBRANCH   1   2
BRANCH   1  16
ATOM     16  C   UNL     1       7.925   6.939  18.363  0.00  0.00    +0.000 C 
BRANCH  16  18
ATOM     17  N   UNL     1       9.012   8.980  19.119  0.00  0.00    +0.000 N 
ATOM     18  C   UNL     1       8.139   8.433  18.187  0.00  0.00    +0.000 C 
ATOM     19  O   UNL     1       7.582   9.038  17.275  0.00  0.00    +0.000 OA
ATOM     20  H   UNL     1       9.583   8.323  19.649  0.00  0.00    +0.000 HD
BRANCH  17  24
ATOM     21  C   UNL     1      10.138  13.029  19.530  0.00  0.00    +0.000 A 
ATOM     22  C   UNL     1      10.158  12.430  18.272  0.00  0.00    +0.000 A 
ATOM     23  C   UNL     1       9.772  11.099  18.111  0.00  0.00    +0.000 A 
ATOM     24  C   UNL     1       9.383  10.337  19.212  0.00  0.00    +0.000 A 
ATOM     25  C   UNL     1       9.358  10.940  20.476  0.00  0.00    +0.000 A 
ATOM     26  C   UNL     1       9.751  12.277  20.637  0.00  0.00    +0.000 A 
BRANCH  21  27
ATOM     27  O   UNL     1      10.536  14.335  19.545  0.00  0.00    +0.000 OA
BRANCH  27  29
ATOM     28  C   UNL     1      10.544  16.132  17.996  0.00  0.00    +0.000 C 
ATOM     29  C   UNL     1       9.678  15.273  18.898  0.00  0.00    +0.000 C 
ENDBRANCH  27  29
ENDBRANCH  21  27
ENDBRANCH  17  24
ENDBRANCH  16  18
ENDBRANCH   1  16
TORSDOF 8
ENDMDL
MODEL 5
REMARK VINA RESULT:      -7.2      1.053      1.099
REMARK  Name = 
REMARK  9 active torsions:
REMARK  status: ('A' for Active; 'I' for Inactive)
REMARK    1  A    between atoms: C_1  and  C_2
REMARK    2  A    between atoms: C_2  and  O_3
REMARK    3  A    between atoms: O_3  and  C_4
REMARK    4  A    between atoms: C_7  and  N_8
REMARK    5  A    between atoms: C_9  and  C_11
REMARK    6  A    between atoms: C_11  and  S_12
REMARK    7  A    between atoms: S_12  and  C_13
REMARK    8  A    between atoms: C_16  and  C_17
REMARK    9  A    between atoms: N_23  and  N_24
REMARK                            x       y       z     vdW  Elec       q    Type
REMARK                         _______ _______ _______ _____ _____    ______ ____
ROOT
ATOM      1  S   UNL     1       3.428   2.363  21.273  0.00  0.00    +0.000 S 
ENDROOT
BRANCH   1   2
ATOM      2  C   UNL     1       3.504   2.521  19.550  0.00  0.00    +0.000 A 
ATOM      3  N   UNL     1       2.773   1.886  18.667  0.00  0.00    +0.000 NA
ATOM      4  N   UNL     1       3.179   2.316  17.419  0.00  0.00    +0.000 NA
ATOM      5  C   UNL     1       4.135   3.226  17.573  0.00  0.00    +0.000 A 
ATOM      6  N   UNL     1       4.394   3.356  18.925  0.00  0.00    +0.000 N 
BRANCH   5   7
ATOM      7  C   UNL     1       4.833   3.959  16.519  0.00  0.00    +0.000 A 
ATOM      8  C   UNL     1       5.592   3.296  15.558  0.00  0.00    +0.000 A 
ATOM      9  C   UNL     1       6.270   4.052  14.604  0.00  0.00    +0.000 A 
ATOM     10  C   UNL     1       6.161   5.438  14.626  0.00  0.00    +0.000 A 
ATOM     11  C   UNL     1       5.367   6.016  15.601  0.00  0.00    +0.000 A 
ATOM     12  N   UNL     1       4.700   5.313  16.544  0.00  0.00    +0.000 NA
ENDBRANCH   5   7
BRANCH   6  13
ATOM     13  N   UNL     1       5.424   4.143  19.549  0.00  0.00    +0.000 N 
ATOM     14  H   UNL     1       6.134   4.382  18.852  0.00  0.00    +0.000 HD
ATOM     15  H   UNL     1       5.050   5.023  19.899  0.00  0.00    +0.000 HD
ENDBRANCH   6  13
ENDBRANCH   1   2
BRANCH   1  16
ATOM     16  C   UNL     1       1.765   2.993  21.622  0.00  0.00    +0.000 C 
BRANCH  16  18
ATOM     17  N   UNL     1       2.192   5.277  20.901  0.00  0.00    +0.000 N 
ATOM     18  C   UNL     1       1.412   4.146  20.697  0.00  0.00    +0.000 C 
ATOM     19  O   UNL     1       0.526   4.020  19.856  0.00  0.00    +0.000 OA
ATOM     20  H   UNL     1       3.040   5.153  21.452  0.00  0.00    +0.000 HD
BRANCH  17  24
ATOM     21  C   UNL     1       1.879   8.870  18.705  0.00  0.00    +0.000 A 
ATOM     22  C   UNL     1       1.372   8.806  20.001  0.00  0.00    +0.000 A 
ATOM     23  C   UNL     1       1.482   7.635  20.752  0.00  0.00    +0.000 A 
ATOM     24  C   UNL     1       2.079   6.499  20.207  0.00  0.00    +0.000 A 
ATOM     25  C   UNL     1       2.593   6.565  18.906  0.00  0.00    +0.000 A 
ATOM     26  C   UNL     1       2.478   7.742  18.150  0.00  0.00    +0.000 A 
BRANCH  21  27
ATOM     27  O   UNL     1       1.708  10.075  18.086  0.00  0.00    +0.000 OA
BRANCH  27  29
ATOM     28  C   UNL     1       1.772  12.367  18.698  0.00  0.00    +0.000 C 
ATOM     29  C   UNL     1       0.990  11.072  18.812  0.00  0.00    +0.000 C 
ENDBRANCH  27  29
ENDBRANCH  21  27
ENDBRANCH  17  24
ENDBRANCH  16  18
ENDBRANCH   1  16
TORSDOF 8
ENDMDL
MODEL 6
REMARK VINA RESULT:      -7.1      0.566      1.101
REMARK  Name = 
REMARK  9 active torsions:
REMARK  status: ('A' for Active; 'I' for Inactive)
REMARK    1  A    between atoms: C_1  and  C_2
REMARK    2  A    between atoms: C_2  and  O_3
REMARK    3  A    between atoms: O_3  and  C_4
REMARK    4  A    between atoms: C_7  and  N_8
REMARK    5  A    between atoms: C_9  and  C_11
REMARK    6  A    between atoms: C_11  and  S_12
REMARK    7  A    between atoms: S_12  and  C_13
REMARK    8  A    between atoms: C_16  and  C_17
REMARK    9  A    between atoms: N_23  and  N_24
REMARK                            x       y       z     vdW  Elec       q    Type
REMARK                         _______ _______ _______ _____ _____    ______ ____
ROOT
ATOM      1  S   UNL     1       2.187   1.899  20.229  0.00  0.00    +0.000 S 
ENDROOT
BRANCH   1   2
ATOM      2  C   UNL     1       2.621   2.653  18.731  0.00  0.00    +0.000 A 
ATOM      3  N   UNL     1       1.842   2.859  17.697  0.00  0.00    +0.000 NA
ATOM      4  N   UNL     1       2.607   3.479  16.729  0.00  0.00    +0.000 NA
ATOM      5  C   UNL     1       3.833   3.660  17.207  0.00  0.00    +0.000 A 
ATOM      6  N   UNL     1       3.888   3.110  18.476  0.00  0.00    +0.000 N 
BRANCH   5   7
ATOM      7  C   UNL     1       4.960   4.298  16.529  0.00  0.00    +0.000 A 
ATOM      8  C   UNL     1       5.474   3.784  15.342  0.00  0.00    +0.000 A 
ATOM      9  C   UNL     1       6.577   4.410  14.766  0.00  0.00    +0.000 A 
ATOM     10  C   UNL     1       7.123   5.534  15.377  0.00  0.00    +0.000 A 
ATOM     11  C   UNL     1       6.535   5.994  16.543  0.00  0.00    +0.000 A 
ATOM     12  N   UNL     1       5.469   5.408  17.131  0.00  0.00    +0.000 NA
ENDBRANCH   5   7
BRANCH   6  13
ATOM     13  N   UNL     1       5.041   2.977  19.325  0.00  0.00    +0.000 N 
ATOM     14  H   UNL     1       4.944   2.131  19.894  0.00  0.00    +0.000 HD
ATOM     15  H   UNL     1       5.890   2.862  18.773  0.00  0.00    +0.000 HD
ENDBRANCH   6  13
ENDBRANCH   1   2
BRANCH   1  16
ATOM     16  C   UNL     1       2.227   3.308  21.369  0.00  0.00    +0.000 C 
BRANCH  16  18
ATOM     17  N   UNL     1       2.402   5.633  20.674  0.00  0.00    +0.000 N 
ATOM     18  C   UNL     1       1.563   4.528  20.754  0.00  0.00    +0.000 C 
ATOM     19  O   UNL     1       0.399   4.473  20.365  0.00  0.00    +0.000 OA
ATOM     20  H   UNL     1       3.397   5.459  20.802  0.00  0.00    +0.000 HD
BRANCH  17  24
ATOM     21  C   UNL     1       1.340   9.478  19.291  0.00  0.00    +0.000 A 
ATOM     22  C   UNL     1       2.026   8.606  18.449  0.00  0.00    +0.000 A 
ATOM     23  C   UNL     1       2.370   7.324  18.879  0.00  0.00    +0.000 A 
ATOM     24  C   UNL     1       2.055   6.902  20.170  0.00  0.00    +0.000 A 
ATOM     25  C   UNL     1       1.361   7.778  21.015  0.00  0.00    +0.000 A 
ATOM     26  C   UNL     1       1.020   9.069  20.583  0.00  0.00    +0.000 A 
BRANCH  21  27
ATOM     27  O   UNL     1       1.063  10.698  18.743  0.00  0.00    +0.000 OA
BRANCH  27  29
ATOM     28  C   UNL     1       1.903  12.829  18.124  0.00  0.00    +0.000 C 
ATOM     29  C   UNL     1       2.119  11.331  18.022  0.00  0.00    +0.000 C 
ENDBRANCH  27  29
ENDBRANCH  21  27
ENDBRANCH  17  24
ENDBRANCH  16  18
ENDBRANCH   1  16
TORSDOF 8
ENDMDL
MODEL 7
REMARK VINA RESULT:      -7.1      1.212      1.669
REMARK  Name = 
REMARK  9 active torsions:
REMARK  status: ('A' for Active; 'I' for Inactive)
REMARK    1  A    between atoms: C_1  and  C_2
REMARK    2  A    between atoms: C_2  and  O_3
REMARK    3  A    between atoms: O_3  and  C_4
REMARK    4  A    between atoms: C_7  and  N_8
REMARK    5  A    between atoms: C_9  and  C_11
REMARK    6  A    between atoms: C_11  and  S_12
REMARK    7  A    between atoms: S_12  and  C_13
REMARK    8  A    between atoms: C_16  and  C_17
REMARK    9  A    between atoms: N_23  and  N_24
REMARK                            x       y       z     vdW  Elec       q    Type
REMARK                         _______ _______ _______ _____ _____    ______ ____
ROOT
ATOM      1  S   UNL     1       3.438   2.298  21.279  0.00  0.00    +0.000 S 
ENDROOT
BRANCH   1   2
ATOM      2  C   UNL     1       3.542   2.466  19.558  0.00  0.00    +0.000 A 
ATOM      3  N   UNL     1       2.879   1.782  18.658  0.00  0.00    +0.000 NA
ATOM      4  N   UNL     1       3.281   2.244  17.420  0.00  0.00    +0.000 NA
ATOM      5  C   UNL     1       4.164   3.220  17.596  0.00  0.00    +0.000 A 
ATOM      6  N   UNL     1       4.383   3.366  18.955  0.00  0.00    +0.000 N 
BRANCH   5   7
ATOM      7  C   UNL     1       4.831   4.005  16.559  0.00  0.00    +0.000 A 
ATOM      8  C   UNL     1       5.601   3.395  15.573  0.00  0.00    +0.000 A 
ATOM      9  C   UNL     1       6.248   4.199  14.637  0.00  0.00    +0.000 A 
ATOM     10  C   UNL     1       6.097   5.579  14.701  0.00  0.00    +0.000 A 
ATOM     11  C   UNL     1       5.294   6.104  15.699  0.00  0.00    +0.000 A 
ATOM     12  N   UNL     1       4.657   5.353  16.625  0.00  0.00    +0.000 NA
ENDBRANCH   5   7
BRANCH   6  13
ATOM     13  N   UNL     1       5.339   4.223  19.603  0.00  0.00    +0.000 N 
ATOM     14  H   UNL     1       5.315   5.147  19.162  0.00  0.00    +0.000 HD
ATOM     15  H   UNL     1       5.100   4.361  20.583  0.00  0.00    +0.000 HD
ENDBRANCH   6  13
ENDBRANCH   1   2
BRANCH   1  16
ATOM     16  C   UNL     1       1.740   2.847  21.595  0.00  0.00    +0.000 C 
BRANCH  16  18
ATOM     17  N   UNL     1       2.100   5.175  20.992  0.00  0.00    +0.000 N 
ATOM     18  C   UNL     1       1.373   4.026  20.711  0.00  0.00    +0.000 C 
ATOM     19  O   UNL     1       0.520   3.904  19.835  0.00  0.00    +0.000 OA
ATOM     20  H   UNL     1       2.934   5.058  21.565  0.00  0.00    +0.000 HD
BRANCH  17  24
ATOM     21  C   UNL     1       1.655   8.967  19.187  0.00  0.00    +0.000 A 
ATOM     22  C   UNL     1       2.304   7.945  18.497  0.00  0.00    +0.000 A 
ATOM     23  C   UNL     1       2.446   6.679  19.067  0.00  0.00    +0.000 A 
ATOM     24  C   UNL     1       1.961   6.422  20.349  0.00  0.00    +0.000 A 
ATOM     25  C   UNL     1       1.303   7.448  21.040  0.00  0.00    +0.000 A 
ATOM     26  C   UNL     1       1.166   8.722  20.468  0.00  0.00    +0.000 A 
BRANCH  21  27
ATOM     27  O   UNL     1       1.583  10.151  18.512  0.00  0.00    +0.000 OA
BRANCH  27  29
ATOM     28  C   UNL     1      -0.727  10.224  17.971  0.00  0.00    +0.000 C 
ATOM     29  C   UNL     1       0.400  10.927  18.704  0.00  0.00    +0.000 C 
ENDBRANCH  27  29
ENDBRANCH  21  27
ENDBRANCH  17  24
ENDBRANCH  16  18
ENDBRANCH   1  16
TORSDOF 8
ENDMDL
MODEL 8
REMARK VINA RESULT:      -7.0      1.047      1.710
REMARK  Name = 
REMARK  9 active torsions:
REMARK  status: ('A' for Active; 'I' for Inactive)
REMARK    1  A    between atoms: C_1  and  C_2
REMARK    2  A    between atoms: C_2  and  O_3
REMARK    3  A    between atoms: O_3  and  C_4
REMARK    4  A    between atoms: C_7  and  N_8
REMARK    5  A    between atoms: C_9  and  C_11
REMARK    6  A    between atoms: C_11  and  S_12
REMARK    7  A    between atoms: S_12  and  C_13
REMARK    8  A    between atoms: C_16  and  C_17
REMARK    9  A    between atoms: N_23  and  N_24
REMARK                            x       y       z     vdW  Elec       q    Type
REMARK                         _______ _______ _______ _____ _____    ______ ____
ROOT
ATOM      1  S   UNL     1       3.094   2.111  20.758  0.00  0.00    +0.000 S 
ENDROOT
BRANCH   1   2
ATOM      2  C   UNL     1       4.174   3.102  19.834  0.00  0.00    +0.000 A 
ATOM      3  N   UNL     1       5.176   3.812  20.290  0.00  0.00    +0.000 NA
ATOM      4  N   UNL     1       5.753   4.445  19.206  0.00  0.00    +0.000 NA
ATOM      5  C   UNL     1       5.101   4.083  18.107  0.00  0.00    +0.000 A 
ATOM      6  N   UNL     1       4.059   3.250  18.476  0.00  0.00    +0.000 N 
BRANCH   5   7
ATOM      7  C   UNL     1       5.387   4.495  16.734  0.00  0.00    +0.000 A 
ATOM      8  C   UNL     1       5.160   5.802  16.310  0.00  0.00    +0.000 A 
ATOM      9  C   UNL     1       5.411   6.125  14.978  0.00  0.00    +0.000 A 
ATOM     10  C   UNL     1       5.894   5.146  14.116  0.00  0.00    +0.000 A 
ATOM     11  C   UNL     1       6.115   3.878  14.625  0.00  0.00    +0.000 A 
ATOM     12  N   UNL     1       5.877   3.530  15.909  0.00  0.00    +0.000 NA
ENDBRANCH   5   7
BRANCH   6  13
ATOM     13  N   UNL     1       3.028   2.708  17.633  0.00  0.00    +0.000 N 
ATOM     14  H   UNL     1       2.497   2.007  18.158  0.00  0.00    +0.000 HD
ATOM     15  H   UNL     1       2.364   3.431  17.357  0.00  0.00    +0.000 HD
ENDBRANCH   6  13
ENDBRANCH   1   2
BRANCH   1  16
ATOM     16  C   UNL     1       2.198   3.355  21.724  0.00  0.00    +0.000 C 
BRANCH  16  18
ATOM     17  N   UNL     1       2.403   5.626  20.875  0.00  0.00    +0.000 N 
ATOM     18  C   UNL     1       1.654   4.456  20.829  0.00  0.00    +0.000 C 
ATOM     19  O   UNL     1       0.657   4.261  20.139  0.00  0.00    +0.000 OA
ATOM     20  H   UNL     1       3.329   5.558  21.292  0.00  0.00    +0.000 HD
BRANCH  17  24
ATOM     21  C   UNL     1       1.603   9.119  18.642  0.00  0.00    +0.000 A 
ATOM     22  C   UNL     1       1.187   9.037  19.969  0.00  0.00    +0.000 A 
ATOM     23  C   UNL     1       1.457   7.900  20.731  0.00  0.00    +0.000 A 
ATOM     24  C   UNL     1       2.127   6.814  20.169  0.00  0.00    +0.000 A 
ATOM     25  C   UNL     1       2.551   6.899  18.836  0.00  0.00    +0.000 A 
ATOM     26  C   UNL     1       2.274   8.041  18.070  0.00  0.00    +0.000 A 
BRANCH  21  27
ATOM     27  O   UNL     1       1.278  10.288  18.015  0.00  0.00    +0.000 OA
BRANCH  27  29
ATOM     28  C   UNL     1       1.239  12.570  18.666  0.00  0.00    +0.000 C 
ATOM     29  C   UNL     1       2.127  11.407  18.265  0.00  0.00    +0.000 C 
ENDBRANCH  27  29
ENDBRANCH  21  27
ENDBRANCH  17  24
ENDBRANCH  16  18
ENDBRANCH   1  16
TORSDOF 8
ENDMDL
MODEL 9
REMARK VINA RESULT:      -7.0      1.163      1.817
REMARK  Name = 
REMARK  9 active torsions:
REMARK  status: ('A' for Active; 'I' for Inactive)
REMARK    1  A    between atoms: C_1  and  C_2
REMARK    2  A    between atoms: C_2  and  O_3
REMARK    3  A    between atoms: O_3  and  C_4
REMARK    4  A    between atoms: C_7  and  N_8
REMARK    5  A    between atoms: C_9  and  C_11
REMARK    6  A    between atoms: C_11  and  S_12
REMARK    7  A    between atoms: S_12  and  C_13
REMARK    8  A    between atoms: C_16  and  C_17
REMARK    9  A    between atoms: N_23  and  N_24
REMARK                            x       y       z     vdW  Elec       q    Type
REMARK                         _______ _______ _______ _____ _____    ______ ____
ROOT
ATOM      1  S   UNL     1       2.908   1.969  20.613  0.00  0.00    +0.000 S 
ENDROOT
BRANCH   1   2
ATOM      2  C   UNL     1       4.058   2.904  19.716  0.00  0.00    +0.000 A 
ATOM      3  N   UNL     1       5.151   3.462  20.177  0.00  0.00    +0.000 NA
ATOM      4  N   UNL     1       5.755   4.109  19.117  0.00  0.00    +0.000 NA
ATOM      5  C   UNL     1       5.025   3.908  18.025  0.00  0.00    +0.000 A 
ATOM      6  N   UNL     1       3.911   3.169  18.379  0.00  0.00    +0.000 N 
BRANCH   5   7
ATOM      7  C   UNL     1       5.306   4.392  16.675  0.00  0.00    +0.000 A 
ATOM      8  C   UNL     1       5.821   3.547  15.696  0.00  0.00    +0.000 A 
ATOM      9  C   UNL     1       6.109   4.077  14.440  0.00  0.00    +0.000 A 
ATOM     10  C   UNL     1       5.862   5.423  14.192  0.00  0.00    +0.000 A 
ATOM     11  C   UNL     1       5.327   6.188  15.214  0.00  0.00    +0.000 A 
ATOM     12  N   UNL     1       5.041   5.707  16.444  0.00  0.00    +0.000 NA
ENDBRANCH   5   7
BRANCH   6  13
ATOM     13  N   UNL     1       2.794   2.812  17.547  0.00  0.00    +0.000 N 
ATOM     14  H   UNL     1       2.304   2.015  17.964  0.00  0.00    +0.000 HD
ATOM     15  H   UNL     1       2.119   3.573  17.493  0.00  0.00    +0.000 HD
ENDBRANCH   6  13
ENDBRANCH   1   2
BRANCH   1  16
ATOM     16  C   UNL     1       2.175   3.231  21.688  0.00  0.00    +0.000 C 
BRANCH  16  18
ATOM     17  N   UNL     1       2.383   5.523  20.901  0.00  0.00    +0.000 N 
ATOM     18  C   UNL     1       1.599   4.377  20.873  0.00  0.00    +0.000 C 
ATOM     19  O   UNL     1       0.548   4.233  20.255  0.00  0.00    +0.000 OA
ATOM     20  H   UNL     1       3.336   5.416  21.244  0.00  0.00    +0.000 HD
BRANCH  17  24
ATOM     21  C   UNL     1       1.533   9.116  18.851  0.00  0.00    +0.000 A 
ATOM     22  C   UNL     1       1.128   8.963  20.175  0.00  0.00    +0.000 A 
ATOM     23  C   UNL     1       1.415   7.792  20.878  0.00  0.00    +0.000 A 
ATOM     24  C   UNL     1       2.090   6.743  20.257  0.00  0.00    +0.000 A 
ATOM     25  C   UNL     1       2.502   6.898  18.927  0.00  0.00    +0.000 A 
ATOM     26  C   UNL     1       2.209   8.074  18.221  0.00  0.00    +0.000 A 
BRANCH  21  27
ATOM     27  O   UNL     1       1.191  10.310  18.286  0.00  0.00    +0.000 OA
BRANCH  27  29
ATOM     28  C   UNL     1      -1.109  10.159  17.721  0.00  0.00    +0.000 C 
ATOM     29  C   UNL     1      -0.092  10.835  18.622  0.00  0.00    +0.000 C 
ENDBRANCH  27  29
ENDBRANCH  21  27
ENDBRANCH  17  24
ENDBRANCH  16  18
ENDBRANCH   1  16
TORSDOF 8
ENDMDL
