MODEL 1
REMARK VINA RESULT:      -8.1      0.000      0.000
REMARK  Name = 
REMARK  6 active torsions:
REMARK  status: ('A' for Active; 'I' for Inactive)
REMARK    1  A    between atoms: O_1  and  C_2
REMARK    2  A    between atoms: C_2  and  C_3
REMARK    3  A    between atoms: C_3  and  C_4
REMARK    4  A    between atoms: C_4  and  C_5
REMARK    5  A    between atoms: C_5  and  N_6
REMARK    6  A    between atoms: N_19  and  C_20
REMARK                            x       y       z     vdW  Elec       q    Type
REMARK                         _______ _______ _______ _____ _____    ______ ____
ROOT
ATOM      1  N   UNL     1       6.048   4.785  15.940  0.00  0.00    +0.000 NA
ATOM      2  C   UNL     1       5.404   6.017  15.487  0.00  0.00    +0.000 C 
ATOM      3  C   UNL     1       4.474   6.738  16.482  0.00  0.00    +0.000 C 
ATOM      4  C   UNL     1       3.914   5.801  17.545  0.00  0.00    +0.000 C 
ATOM      5  C   UNL     1       3.792   4.401  16.922  0.00  0.00    +0.000 C 
ATOM      6  C   UNL     1       5.183   3.852  16.681  0.00  0.00    +0.000 C 
ATOM      7  C   UNL     1       2.940   3.748  17.955  0.00  0.00    +0.000 A 
ATOM      8  C   UNL     1       2.765   2.395  18.203  0.00  0.00    +0.000 A 
ATOM      9  C   UNL     1       1.846   2.041  19.179  0.00  0.00    +0.000 A 
ATOM     10  F   UNL     1       1.646   0.745  19.455  0.00  0.00    +0.000 F 
ATOM     11  C   UNL     1       1.106   3.009  19.864  0.00  0.00    +0.000 A 
ATOM     12  C   UNL     1       1.277   4.373  19.577  0.00  0.00    +0.000 A 
ATOM     13  C   UNL     1       2.222   4.752  18.635  0.00  0.00    +0.000 A 
ATOM     14  N   UNL     1       2.575   6.069  18.171  0.00  0.00    +0.000 N 
ENDROOT
BRANCH  14  15
ATOM     15  C   UNL     1       2.225   7.333  18.663  0.00  0.00    +0.000 A 
ATOM     16  C   UNL     1       1.980   7.591  20.021  0.00  0.00    +0.000 A 
ATOM     17  C   UNL     1       1.498   8.832  20.464  0.00  0.00    +0.000 A 
ATOM     18  C   UNL     1       1.297   9.857  19.553  0.00  0.00    +0.000 A 
ATOM     19  F   UNL     1       0.834  11.040  19.968  0.00  0.00    +0.000 F 
ATOM     20  C   UNL     1       1.558   9.658  18.209  0.00  0.00    +0.000 A 
ATOM     21  C   UNL     1       1.999   8.402  17.778  0.00  0.00    +0.000 A 
ENDBRANCH  14  15
BRANCH   1  22
ATOM     22  C   UNL     1       7.373   4.984  16.531  0.00  0.00    +0.000 C 
BRANCH  22  23
ATOM     23  C   UNL     1       7.448   4.652  18.032  0.00  0.00    +0.000 C 
BRANCH  23  24
ATOM     24  C   UNL     1       7.451   5.896  18.932  0.00  0.00    +0.000 C 
BRANCH  24  25
ATOM     25  C   UNL     1       7.849   7.149  18.166  0.00  0.00    +0.000 C 
BRANCH  25  26
ATOM     26  O   UNL     1       8.687   7.962  18.978  0.00  0.00    +0.000 OA
ATOM     27  H   UNL     1       9.580   7.921  18.597  0.00  0.00    +0.000 HD
ENDBRANCH  25  26
ENDBRANCH  24  25
ENDBRANCH  23  24
ENDBRANCH  22  23
ENDBRANCH   1  22
TORSDOF 6
ENDMDL
MODEL 2
REMARK VINA RESULT:      -7.8      0.912      1.059
REMARK  Name = 
REMARK  6 active torsions:
REMARK  status: ('A' for Active; 'I' for Inactive)
REMARK    1  A    between atoms: O_1  and  C_2
REMARK    2  A    between atoms: C_2  and  C_3
REMARK    3  A    between atoms: C_3  and  C_4
REMARK    4  A    between atoms: C_4  and  C_5
REMARK    5  A    between atoms: C_5  and  N_6
REMARK    6  A    between atoms: N_19  and  C_20
REMARK                            x       y       z     vdW  Elec       q    Type
REMARK                         _______ _______ _______ _____ _____    ______ ____
ROOT
ATOM      1  N   UNL     1       5.952   4.788  16.345  0.00  0.00    +0.000 NA
ATOM      2  C   UNL     1       5.270   5.923  15.722  0.00  0.00    +0.000 C 
ATOM      3  C   UNL     1       4.361   6.784  16.621  0.00  0.00    +0.000 C 
ATOM      4  C   UNL     1       3.855   6.026  17.841  0.00  0.00    +0.000 C 
ATOM      5  C   UNL     1       3.737   4.541  17.458  0.00  0.00    +0.000 C 
ATOM      6  C   UNL     1       5.129   3.978  17.258  0.00  0.00    +0.000 C 
ATOM      7  C   UNL     1       2.933   4.054  18.613  0.00  0.00    +0.000 A 
ATOM      8  C   UNL     1       2.791   2.758  19.084  0.00  0.00    +0.000 A 
ATOM      9  C   UNL     1       1.912   2.556  20.137  0.00  0.00    +0.000 A 
ATOM     10  F   UNL     1       1.746   1.320  20.626  0.00  0.00    +0.000 F 
ATOM     11  C   UNL     1       1.179   3.613  20.683  0.00  0.00    +0.000 A 
ATOM     12  C   UNL     1       1.316   4.914  20.172  0.00  0.00    +0.000 A 
ATOM     13  C   UNL     1       2.222   5.147  19.148  0.00  0.00    +0.000 A 
ATOM     14  N   UNL     1       2.534   6.375  18.464  0.00  0.00    +0.000 N 
ENDROOT
BRANCH  14  15
ATOM     15  C   UNL     1       2.178   7.698  18.757  0.00  0.00    +0.000 A 
ATOM     16  C   UNL     1       1.659   8.099  19.999  0.00  0.00    +0.000 A 
ATOM     17  C   UNL     1       1.185   9.402  20.216  0.00  0.00    +0.000 A 
ATOM     18  C   UNL     1       1.265  10.342  19.202  0.00  0.00    +0.000 A 
ATOM     19  F   UNL     1       0.811  11.584  19.401  0.00  0.00    +0.000 F 
ATOM     20  C   UNL     1       1.801   9.999  17.973  0.00  0.00    +0.000 A 
ATOM     21  C   UNL     1       2.232   8.686  17.758  0.00  0.00    +0.000 A 
ENDBRANCH  14  15
BRANCH   1  22
ATOM     22  C   UNL     1       7.292   5.097  16.847  0.00  0.00    +0.000 C 
BRANCH  22  23
ATOM     23  C   UNL     1       7.507   6.582  17.191  0.00  0.00    +0.000 C 
BRANCH  23  24
ATOM     24  C   UNL     1       7.874   6.820  18.663  0.00  0.00    +0.000 C 
BRANCH  24  25
ATOM     25  C   UNL     1       7.488   5.638  19.541  0.00  0.00    +0.000 C 
BRANCH  25  26
ATOM     26  O   UNL     1       8.576   5.295  20.390  0.00  0.00    +0.000 OA
ATOM     27  H   UNL     1       9.101   4.623  19.925  0.00  0.00    +0.000 HD
ENDBRANCH  25  26
ENDBRANCH  24  25
ENDBRANCH  23  24
ENDBRANCH  22  23
ENDBRANCH   1  22
TORSDOF 6
ENDMDL
MODEL 3
REMARK VINA RESULT:      -7.5      0.956      1.154
REMARK  Name = 
REMARK  6 active torsions:
REMARK  status: ('A' for Active; 'I' for Inactive)
REMARK    1  A    between atoms: O_1  and  C_2
REMARK    2  A    between atoms: C_2  and  C_3
REMARK    3  A    between atoms: C_3  and  C_4
REMARK    4  A    between atoms: C_4  and  C_5
REMARK    5  A    between atoms: C_5  and  N_6
REMARK    6  A    between atoms: N_19  and  C_20
REMARK                            x       y       z     vdW  Elec       q    Type
REMARK                         _______ _______ _______ _____ _____    ______ ____
ROOT
ATOM      1  N   UNL     1       5.898   5.447  16.596  0.00  0.00    +0.000 NA
ATOM      2  C   UNL     1       5.184   6.655  16.181  0.00  0.00    +0.000 C 
ATOM      3  C   UNL     1       4.202   7.281  17.191  0.00  0.00    +0.000 C 
ATOM      4  C   UNL     1       3.691   6.273  18.213  0.00  0.00    +0.000 C 
ATOM      5  C   UNL     1       3.660   4.892  17.538  0.00  0.00    +0.000 C 
ATOM      6  C   UNL     1       5.084   4.438  17.292  0.00  0.00    +0.000 C 
ATOM      7  C   UNL     1       2.840   4.151  18.536  0.00  0.00    +0.000 A 
ATOM      8  C   UNL     1       2.745   2.781  18.733  0.00  0.00    +0.000 A 
ATOM      9  C   UNL     1       1.840   2.337  19.685  0.00  0.00    +0.000 A 
ATOM     10  F   UNL     1       1.717   1.022  19.911  0.00  0.00    +0.000 F 
ATOM     11  C   UNL     1       1.037   3.233  20.396  0.00  0.00    +0.000 A 
ATOM     12  C   UNL     1       1.128   4.613  20.160  0.00  0.00    +0.000 A 
ATOM     13  C   UNL     1       2.057   5.084  19.244  0.00  0.00    +0.000 A 
ATOM     14  N   UNL     1       2.333   6.436  18.832  0.00  0.00    +0.000 N 
ENDROOT
BRANCH  14  15
ATOM     15  C   UNL     1       1.902   7.657  19.366  0.00  0.00    +0.000 A 
ATOM     16  C   UNL     1       1.659   7.858  20.735  0.00  0.00    +0.000 A 
ATOM     17  C   UNL     1       1.099   9.049  21.220  0.00  0.00    +0.000 A 
ATOM     18  C   UNL     1       0.812  10.083  20.343  0.00  0.00    +0.000 A 
ATOM     19  F   UNL     1       0.274  11.218  20.799  0.00  0.00    +0.000 F 
ATOM     20  C   UNL     1       1.066   9.941  18.991  0.00  0.00    +0.000 A 
ATOM     21  C   UNL     1       1.588   8.733  18.516  0.00  0.00    +0.000 A 
ENDBRANCH  14  15
BRANCH   1  22
ATOM     22  C   UNL     1       7.202   5.705  17.208  0.00  0.00    +0.000 C 
BRANCH  22  23
ATOM     23  C   UNL     1       7.668   7.169  17.105  0.00  0.00    +0.000 C 
BRANCH  23  24
ATOM     24  C   UNL     1       8.162   7.746  18.439  0.00  0.00    +0.000 C 
BRANCH  24  25
ATOM     25  C   UNL     1       8.467   9.234  18.333  0.00  0.00    +0.000 C 
BRANCH  25  26
ATOM     26  O   UNL     1       9.298   9.631  19.417  0.00  0.00    +0.000 OA
ATOM     27  H   UNL     1       8.785   9.504  20.232  0.00  0.00    +0.000 HD
ENDBRANCH  25  26
ENDBRANCH  24  25
ENDBRANCH  23  24
ENDBRANCH  22  23
ENDBRANCH   1  22
TORSDOF 6
ENDMDL
MODEL 4
REMARK VINA RESULT:      -7.3      1.437      1.874
REMARK  Name = 
REMARK  6 active torsions:
REMARK  status: ('A' for Active; 'I' for Inactive)
REMARK    1  A    between atoms: O_1  and  C_2
REMARK    2  A    between atoms: C_2  and  C_3
REMARK    3  A    between atoms: C_3  and  C_4
REMARK    4  A    between atoms: C_4  and  C_5
REMARK    5  A    between atoms: C_5  and  N_6
REMARK    6  A    between atoms: N_19  and  C_20
REMARK                            x       y       z     vdW  Elec       q    Type
REMARK                         _______ _______ _______ _____ _____    ______ ____
ROOT
ATOM      1  N   UNL     1       6.393   5.324  17.169  0.00  0.00    +0.000 NA
ATOM      2  C   UNL     1       5.541   6.201  16.365  0.00  0.00    +0.000 C 
ATOM      3  C   UNL     1       4.420   6.965  17.097  0.00  0.00    +0.000 C 
ATOM      4  C   UNL     1       3.995   6.285  18.392  0.00  0.00    +0.000 C 
ATOM      5  C   UNL     1       4.203   4.771  18.219  0.00  0.00    +0.000 C 
ATOM      6  C   UNL     1       5.689   4.488  18.155  0.00  0.00    +0.000 C 
ATOM      7  C   UNL     1       3.437   4.283  19.399  0.00  0.00    +0.000 A 
ATOM      8  C   UNL     1       3.526   3.058  20.043  0.00  0.00    +0.000 A 
ATOM      9  C   UNL     1       2.637   2.818  21.079  0.00  0.00    +0.000 A 
ATOM     10  F   UNL     1       2.689   1.649  21.732  0.00  0.00    +0.000 F 
ATOM     11  C   UNL     1       1.672   3.763  21.441  0.00  0.00    +0.000 A 
ATOM     12  C   UNL     1       1.579   4.985  20.757  0.00  0.00    +0.000 A 
ATOM     13  C   UNL     1       2.486   5.265  19.746  0.00  0.00    +0.000 A 
ATOM     14  N   UNL     1       2.592   6.431  18.907  0.00  0.00    +0.000 N 
ENDROOT
BRANCH  14  15
ATOM     15  C   UNL     1       1.960   7.678  18.996  0.00  0.00    +0.000 A 
ATOM     16  C   UNL     1       1.770   8.526  17.893  0.00  0.00    +0.000 A 
ATOM     17  C   UNL     1       1.258   9.824  18.039  0.00  0.00    +0.000 A 
ATOM     18  C   UNL     1       0.882  10.280  19.292  0.00  0.00    +0.000 A 
ATOM     19  F   UNL     1       0.397  11.518  19.437  0.00  0.00    +0.000 F 
ATOM     20  C   UNL     1       1.020   9.465  20.401  0.00  0.00    +0.000 A 
ATOM     21  C   UNL     1       1.570   8.188  20.247  0.00  0.00    +0.000 A 
ENDBRANCH  14  15
BRANCH   1  22
ATOM     22  C   UNL     1       7.607   5.968  17.673  0.00  0.00    +0.000 C 
BRANCH  22  23
ATOM     23  C   UNL     1       7.643   7.493  17.466  0.00  0.00    +0.000 C 
BRANCH  23  24
ATOM     24  C   UNL     1       8.437   8.236  18.549  0.00  0.00    +0.000 C 
BRANCH  24  25
ATOM     25  C   UNL     1       8.568   9.720  18.237  0.00  0.00    +0.000 C 
BRANCH  25  26
ATOM     26  O   UNL     1       9.311  10.363  19.265  0.00  0.00    +0.000 OA
ATOM     27  H   UNL     1       9.936   9.708  19.618  0.00  0.00    +0.000 HD
ENDBRANCH  25  26
ENDBRANCH  24  25
ENDBRANCH  23  24
ENDBRANCH  22  23
ENDBRANCH   1  22
TORSDOF 6
ENDMDL
MODEL 5
REMARK VINA RESULT:      -7.0      2.731      4.993
REMARK  Name = 
REMARK  6 active torsions:
REMARK  status: ('A' for Active; 'I' for Inactive)
REMARK    1  A    between atoms: O_1  and  C_2
REMARK    2  A    between atoms: C_2  and  C_3
REMARK    3  A    between atoms: C_3  and  C_4
REMARK    4  A    between atoms: C_4  and  C_5
REMARK    5  A    between atoms: C_5  and  N_6
REMARK    6  A    between atoms: N_19  and  C_20
REMARK                            x       y       z     vdW  Elec       q    Type
REMARK                         _______ _______ _______ _____ _____    ______ ____
ROOT
ATOM      1  N   UNL     1       2.967   2.683  20.863  0.00  0.00    +0.000 NA
ATOM      2  C   UNL     1       2.539   3.818  21.681  0.00  0.00    +0.000 C 
ATOM      3  C   UNL     1       2.214   5.136  20.951  0.00  0.00    +0.000 C 
ATOM      4  C   UNL     1       2.917   5.248  19.603  0.00  0.00    +0.000 C 
ATOM      5  C   UNL     1       4.244   4.477  19.698  0.00  0.00    +0.000 C 
ATOM      6  C   UNL     1       3.940   2.997  19.804  0.00  0.00    +0.000 C 
ATOM      7  C   UNL     1       4.907   4.979  18.463  0.00  0.00    +0.000 A 
ATOM      8  C   UNL     1       5.958   4.417  17.754  0.00  0.00    +0.000 A 
ATOM      9  C   UNL     1       6.449   5.131  16.672  0.00  0.00    +0.000 A 
ATOM     10  F   UNL     1       7.462   4.624  15.956  0.00  0.00    +0.000 F 
ATOM     11  C   UNL     1       5.924   6.380  16.327  0.00  0.00    +0.000 A 
ATOM     12  C   UNL     1       4.879   6.944  17.075  0.00  0.00    +0.000 A 
ATOM     13  C   UNL     1       4.343   6.229  18.136  0.00  0.00    +0.000 A 
ATOM     14  N   UNL     1       3.284   6.592  19.043  0.00  0.00    +0.000 N 
ENDROOT
BRANCH  14  15
ATOM     15  C   UNL     1       2.372   7.654  19.000  0.00  0.00    +0.000 A 
ATOM     16  C   UNL     1       2.047   8.344  17.822  0.00  0.00    +0.000 A 
ATOM     17  C   UNL     1       1.235   9.489  17.835  0.00  0.00    +0.000 A 
ATOM     18  C   UNL     1       0.695   9.937  19.030  0.00  0.00    +0.000 A 
ATOM     19  F   UNL     1      -0.075  11.029  19.050  0.00  0.00    +0.000 F 
ATOM     20  C   UNL     1       0.962   9.267  20.211  0.00  0.00    +0.000 A 
ATOM     21  C   UNL     1       1.805   8.151  20.188  0.00  0.00    +0.000 A 
ENDBRANCH  14  15
BRANCH   1  22
ATOM     22  C   UNL     1       1.875   1.803  20.444  0.00  0.00    +0.000 C 
BRANCH  22  23
ATOM     23  C   UNL     1       1.599   1.820  18.929  0.00  0.00    +0.000 C 
BRANCH  23  24
ATOM     24  C   UNL     1       0.571   2.879  18.509  0.00  0.00    +0.000 C 
BRANCH  24  25
ATOM     25  C   UNL     1       1.157   3.875  17.517  0.00  0.00    +0.000 C 
BRANCH  25  26
ATOM     26  O   UNL     1       2.207   3.259  16.783  0.00  0.00    +0.000 OA
ATOM     27  H   UNL     1       2.485   2.476  17.284  0.00  0.00    +0.000 HD
ENDBRANCH  25  26
ENDBRANCH  24  25
ENDBRANCH  23  24
ENDBRANCH  22  23
ENDBRANCH   1  22
TORSDOF 6
ENDMDL
MODEL 6
REMARK VINA RESULT:      -7.0      3.778      6.244
REMARK  Name = 
REMARK  6 active torsions:
REMARK  status: ('A' for Active; 'I' for Inactive)
REMARK    1  A    between atoms: O_1  and  C_2
REMARK    2  A    between atoms: C_2  and  C_3
REMARK    3  A    between atoms: C_3  and  C_4
REMARK    4  A    between atoms: C_4  and  C_5
REMARK    5  A    between atoms: C_5  and  N_6
REMARK    6  A    between atoms: N_19  and  C_20
REMARK                            x       y       z     vdW  Elec       q    Type
REMARK                         _______ _______ _______ _____ _____    ______ ____
ROOT
ATOM      1  N   UNL     1       3.045   3.584  18.379  0.00  0.00    +0.000 NA
ATOM      2  C   UNL     1       4.057   3.853  19.401  0.00  0.00    +0.000 C 
ATOM      3  C   UNL     1       5.132   4.908  19.074  0.00  0.00    +0.000 C 
ATOM      4  C   UNL     1       5.335   5.093  17.575  0.00  0.00    +0.000 C 
ATOM      5  C   UNL     1       5.035   3.750  16.889  0.00  0.00    +0.000 C 
ATOM      6  C   UNL     1       3.551   3.467  17.002  0.00  0.00    +0.000 C 
ATOM      7  C   UNL     1       5.604   4.031  15.543  0.00  0.00    +0.000 A 
ATOM      8  C   UNL     1       5.339   3.393  14.340  0.00  0.00    +0.000 A 
ATOM      9  C   UNL     1       6.068   3.796  13.232  0.00  0.00    +0.000 A 
ATOM     10  F   UNL     1       5.843   3.210  12.048  0.00  0.00    +0.000 F 
ATOM     11  C   UNL     1       7.050   4.787  13.330  0.00  0.00    +0.000 A 
ATOM     12  C   UNL     1       7.323   5.400  14.563  0.00  0.00    +0.000 A 
ATOM     13  C   UNL     1       6.576   5.044  15.676  0.00  0.00    +0.000 A 
ATOM     14  N   UNL     1       6.668   5.520  17.032  0.00  0.00    +0.000 N 
ENDROOT
BRANCH  14  15
ATOM     15  C   UNL     1       7.379   6.600  17.572  0.00  0.00    +0.000 A 
ATOM     16  C   UNL     1       8.132   6.514  18.754  0.00  0.00    +0.000 A 
ATOM     17  C   UNL     1       8.719   7.645  19.341  0.00  0.00    +0.000 A 
ATOM     18  C   UNL     1       8.598   8.881  18.727  0.00  0.00    +0.000 A 
ATOM     19  F   UNL     1       9.152   9.963  19.284  0.00  0.00    +0.000 F 
ATOM     20  C   UNL     1       7.894   9.006  17.543  0.00  0.00    +0.000 A 
ATOM     21  C   UNL     1       7.280   7.877  16.990  0.00  0.00    +0.000 A 
ENDBRANCH  14  15
BRANCH   1  22
ATOM     22  C   UNL     1       1.830   4.389  18.515  0.00  0.00    +0.000 C 
BRANCH  22  23
ATOM     23  C   UNL     1       1.234   4.393  19.934  0.00  0.00    +0.000 C 
BRANCH  23  24
ATOM     24  C   UNL     1       0.747   3.012  20.395  0.00  0.00    +0.000 C 
BRANCH  24  25
ATOM     25  C   UNL     1       1.573   2.480  21.558  0.00  0.00    +0.000 C 
BRANCH  25  26
ATOM     26  O   UNL     1       2.185   3.564  22.247  0.00  0.00    +0.000 OA
ATOM     27  H   UNL     1       1.658   3.728  23.047  0.00  0.00    +0.000 HD
ENDBRANCH  25  26
ENDBRANCH  24  25
ENDBRANCH  23  24
ENDBRANCH  22  23
ENDBRANCH   1  22
TORSDOF 6
ENDMDL
MODEL 7
REMARK VINA RESULT:      -6.9      4.033      6.375
REMARK  Name = 
REMARK  6 active torsions:
REMARK  status: ('A' for Active; 'I' for Inactive)
REMARK    1  A    between atoms: O_1  and  C_2
REMARK    2  A    between atoms: C_2  and  C_3
REMARK    3  A    between atoms: C_3  and  C_4
REMARK    4  A    between atoms: C_4  and  C_5
REMARK    5  A    between atoms: C_5  and  N_6
REMARK    6  A    between atoms: N_19  and  C_20
REMARK                            x       y       z     vdW  Elec       q    Type
REMARK                         _______ _______ _______ _____ _____    ______ ____
ROOT
ATOM      1  N   UNL     1       3.103   3.183  18.054  0.00  0.00    +0.000 NA
ATOM      2  C   UNL     1       4.037   3.497  19.135  0.00  0.00    +0.000 C 
ATOM      3  C   UNL     1       5.033   4.650  18.898  0.00  0.00    +0.000 C 
ATOM      4  C   UNL     1       5.293   4.906  17.419  0.00  0.00    +0.000 C 
ATOM      5  C   UNL     1       5.141   3.568  16.675  0.00  0.00    +0.000 C 
ATOM      6  C   UNL     1       3.683   3.159  16.701  0.00  0.00    +0.000 C 
ATOM      7  C   UNL     1       5.750   3.945  15.370  0.00  0.00    +0.000 A 
ATOM      8  C   UNL     1       5.600   3.331  14.135  0.00  0.00    +0.000 A 
ATOM      9  C   UNL     1       6.346   3.834  13.080  0.00  0.00    +0.000 A 
ATOM     10  F   UNL     1       6.230   3.274  11.868  0.00  0.00    +0.000 F 
ATOM     11  C   UNL     1       7.233   4.899  13.261  0.00  0.00    +0.000 A 
ATOM     12  C   UNL     1       7.392   5.487  14.526  0.00  0.00    +0.000 A 
ATOM     13  C   UNL     1       6.625   5.029  15.586  0.00  0.00    +0.000 A 
ATOM     14  N   UNL     1       6.610   5.462  16.960  0.00  0.00    +0.000 N 
ENDROOT
BRANCH  14  15
ATOM     15  C   UNL     1       7.199   6.576  17.571  0.00  0.00    +0.000 A 
ATOM     16  C   UNL     1       7.134   7.873  17.035  0.00  0.00    +0.000 A 
ATOM     17  C   UNL     1       7.848   8.942  17.597  0.00  0.00    +0.000 A 
ATOM     18  C   UNL     1       8.607   8.739  18.738  0.00  0.00    +0.000 A 
ATOM     19  F   UNL     1       9.294   9.752  19.276  0.00  0.00    +0.000 F 
ATOM     20  C   UNL     1       8.672   7.485  19.319  0.00  0.00    +0.000 A 
ATOM     21  C   UNL     1       7.987   6.420  18.725  0.00  0.00    +0.000 A 
ENDBRANCH  14  15
BRANCH   1  22
ATOM     22  C   UNL     1       1.819   3.878  18.152  0.00  0.00    +0.000 C 
BRANCH  22  23
ATOM     23  C   UNL     1       0.763   3.134  18.989  0.00  0.00    +0.000 C 
BRANCH  23  24
ATOM     24  C   UNL     1       0.729   3.575  20.459  0.00  0.00    +0.000 C 
BRANCH  24  25
ATOM     25  C   UNL     1       1.437   2.579  21.366  0.00  0.00    +0.000 C 
BRANCH  25  26
ATOM     26  O   UNL     1       2.235   3.277  22.315  0.00  0.00    +0.000 OA
ATOM     27  H   UNL     1       3.082   2.806  22.376  0.00  0.00    +0.000 HD
ENDBRANCH  25  26
ENDBRANCH  24  25
ENDBRANCH  23  24
ENDBRANCH  22  23
ENDBRANCH   1  22
TORSDOF 6
ENDMDL
MODEL 8
REMARK VINA RESULT:      -6.9      1.096      1.490
REMARK  Name = 
REMARK  6 active torsions:
REMARK  status: ('A' for Active; 'I' for Inactive)
REMARK    1  A    between atoms: O_1  and  C_2
REMARK    2  A    between atoms: C_2  and  C_3
REMARK    3  A    between atoms: C_3  and  C_4
REMARK    4  A    between atoms: C_4  and  C_5
REMARK    5  A    between atoms: C_5  and  N_6
REMARK    6  A    between atoms: N_19  and  C_20
REMARK                            x       y       z     vdW  Elec       q    Type
REMARK                         _______ _______ _______ _____ _____    ______ ____
ROOT
ATOM      1  N   UNL     1       5.661   5.604  16.170  0.00  0.00    +0.000 NA
ATOM      2  C   UNL     1       4.893   6.816  15.884  0.00  0.00    +0.000 C 
ATOM      3  C   UNL     1       3.969   7.349  16.996  0.00  0.00    +0.000 C 
ATOM      4  C   UNL     1       3.551   6.264  17.981  0.00  0.00    +0.000 C 
ATOM      5  C   UNL     1       3.505   4.929  17.219  0.00  0.00    +0.000 C 
ATOM      6  C   UNL     1       4.918   4.530  16.850  0.00  0.00    +0.000 C 
ATOM      7  C   UNL     1       2.772   4.103  18.218  0.00  0.00    +0.000 A 
ATOM      8  C   UNL     1       2.721   2.722  18.330  0.00  0.00    +0.000 A 
ATOM      9  C   UNL     1       1.893   2.192  19.308  0.00  0.00    +0.000 A 
ATOM     10  F   UNL     1       1.815   0.863  19.454  0.00  0.00    +0.000 F 
ATOM     11  C   UNL     1       1.120   3.019  20.129  0.00  0.00    +0.000 A 
ATOM     12  C   UNL     1       1.164   4.413  19.980  0.00  0.00    +0.000 A 
ATOM     13  C   UNL     1       2.017   4.967  19.038  0.00  0.00    +0.000 A 
ATOM     14  N   UNL     1       2.235   6.350  18.699  0.00  0.00    +0.000 N 
ENDROOT
BRANCH  14  15
ATOM     15  C   UNL     1       1.814   7.522  19.340  0.00  0.00    +0.000 A 
ATOM     16  C   UNL     1       1.601   8.736  18.666  0.00  0.00    +0.000 A 
ATOM     17  C   UNL     1       1.313   9.924  19.355  0.00  0.00    +0.000 A 
ATOM     18  C   UNL     1       1.188   9.907  20.735  0.00  0.00    +0.000 A 
ATOM     19  F   UNL     1       0.919  11.036  21.397  0.00  0.00    +0.000 F 
ATOM     20  C   UNL     1       1.357   8.727  21.436  0.00  0.00    +0.000 A 
ATOM     21  C   UNL     1       1.683   7.558  20.740  0.00  0.00    +0.000 A 
ENDBRANCH  14  15
BRANCH   1  22
ATOM     22  C   UNL     1       6.997   5.856  16.710  0.00  0.00    +0.000 C 
BRANCH  22  23
ATOM     23  C   UNL     1       7.418   4.883  17.826  0.00  0.00    +0.000 C 
BRANCH  23  24
ATOM     24  C   UNL     1       7.194   5.441  19.238  0.00  0.00    +0.000 C 
BRANCH  24  25
ATOM     25  C   UNL     1       8.501   5.589  20.004  0.00  0.00    +0.000 C 
BRANCH  25  26
ATOM     26  O   UNL     1       8.317   5.172  21.352  0.00  0.00    +0.000 OA
ATOM     27  H   UNL     1       7.785   5.855  21.791  0.00  0.00    +0.000 HD
ENDBRANCH  25  26
ENDBRANCH  24  25
ENDBRANCH  23  24
ENDBRANCH  22  23
ENDBRANCH   1  22
TORSDOF 6
ENDMDL
MODEL 9
REMARK VINA RESULT:      -6.8      1.190      1.380
REMARK  Name = 
REMARK  6 active torsions:
REMARK  status: ('A' for Active; 'I' for Inactive)
REMARK    1  A    between atoms: O_1  and  C_2
REMARK    2  A    between atoms: C_2  and  C_3
REMARK    3  A    between atoms: C_3  and  C_4
REMARK    4  A    between atoms: C_4  and  C_5
REMARK    5  A    between atoms: C_5  and  N_6
REMARK    6  A    between atoms: N_19  and  C_20
REMARK                            x       y       z     vdW  Elec       q    Type
REMARK                         _______ _______ _______ _____ _____    ______ ____
ROOT
ATOM      1  N   UNL     1       5.326   5.934  16.060  0.00  0.00    +0.000 NA
ATOM      2  C   UNL     1       4.533   7.154  15.912  0.00  0.00    +0.000 C 
ATOM      3  C   UNL     1       3.745   7.642  17.143  0.00  0.00    +0.000 C 
ATOM      4  C   UNL     1       3.441   6.520  18.127  0.00  0.00    +0.000 C 
ATOM      5  C   UNL     1       3.305   5.214  17.327  0.00  0.00    +0.000 C 
ATOM      6  C   UNL     1       4.665   4.833  16.781  0.00  0.00    +0.000 C 
ATOM      7  C   UNL     1       2.691   4.350  18.372  0.00  0.00    +0.000 A 
ATOM      8  C   UNL     1       2.650   2.965  18.436  0.00  0.00    +0.000 A 
ATOM      9  C   UNL     1       1.941   2.397  19.483  0.00  0.00    +0.000 A 
ATOM     10  F   UNL     1       1.878   1.063  19.587  0.00  0.00    +0.000 F 
ATOM     11  C   UNL     1       1.270   3.190  20.419  0.00  0.00    +0.000 A 
ATOM     12  C   UNL     1       1.299   4.590  20.319  0.00  0.00    +0.000 A 
ATOM     13  C   UNL     1       2.038   5.180  19.305  0.00  0.00    +0.000 A 
ATOM     14  N   UNL     1       2.218   6.576  18.996  0.00  0.00    +0.000 N 
ENDROOT
BRANCH  14  15
ATOM     15  C   UNL     1       1.876   7.722  19.725  0.00  0.00    +0.000 A 
ATOM     16  C   UNL     1       1.788   7.746  21.126  0.00  0.00    +0.000 A 
ATOM     17  C   UNL     1       1.311   8.870  21.818  0.00  0.00    +0.000 A 
ATOM     18  C   UNL     1       0.956  10.011  21.117  0.00  0.00    +0.000 A 
ATOM     19  F   UNL     1       0.498  11.083  21.770  0.00  0.00    +0.000 F 
ATOM     20  C   UNL     1       1.060  10.043  19.738  0.00  0.00    +0.000 A 
ATOM     21  C   UNL     1       1.498   8.901  19.059  0.00  0.00    +0.000 A 
ENDBRANCH  14  15
BRANCH   1  22
ATOM     22  C   UNL     1       6.717   6.169  16.452  0.00  0.00    +0.000 C 
BRANCH  22  23
ATOM     23  C   UNL     1       7.258   5.164  17.484  0.00  0.00    +0.000 C 
BRANCH  23  24
ATOM     24  C   UNL     1       7.904   5.833  18.706  0.00  0.00    +0.000 C 
BRANCH  24  25
ATOM     25  C   UNL     1       7.205   5.443  20.001  0.00  0.00    +0.000 C 
BRANCH  25  26
ATOM     26  O   UNL     1       8.159   5.351  21.052  0.00  0.00    +0.000 OA
ATOM     27  H   UNL     1       8.351   4.408  21.180  0.00  0.00    +0.000 HD
ENDBRANCH  25  26
ENDBRANCH  24  25
ENDBRANCH  23  24
ENDBRANCH  22  23
ENDBRANCH   1  22
TORSDOF 6
ENDMDL
