MODEL 1
REMARK VINA RESULT:      -8.1      0.000      0.000
REMARK  Name = 
REMARK  6 active torsions:
REMARK  status: ('A' for Active; 'I' for Inactive)
REMARK    1  A    between atoms: C_1  and  C_2
REMARK    2  A    between atoms: C_5  and  S_6
REMARK    3  A    between atoms: S_6  and  C_9
REMARK    4  A    between atoms: C_18  and  N_19
REMARK    5  A    between atoms: N_19  and  C_20
REMARK    6  A    between atoms: C_24  and  N_25
REMARK                            x       y       z     vdW  Elec       q    Type
REMARK                         _______ _______ _______ _____ _____    ______ ____
ROOT
ATOM      1  C   UNL     1       0.542  10.919  20.621  0.00  0.00    +0.000 A 
ATOM      2  N   UNL     1       1.523  11.790  21.011  0.00  0.00    +0.000 NA
ATOM      3  C   UNL     1       1.509  12.992  20.422  0.00  0.00    +0.000 A 
ATOM      4  C   UNL     1       2.464  13.939  20.764  0.00  0.00    +0.000 A 
ATOM      5  C   UNL     1       2.474  15.203  20.168  0.00  0.00    +0.000 A 
ATOM      6  C   UNL     1       1.515  15.519  19.214  0.00  0.00    +0.000 A 
ATOM      7  C   UNL     1       0.557  14.570  18.861  0.00  0.00    +0.000 A 
ATOM      8  C   UNL     1       0.538  13.312  19.450  0.00  0.00    +0.000 A 
ATOM      9  N   UNL     1      -0.401  12.421  19.085  0.00  0.00    +0.000 NA
ATOM     10  C   UNL     1      -0.411  11.183  19.647  0.00  0.00    +0.000 A 
ENDROOT
BRANCH   1  11
ATOM     11  S   UNL     1       0.714   9.323  21.359  0.00  0.00    +0.000 S 
ATOM     12  O   UNL     1      -0.625   8.775  21.520  0.00  0.00    +0.000 OA
ATOM     13  O   UNL     1       1.586   9.459  22.514  0.00  0.00    +0.000 OA
BRANCH  11  18
ATOM     14  C   UNL     1       3.808   5.877  17.412  0.00  0.00    +0.000 C 
ATOM     15  C   UNL     1       2.990   6.711  18.355  0.00  0.00    +0.000 A 
ATOM     16  C   UNL     1       2.566   7.999  17.995  0.00  0.00    +0.000 A 
ATOM     17  C   UNL     1       1.845   8.787  18.896  0.00  0.00    +0.000 A 
ATOM     18  C   UNL     1       1.553   8.287  20.168  0.00  0.00    +0.000 A 
ATOM     19  C   UNL     1       1.936   6.992  20.527  0.00  0.00    +0.000 A 
ATOM     20  C   UNL     1       2.657   6.208  19.621  0.00  0.00    +0.000 A 
ENDBRANCH  11  18
ENDBRANCH   1  11
BRANCH  10  21
ATOM     21  N   UNL     1      -1.457  10.301  19.282  0.00  0.00    +0.000 N 
ATOM     22  H   UNL     1      -1.152   9.323  19.307  0.00  0.00    +0.000 HD
BRANCH  21  23
ATOM     23  C   UNL     1      -2.268  10.493  18.130  0.00  0.00    +0.000 A 
ATOM     24  C   UNL     1      -1.894   9.908  16.918  0.00  0.00    +0.000 A 
ATOM     25  C   UNL     1      -2.672  10.102  15.773  0.00  0.00    +0.000 A 
ATOM     26  C   UNL     1      -3.823  10.892  15.829  0.00  0.00    +0.000 A 
ATOM     27  C   UNL     1      -4.217  11.483  17.029  0.00  0.00    +0.000 A 
ATOM     28  C   UNL     1      -3.387  11.343  18.145  0.00  0.00    +0.000 A 
BRANCH  27  29
ATOM     29  N   UNL     1      -5.297  12.377  17.064  0.00  0.00    +0.000 N 
ATOM     30  H   UNL     1      -5.933  12.202  17.836  0.00  0.00    +0.000 HD
ATOM     31  H   UNL     1      -5.004  13.349  17.029  0.00  0.00    +0.000 HD
ENDBRANCH  27  29
ENDBRANCH  21  23
ENDBRANCH  10  21
TORSDOF 5
ENDMDL
MODEL 2
REMARK VINA RESULT:      -8.0      4.263      7.855
REMARK  Name = 
REMARK  6 active torsions:
REMARK  status: ('A' for Active; 'I' for Inactive)
REMARK    1  A    between atoms: C_1  and  C_2
REMARK    2  A    between atoms: C_5  and  S_6
REMARK    3  A    between atoms: S_6  and  C_9
REMARK    4  A    between atoms: C_18  and  N_19
REMARK    5  A    between atoms: N_19  and  C_20
REMARK    6  A    between atoms: C_24  and  N_25
REMARK                            x       y       z     vdW  Elec       q    Type
REMARK                         _______ _______ _______ _____ _____    ______ ____
ROOT
ATOM      1  C   UNL     1       4.407   5.347  18.687  0.00  0.00    +0.000 A 
ATOM      2  N   UNL     1       4.607   4.147  19.313  0.00  0.00    +0.000 NA
ATOM      3  C   UNL     1       3.566   3.666  20.006  0.00  0.00    +0.000 A 
ATOM      4  C   UNL     1       3.681   2.451  20.666  0.00  0.00    +0.000 A 
ATOM      5  C   UNL     1       2.613   1.922  21.396  0.00  0.00    +0.000 A 
ATOM      6  C   UNL     1       1.416   2.623  21.466  0.00  0.00    +0.000 A 
ATOM      7  C   UNL     1       1.297   3.847  20.810  0.00  0.00    +0.000 A 
ATOM      8  C   UNL     1       2.352   4.379  20.080  0.00  0.00    +0.000 A 
ATOM      9  N   UNL     1       2.202   5.564  19.460  0.00  0.00    +0.000 NA
ATOM     10  C   UNL     1       3.240   6.095  18.761  0.00  0.00    +0.000 A 
ENDROOT
BRANCH   1  11
ATOM     11  S   UNL     1       5.867   5.959  17.903  0.00  0.00    +0.000 S 
ATOM     12  O   UNL     1       7.003   5.503  18.691  0.00  0.00    +0.000 OA
ATOM     13  O   UNL     1       5.678   7.379  17.657  0.00  0.00    +0.000 OA
BRANCH  11  18
ATOM     14  C   UNL     1       6.179   3.420  12.381  0.00  0.00    +0.000 C 
ATOM     15  C   UNL     1       6.118   3.989  13.770  0.00  0.00    +0.000 A 
ATOM     16  C   UNL     1       4.986   3.801  14.577  0.00  0.00    +0.000 A 
ATOM     17  C   UNL     1       4.918   4.373  15.850  0.00  0.00    +0.000 A 
ATOM     18  C   UNL     1       5.985   5.145  16.316  0.00  0.00    +0.000 A 
ATOM     19  C   UNL     1       7.135   5.310  15.538  0.00  0.00    +0.000 A 
ATOM     20  C   UNL     1       7.197   4.735  14.265  0.00  0.00    +0.000 A 
ENDBRANCH  11  18
ENDBRANCH   1  11
BRANCH  10  21
ATOM     21  N   UNL     1       3.016   7.310  18.069  0.00  0.00    +0.000 N 
ATOM     22  H   UNL     1       3.895   7.736  17.759  0.00  0.00    +0.000 HD
BRANCH  21  23
ATOM     23  C   UNL     1       2.164   8.337  18.560  0.00  0.00    +0.000 A 
ATOM     24  C   UNL     1       1.796   9.389  17.716  0.00  0.00    +0.000 A 
ATOM     25  C   UNL     1       0.973  10.415  18.189  0.00  0.00    +0.000 A 
ATOM     26  C   UNL     1       0.523  10.404  19.512  0.00  0.00    +0.000 A 
ATOM     27  C   UNL     1       0.875   9.363  20.370  0.00  0.00    +0.000 A 
ATOM     28  C   UNL     1       1.760   8.387  19.905  0.00  0.00    +0.000 A 
BRANCH  27  29
ATOM     29  N   UNL     1       0.532   9.411  21.729  0.00  0.00    +0.000 N 
ATOM     30  H   UNL     1      -0.314   8.892  21.944  0.00  0.00    +0.000 HD
ATOM     31  H   UNL     1       1.302   9.147  22.337  0.00  0.00    +0.000 HD
ENDBRANCH  27  29
ENDBRANCH  21  23
ENDBRANCH  10  21
TORSDOF 5
ENDMDL
MODEL 3
REMARK VINA RESULT:      -8.0      0.837      1.228
REMARK  Name = 
REMARK  6 active torsions:
REMARK  status: ('A' for Active; 'I' for Inactive)
REMARK    1  A    between atoms: C_1  and  C_2
REMARK    2  A    between atoms: C_5  and  S_6
REMARK    3  A    between atoms: S_6  and  C_9
REMARK    4  A    between atoms: C_18  and  N_19
REMARK    5  A    between atoms: N_19  and  C_20
REMARK    6  A    between atoms: C_24  and  N_25
REMARK                            x       y       z     vdW  Elec       q    Type
REMARK                         _______ _______ _______ _____ _____    ______ ____
ROOT
ATOM      1  C   UNL     1       0.548  10.920  20.545  0.00  0.00    +0.000 A 
ATOM      2  N   UNL     1       1.469  11.817  21.012  0.00  0.00    +0.000 NA
ATOM      3  C   UNL     1       1.462  13.023  20.430  0.00  0.00    +0.000 A 
ATOM      4  C   UNL     1       2.359  13.996  20.847  0.00  0.00    +0.000 A 
ATOM      5  C   UNL     1       2.375  15.264  20.260  0.00  0.00    +0.000 A 
ATOM      6  C   UNL     1       1.480  15.558  19.239  0.00  0.00    +0.000 A 
ATOM      7  C   UNL     1       0.581  14.583  18.811  0.00  0.00    +0.000 A 
ATOM      8  C   UNL     1       0.557  13.321  19.390  0.00  0.00    +0.000 A 
ATOM      9  N   UNL     1      -0.325  12.404  18.951  0.00  0.00    +0.000 NA
ATOM     10  C   UNL     1      -0.337  11.162  19.504  0.00  0.00    +0.000 A 
ENDROOT
BRANCH   1  11
ATOM     11  S   UNL     1       0.714   9.324  21.286  0.00  0.00    +0.000 S 
ATOM     12  O   UNL     1      -0.626   8.770  21.423  0.00  0.00    +0.000 OA
ATOM     13  O   UNL     1       1.565   9.464  22.456  0.00  0.00    +0.000 OA
BRANCH  11  18
ATOM     14  C   UNL     1       3.891   5.886  17.398  0.00  0.00    +0.000 C 
ATOM     15  C   UNL     1       3.053   6.720  18.324  0.00  0.00    +0.000 A 
ATOM     16  C   UNL     1       2.666   8.021  17.971  0.00  0.00    +0.000 A 
ATOM     17  C   UNL     1       1.926   8.808  18.858  0.00  0.00    +0.000 A 
ATOM     18  C   UNL     1       1.578   8.293  20.109  0.00  0.00    +0.000 A 
ATOM     19  C   UNL     1       1.923   6.985  20.460  0.00  0.00    +0.000 A 
ATOM     20  C   UNL     1       2.664   6.202  19.569  0.00  0.00    +0.000 A 
ENDBRANCH  11  18
ENDBRANCH   1  11
BRANCH  10  21
ATOM     21  N   UNL     1      -1.326  10.252  19.057  0.00  0.00    +0.000 N 
ATOM     22  H   UNL     1      -0.924   9.333  18.843  0.00  0.00    +0.000 HD
BRANCH  21  23
ATOM     23  C   UNL     1      -2.281  10.572  18.055  0.00  0.00    +0.000 A 
ATOM     24  C   UNL     1      -3.461  11.231  18.411  0.00  0.00    +0.000 A 
ATOM     25  C   UNL     1      -4.417  11.537  17.440  0.00  0.00    +0.000 A 
ATOM     26  C   UNL     1      -4.207  11.177  16.106  0.00  0.00    +0.000 A 
ATOM     27  C   UNL     1      -3.036  10.523  15.727  0.00  0.00    +0.000 A 
ATOM     28  C   UNL     1      -2.126  10.155  16.722  0.00  0.00    +0.000 A 
BRANCH  27  29
ATOM     29  N   UNL     1      -2.875  10.048  14.417  0.00  0.00    +0.000 N 
ATOM     30  H   UNL     1      -2.232   9.265  14.354  0.00  0.00    +0.000 HD
ATOM     31  H   UNL     1      -3.761   9.847  13.961  0.00  0.00    +0.000 HD
ENDBRANCH  27  29
ENDBRANCH  21  23
ENDBRANCH  10  21
TORSDOF 5
ENDMDL
MODEL 4
REMARK VINA RESULT:      -7.9      4.177      7.666
REMARK  Name = 
REMARK  6 active torsions:
REMARK  status: ('A' for Active; 'I' for Inactive)
REMARK    1  A    between atoms: C_1  and  C_2
REMARK    2  A    between atoms: C_5  and  S_6
REMARK    3  A    between atoms: S_6  and  C_9
REMARK    4  A    between atoms: C_18  and  N_19
REMARK    5  A    between atoms: N_19  and  C_20
REMARK    6  A    between atoms: C_24  and  N_25
REMARK                            x       y       z     vdW  Elec       q    Type
REMARK                         _______ _______ _______ _____ _____    ______ ____
ROOT
ATOM      1  C   UNL     1       4.332   5.531  18.623  0.00  0.00    +0.000 A 
ATOM      2  N   UNL     1       4.574   4.301  19.174  0.00  0.00    +0.000 NA
ATOM      3  C   UNL     1       3.577   3.776  19.897  0.00  0.00    +0.000 A 
ATOM      4  C   UNL     1       3.735   2.530  20.485  0.00  0.00    +0.000 A 
ATOM      5  C   UNL     1       2.712   1.954  21.244  0.00  0.00    +0.000 A 
ATOM      6  C   UNL     1       1.517   2.640  21.417  0.00  0.00    +0.000 A 
ATOM      7  C   UNL     1       1.354   3.895  20.833  0.00  0.00    +0.000 A 
ATOM      8  C   UNL     1       2.365   4.474  20.076  0.00  0.00    +0.000 A 
ATOM      9  N   UNL     1       2.173   5.688  19.528  0.00  0.00    +0.000 NA
ATOM     10  C   UNL     1       3.168   6.264  18.801  0.00  0.00    +0.000 A 
ENDROOT
BRANCH   1  11
ATOM     11  S   UNL     1       5.743   6.196  17.793  0.00  0.00    +0.000 S 
ATOM     12  O   UNL     1       6.911   5.869  18.599  0.00  0.00    +0.000 OA
ATOM     13  O   UNL     1       5.453   7.581  17.464  0.00  0.00    +0.000 OA
BRANCH  11  18
ATOM     14  C   UNL     1       6.240   3.366  12.429  0.00  0.00    +0.000 C 
ATOM     15  C   UNL     1       6.131   4.008  13.783  0.00  0.00    +0.000 A 
ATOM     16  C   UNL     1       4.966   3.875  14.553  0.00  0.00    +0.000 A 
ATOM     17  C   UNL     1       4.856   4.514  15.790  0.00  0.00    +0.000 A 
ATOM     18  C   UNL     1       5.913   5.298  16.257  0.00  0.00    +0.000 A 
ATOM     19  C   UNL     1       7.095   5.410  15.519  0.00  0.00    +0.000 A 
ATOM     20  C   UNL     1       7.200   4.768  14.281  0.00  0.00    +0.000 A 
ENDBRANCH  11  18
ENDBRANCH   1  11
BRANCH  10  21
ATOM     21  N   UNL     1       2.898   7.512  18.188  0.00  0.00    +0.000 N 
ATOM     22  H   UNL     1       3.759   8.036  18.003  0.00  0.00    +0.000 HD
BRANCH  21  23
ATOM     23  C   UNL     1       1.913   8.417  18.669  0.00  0.00    +0.000 A 
ATOM     24  C   UNL     1       1.767   8.611  20.045  0.00  0.00    +0.000 A 
ATOM     25  C   UNL     1       0.792   9.484  20.534  0.00  0.00    +0.000 A 
ATOM     26  C   UNL     1      -0.054  10.160  19.650  0.00  0.00    +0.000 A 
ATOM     27  C   UNL     1       0.075   9.985  18.274  0.00  0.00    +0.000 A 
ATOM     28  C   UNL     1       1.003   9.051  17.806  0.00  0.00    +0.000 A 
BRANCH  27  29
ATOM     29  N   UNL     1      -0.849  10.561  17.390  0.00  0.00    +0.000 N 
ATOM     30  H   UNL     1      -0.658  10.343  16.417  0.00  0.00    +0.000 HD
ATOM     31  H   UNL     1      -1.812  10.357  17.642  0.00  0.00    +0.000 HD
ENDBRANCH  27  29
ENDBRANCH  21  23
ENDBRANCH  10  21
TORSDOF 5
ENDMDL
MODEL 5
REMARK VINA RESULT:      -7.9      5.913      9.432
REMARK  Name = 
REMARK  6 active torsions:
REMARK  status: ('A' for Active; 'I' for Inactive)
REMARK    1  A    between atoms: C_1  and  C_2
REMARK    2  A    between atoms: C_5  and  S_6
REMARK    3  A    between atoms: S_6  and  C_9
REMARK    4  A    between atoms: C_18  and  N_19
REMARK    5  A    between atoms: N_19  and  C_20
REMARK    6  A    between atoms: C_24  and  N_25
REMARK                            x       y       z     vdW  Elec       q    Type
REMARK                         _______ _______ _______ _____ _____    ______ ____
ROOT
ATOM      1  C   UNL     1       6.067   4.721  16.632  0.00  0.00    +0.000 A 
ATOM      2  N   UNL     1       6.722   5.490  15.709  0.00  0.00    +0.000 NA
ATOM      3  C   UNL     1       6.812   4.976  14.475  0.00  0.00    +0.000 A 
ATOM      4  C   UNL     1       7.454   5.693  13.476  0.00  0.00    +0.000 A 
ATOM      5  C   UNL     1       7.563   5.185  12.178  0.00  0.00    +0.000 A 
ATOM      6  C   UNL     1       7.022   3.940  11.882  0.00  0.00    +0.000 A 
ATOM      7  C   UNL     1       6.381   3.213  12.883  0.00  0.00    +0.000 A 
ATOM      8  C   UNL     1       6.267   3.711  14.175  0.00  0.00    +0.000 A 
ATOM      9  N   UNL     1       5.641   2.981  15.116  0.00  0.00    +0.000 NA
ATOM     10  C   UNL     1       5.544   3.459  16.386  0.00  0.00    +0.000 A 
ENDROOT
BRANCH   1  11
ATOM     11  S   UNL     1       6.105   5.422  18.253  0.00  0.00    +0.000 S 
ATOM     12  O   UNL     1       7.174   6.410  18.271  0.00  0.00    +0.000 OA
ATOM     13  O   UNL     1       6.113   4.328  19.210  0.00  0.00    +0.000 OA
BRANCH  11  18
ATOM     14  C   UNL     1       1.036   8.681  19.097  0.00  0.00    +0.000 C 
ATOM     15  C   UNL     1       2.250   7.827  18.868  0.00  0.00    +0.000 A 
ATOM     16  C   UNL     1       2.639   6.860  19.806  0.00  0.00    +0.000 A 
ATOM     17  C   UNL     1       3.796   6.102  19.608  0.00  0.00    +0.000 A 
ATOM     18  C   UNL     1       4.574   6.319  18.468  0.00  0.00    +0.000 A 
ATOM     19  C   UNL     1       4.180   7.252  17.506  0.00  0.00    +0.000 A 
ATOM     20  C   UNL     1       3.021   8.008  17.710  0.00  0.00    +0.000 A 
ENDBRANCH  11  18
ENDBRANCH   1  11
BRANCH  10  21
ATOM     21  N   UNL     1       4.821   2.688  17.327  0.00  0.00    +0.000 N 
ATOM     22  H   UNL     1       4.833   1.691  17.088  0.00  0.00    +0.000 HD
BRANCH  21  23
ATOM     23  C   UNL     1       3.514   3.030  17.771  0.00  0.00    +0.000 A 
ATOM     24  C   UNL     1       2.699   3.829  16.965  0.00  0.00    +0.000 A 
ATOM     25  C   UNL     1       1.419   4.188  17.396  0.00  0.00    +0.000 A 
ATOM     26  C   UNL     1       0.949   3.761  18.641  0.00  0.00    +0.000 A 
ATOM     27  C   UNL     1       1.743   2.960  19.459  0.00  0.00    +0.000 A 
ATOM     28  C   UNL     1       3.048   2.675  19.048  0.00  0.00    +0.000 A 
BRANCH  27  29
ATOM     29  N   UNL     1       1.328   2.633  20.759  0.00  0.00    +0.000 N 
ATOM     30  H   UNL     1       0.994   3.435  21.283  0.00  0.00    +0.000 HD
ATOM     31  H   UNL     1       0.663   1.866  20.777  0.00  0.00    +0.000 HD
ENDBRANCH  27  29
ENDBRANCH  21  23
ENDBRANCH  10  21
TORSDOF 5
ENDMDL
MODEL 6
REMARK VINA RESULT:      -7.9      3.030      4.958
REMARK  Name = 
REMARK  6 active torsions:
REMARK  status: ('A' for Active; 'I' for Inactive)
REMARK    1  A    between atoms: C_1  and  C_2
REMARK    2  A    between atoms: C_5  and  S_6
REMARK    3  A    between atoms: S_6  and  C_9
REMARK    4  A    between atoms: C_18  and  N_19
REMARK    5  A    between atoms: N_19  and  C_20
REMARK    6  A    between atoms: C_24  and  N_25
REMARK                            x       y       z     vdW  Elec       q    Type
REMARK                         _______ _______ _______ _____ _____    ______ ____
ROOT
ATOM      1  C   UNL     1      -0.901  10.954  19.875  0.00  0.00    +0.000 A 
ATOM      2  N   UNL     1      -1.053  10.234  18.721  0.00  0.00    +0.000 NA
ATOM      3  C   UNL     1      -2.127  10.534  17.979  0.00  0.00    +0.000 A 
ATOM      4  C   UNL     1      -2.354   9.856  16.790  0.00  0.00    +0.000 A 
ATOM      5  C   UNL     1      -3.464  10.148  15.993  0.00  0.00    +0.000 A 
ATOM      6  C   UNL     1      -4.358  11.131  16.396  0.00  0.00    +0.000 A 
ATOM      7  C   UNL     1      -4.139  11.811  17.593  0.00  0.00    +0.000 A 
ATOM      8  C   UNL     1      -3.037  11.529  18.390  0.00  0.00    +0.000 A 
ATOM      9  N   UNL     1      -2.858  12.205  19.539  0.00  0.00    +0.000 NA
ATOM     10  C   UNL     1      -1.790  11.918  20.331  0.00  0.00    +0.000 A 
ENDROOT
BRANCH   1  11
ATOM     11  S   UNL     1       0.470  10.406  20.846  0.00  0.00    +0.000 S 
ATOM     12  O   UNL     1      -0.073   9.755  22.030  0.00  0.00    +0.000 OA
ATOM     13  O   UNL     1       1.388  11.523  20.989  0.00  0.00    +0.000 OA
BRANCH  11  18
ATOM     14  C   UNL     1       3.541   6.174  17.734  0.00  0.00    +0.000 C 
ATOM     15  C   UNL     1       2.730   7.201  18.471  0.00  0.00    +0.000 A 
ATOM     16  C   UNL     1       2.410   8.429  17.875  0.00  0.00    +0.000 A 
ATOM     17  C   UNL     1       1.694   9.398  18.584  0.00  0.00    +0.000 A 
ATOM     18  C   UNL     1       1.302   9.138  19.900  0.00  0.00    +0.000 A 
ATOM     19  C   UNL     1       1.580   7.904  20.493  0.00  0.00    +0.000 A 
ATOM     20  C   UNL     1       2.297   6.939  19.779  0.00  0.00    +0.000 A 
ENDBRANCH  11  18
ENDBRANCH   1  11
BRANCH  10  21
ATOM     21  N   UNL     1      -1.604  12.700  21.496  0.00  0.00    +0.000 N 
ATOM     22  H   UNL     1      -0.907  12.284  22.123  0.00  0.00    +0.000 HD
BRANCH  21  23
ATOM     23  C   UNL     1      -2.682  13.192  22.282  0.00  0.00    +0.000 A 
ATOM     24  C   UNL     1      -3.047  14.537  22.186  0.00  0.00    +0.000 A 
ATOM     25  C   UNL     1      -4.094  15.040  22.964  0.00  0.00    +0.000 A 
ATOM     26  C   UNL     1      -4.774  14.204  23.854  0.00  0.00    +0.000 A 
ATOM     27  C   UNL     1      -4.429  12.858  23.963  0.00  0.00    +0.000 A 
ATOM     28  C   UNL     1      -3.332  12.390  23.236  0.00  0.00    +0.000 A 
BRANCH  27  29
ATOM     29  N   UNL     1      -5.022  12.046  24.941  0.00  0.00    +0.000 N 
ATOM     30  H   UNL     1      -5.971  12.326  25.168  0.00  0.00    +0.000 HD
ATOM     31  H   UNL     1      -4.962  11.057  24.719  0.00  0.00    +0.000 HD
ENDBRANCH  27  29
ENDBRANCH  21  23
ENDBRANCH  10  21
TORSDOF 5
ENDMDL
MODEL 7
REMARK VINA RESULT:      -7.7      2.895      6.923
REMARK  Name = 
REMARK  6 active torsions:
REMARK  status: ('A' for Active; 'I' for Inactive)
REMARK    1  A    between atoms: C_1  and  C_2
REMARK    2  A    between atoms: C_5  and  S_6
REMARK    3  A    between atoms: S_6  and  C_9
REMARK    4  A    between atoms: C_18  and  N_19
REMARK    5  A    between atoms: N_19  and  C_20
REMARK    6  A    between atoms: C_24  and  N_25
REMARK                            x       y       z     vdW  Elec       q    Type
REMARK                         _______ _______ _______ _____ _____    ______ ____
ROOT
ATOM      1  C   UNL     1      -0.397  10.847  19.942  0.00  0.00    +0.000 A 
ATOM      2  N   UNL     1      -1.662  11.332  19.751  0.00  0.00    +0.000 NA
ATOM      3  C   UNL     1      -2.236  11.028  18.580  0.00  0.00    +0.000 A 
ATOM      4  C   UNL     1      -3.521  11.474  18.307  0.00  0.00    +0.000 A 
ATOM      5  C   UNL     1      -4.148  11.172  17.094  0.00  0.00    +0.000 A 
ATOM      6  C   UNL     1      -3.475  10.415  16.144  0.00  0.00    +0.000 A 
ATOM      7  C   UNL     1      -2.181   9.970  16.411  0.00  0.00    +0.000 A 
ATOM      8  C   UNL     1      -1.552  10.263  17.613  0.00  0.00    +0.000 A 
ATOM      9  N   UNL     1      -0.302   9.817  17.836  0.00  0.00    +0.000 NA
ATOM     10  C   UNL     1       0.323  10.119  19.006  0.00  0.00    +0.000 A 
ENDROOT
BRANCH   1  11
ATOM     11  S   UNL     1       0.323  11.399  21.458  0.00  0.00    +0.000 S 
ATOM     12  O   UNL     1       1.391  12.328  21.115  0.00  0.00    +0.000 OA
ATOM     13  O   UNL     1       0.613  10.226  22.266  0.00  0.00    +0.000 OA
BRANCH  11  18
ATOM     14  C   UNL     1      -4.099  14.600  24.146  0.00  0.00    +0.000 C 
ATOM     15  C   UNL     1      -2.969  13.824  23.533  0.00  0.00    +0.000 A 
ATOM     16  C   UNL     1      -1.939  14.476  22.840  0.00  0.00    +0.000 A 
ATOM     17  C   UNL     1      -0.916  13.744  22.233  0.00  0.00    +0.000 A 
ATOM     18  C   UNL     1      -0.927  12.349  22.312  0.00  0.00    +0.000 A 
ATOM     19  C   UNL     1      -1.927  11.687  23.031  0.00  0.00    +0.000 A 
ATOM     20  C   UNL     1      -2.948  12.425  23.636  0.00  0.00    +0.000 A 
ENDBRANCH  11  18
ENDBRANCH   1  11
BRANCH  10  21
ATOM     21  N   UNL     1       1.611   9.573  19.224  0.00  0.00    +0.000 N 
ATOM     22  H   UNL     1       2.303   9.966  18.579  0.00  0.00    +0.000 HD
BRANCH  21  23
ATOM     23  C   UNL     1       1.852   8.177  19.350  0.00  0.00    +0.000 A 
ATOM     24  C   UNL     1       1.472   7.514  20.521  0.00  0.00    +0.000 A 
ATOM     25  C   UNL     1       1.718   6.147  20.666  0.00  0.00    +0.000 A 
ATOM     26  C   UNL     1       2.357   5.434  19.648  0.00  0.00    +0.000 A 
ATOM     27  C   UNL     1       2.742   6.073  18.471  0.00  0.00    +0.000 A 
ATOM     28  C   UNL     1       2.558   7.455  18.373  0.00  0.00    +0.000 A 
BRANCH  27  29
ATOM     29  N   UNL     1       3.493   5.393  17.501  0.00  0.00    +0.000 N 
ATOM     30  H   UNL     1       3.752   5.981  16.715  0.00  0.00    +0.000 HD
ATOM     31  H   UNL     1       4.297   4.912  17.894  0.00  0.00    +0.000 HD
ENDBRANCH  27  29
ENDBRANCH  21  23
ENDBRANCH  10  21
TORSDOF 5
ENDMDL
MODEL 8
REMARK VINA RESULT:      -7.6      2.813      6.816
REMARK  Name = 
REMARK  6 active torsions:
REMARK  status: ('A' for Active; 'I' for Inactive)
REMARK    1  A    between atoms: C_1  and  C_2
REMARK    2  A    between atoms: C_5  and  S_6
REMARK    3  A    between atoms: S_6  and  C_9
REMARK    4  A    between atoms: C_18  and  N_19
REMARK    5  A    between atoms: N_19  and  C_20
REMARK    6  A    between atoms: C_24  and  N_25
REMARK                            x       y       z     vdW  Elec       q    Type
REMARK                         _______ _______ _______ _____ _____    ______ ____
ROOT
ATOM      1  C   UNL     1      -0.331  10.916  19.892  0.00  0.00    +0.000 A 
ATOM      2  N   UNL     1      -1.627  11.337  19.766  0.00  0.00    +0.000 NA
ATOM      3  C   UNL     1      -2.233  11.030  18.611  0.00  0.00    +0.000 A 
ATOM      4  C   UNL     1      -3.550  11.413  18.402  0.00  0.00    +0.000 A 
ATOM      5  C   UNL     1      -4.211  11.106  17.209  0.00  0.00    +0.000 A 
ATOM      6  C   UNL     1      -3.539  10.410  16.213  0.00  0.00    +0.000 A 
ATOM      7  C   UNL     1      -2.213  10.029  16.415  0.00  0.00    +0.000 A 
ATOM      8  C   UNL     1      -1.550  10.327  17.598  0.00  0.00    +0.000 A 
ATOM      9  N   UNL     1      -0.270   9.944  17.758  0.00  0.00    +0.000 NA
ATOM     10  C   UNL     1       0.386  10.251  18.908  0.00  0.00    +0.000 A 
ENDROOT
BRANCH   1  11
ATOM     11  S   UNL     1       0.422  11.471  21.392  0.00  0.00    +0.000 S 
ATOM     12  O   UNL     1       1.425  12.463  21.030  0.00  0.00    +0.000 OA
ATOM     13  O   UNL     1       0.807  10.296  22.157  0.00  0.00    +0.000 OA
BRANCH  11  18
ATOM     14  C   UNL     1      -4.035  14.395  24.327  0.00  0.00    +0.000 C 
ATOM     15  C   UNL     1      -2.897  13.681  23.655  0.00  0.00    +0.000 A 
ATOM     16  C   UNL     1      -1.850  14.397  23.057  0.00  0.00    +0.000 A 
ATOM     17  C   UNL     1      -0.819  13.726  22.393  0.00  0.00    +0.000 A 
ATOM     18  C   UNL     1      -0.840  12.331  22.319  0.00  0.00    +0.000 A 
ATOM     19  C   UNL     1      -1.857  11.603  22.943  0.00  0.00    +0.000 A 
ATOM     20  C   UNL     1      -2.885  12.279  23.606  0.00  0.00    +0.000 A 
ENDBRANCH  11  18
ENDBRANCH   1  11
BRANCH  10  21
ATOM     21  N   UNL     1       1.709   9.770  19.060  0.00  0.00    +0.000 N 
ATOM     22  H   UNL     1       2.369  10.283  18.466  0.00  0.00    +0.000 HD
BRANCH  21  23
ATOM     23  C   UNL     1       2.044   8.389  19.020  0.00  0.00    +0.000 A 
ATOM     24  C   UNL     1       2.498   7.824  17.825  0.00  0.00    +0.000 A 
ATOM     25  C   UNL     1       2.814   6.464  17.766  0.00  0.00    +0.000 A 
ATOM     26  C   UNL     1       2.666   5.656  18.896  0.00  0.00    +0.000 A 
ATOM     27  C   UNL     1       2.218   6.199  20.099  0.00  0.00    +0.000 A 
ATOM     28  C   UNL     1       1.833   7.542  20.121  0.00  0.00    +0.000 A 
BRANCH  27  29
ATOM     29  N   UNL     1       1.948   5.372  21.199  0.00  0.00    +0.000 N 
ATOM     30  H   UNL     1       1.019   4.964  21.172  0.00  0.00    +0.000 HD
ATOM     31  H   UNL     1       2.666   4.668  21.346  0.00  0.00    +0.000 HD
ENDBRANCH  27  29
ENDBRANCH  21  23
ENDBRANCH  10  21
TORSDOF 5
ENDMDL
MODEL 9
REMARK VINA RESULT:      -7.6      3.145      5.127
REMARK  Name = 
REMARK  6 active torsions:
REMARK  status: ('A' for Active; 'I' for Inactive)
REMARK    1  A    between atoms: C_1  and  C_2
REMARK    2  A    between atoms: C_5  and  S_6
REMARK    3  A    between atoms: S_6  and  C_9
REMARK    4  A    between atoms: C_18  and  N_19
REMARK    5  A    between atoms: N_19  and  C_20
REMARK    6  A    between atoms: C_24  and  N_25
REMARK                            x       y       z     vdW  Elec       q    Type
REMARK                         _______ _______ _______ _____ _____    ______ ____
ROOT
ATOM      1  C   UNL     1      -0.746  11.503  19.564  0.00  0.00    +0.000 A 
ATOM      2  N   UNL     1      -0.880  10.888  18.349  0.00  0.00    +0.000 NA
ATOM      3  C   UNL     1      -2.092  10.964  17.783  0.00  0.00    +0.000 A 
ATOM      4  C   UNL     1      -2.314  10.374  16.547  0.00  0.00    +0.000 A 
ATOM      5  C   UNL     1      -3.566  10.438  15.931  0.00  0.00    +0.000 A 
ATOM      6  C   UNL     1      -4.610  11.099  16.565  0.00  0.00    +0.000 A 
ATOM      7  C   UNL     1      -4.395  11.688  17.810  0.00  0.00    +0.000 A 
ATOM      8  C   UNL     1      -3.153  11.632  18.429  0.00  0.00    +0.000 A 
ATOM      9  N   UNL     1      -2.982  12.212  19.631  0.00  0.00    +0.000 NA
ATOM     10  C   UNL     1      -1.772  12.142  20.247  0.00  0.00    +0.000 A 
ENDROOT
BRANCH   1  11
ATOM     11  S   UNL     1       0.846  11.246  20.286  0.00  0.00    +0.000 S 
ATOM     12  O   UNL     1       0.648  11.077  21.719  0.00  0.00    +0.000 OA
ATOM     13  O   UNL     1       1.731  12.289  19.793  0.00  0.00    +0.000 OA
BRANCH  11  18
ATOM     14  C   UNL     1       2.658   5.876  18.071  0.00  0.00    +0.000 C 
ATOM     15  C   UNL     1       2.269   7.208  18.645  0.00  0.00    +0.000 A 
ATOM     16  C   UNL     1       1.867   7.327  19.983  0.00  0.00    +0.000 A 
ATOM     17  C   UNL     1       1.463   8.562  20.497  0.00  0.00    +0.000 A 
ATOM     18  C   UNL     1       1.452   9.684  19.665  0.00  0.00    +0.000 A 
ATOM     19  C   UNL     1       1.886   9.589  18.339  0.00  0.00    +0.000 A 
ATOM     20  C   UNL     1       2.290   8.351  17.831  0.00  0.00    +0.000 A 
ENDBRANCH  11  18
ENDBRANCH   1  11
BRANCH  10  21
ATOM     21  N   UNL     1      -1.619  12.823  21.479  0.00  0.00    +0.000 N 
ATOM     22  H   UNL     1      -0.957  12.343  22.096  0.00  0.00    +0.000 HD
BRANCH  21  23
ATOM     23  C   UNL     1      -2.719  13.273  22.259  0.00  0.00    +0.000 A 
ATOM     24  C   UNL     1      -3.146  14.599  22.148  0.00  0.00    +0.000 A 
ATOM     25  C   UNL     1      -4.215  15.062  22.920  0.00  0.00    +0.000 A 
ATOM     26  C   UNL     1      -4.856  14.206  23.820  0.00  0.00    +0.000 A 
ATOM     27  C   UNL     1      -4.449  12.879  23.945  0.00  0.00    +0.000 A 
ATOM     28  C   UNL     1      -3.331  12.454  23.222  0.00  0.00    +0.000 A 
BRANCH  27  29
ATOM     29  N   UNL     1      -5.004  12.051  24.932  0.00  0.00    +0.000 N 
ATOM     30  H   UNL     1      -5.359  11.175  24.563  0.00  0.00    +0.000 HD
ATOM     31  H   UNL     1      -4.378  11.905  25.718  0.00  0.00    +0.000 HD
ENDBRANCH  27  29
ENDBRANCH  21  23
ENDBRANCH  10  21
TORSDOF 5
ENDMDL
