MODEL 1
REMARK VINA RESULT:      -8.4      0.000      0.000
REMARK  Name = 
REMARK  8 active torsions:
REMARK  status: ('A' for Active; 'I' for Inactive)
REMARK    1  A    between atoms: N_1  and  CA_2
REMARK    2  A    between atoms: CA_2  and  C_3
REMARK    3  A    between atoms: CA_2  and  C_25
REMARK    4  A    between atoms: C_3  and  N_4
REMARK    5  A    between atoms: N_4  and  C_5
REMARK    6  A    between atoms: C_5  and  C_6
REMARK    7  A    between atoms: C_12  and  C_13
REMARK    8  A    between atoms: C_25  and  OXT_27
REMARK                            x       y       z     vdW  Elec       q    Type
REMARK                         _______ _______ _______ _____ _____    ______ ____
ROOT
ATOM      1  C   UNL     1       4.396   3.991  17.190  0.00  0.00    +0.000 A 
ATOM      2  C   UNL     1       3.880   2.896  17.845  0.00  0.00    +0.000 A 
ATOM      3  C   UNL     1       2.952   3.237  18.896  0.00  0.00    +0.000 A 
ATOM      4  C   UNL     1       2.232   2.389  19.769  0.00  0.00    +0.000 A 
ATOM      5  C   UNL     1       1.348   2.924  20.701  0.00  0.00    +0.000 A 
ATOM      6  C   UNL     1       1.149   4.298  20.766  0.00  0.00    +0.000 A 
ATOM      7  C   UNL     1       1.835   5.207  19.927  0.00  0.00    +0.000 A 
ATOM      8  C   UNL     1       2.764   4.623  19.005  0.00  0.00    +0.000 A 
ATOM      9  S   UNL     1       3.834   5.426  17.908  0.00  0.00    +0.000 S 
ENDROOT
BRANCH   7  10
ATOM     10  C   UNL     1       1.601   6.675  20.032  0.00  0.00    +0.000 A 
ATOM     11  C   UNL     1       1.947   7.554  18.992  0.00  0.00    +0.000 A 
ATOM     12  C   UNL     1       1.701   8.931  19.077  0.00  0.00    +0.000 A 
ATOM     13  C   UNL     1       1.050   9.479  20.189  0.00  0.00    +0.000 A 
ATOM     14  C   UNL     1       0.738  10.845  20.279  0.00  0.00    +0.000 A 
ATOM     15  C   UNL     1       0.052  11.349  21.388  0.00  0.00    +0.000 A 
ATOM     16  C   UNL     1      -0.326  10.497  22.419  0.00  0.00    +0.000 A 
ATOM     17  C   UNL     1      -0.000   9.144  22.356  0.00  0.00    +0.000 A 
ATOM     18  C   UNL     1       0.693   8.624  21.251  0.00  0.00    +0.000 A 
ATOM     19  C   UNL     1       1.027   7.263  21.175  0.00  0.00    +0.000 A 
ENDBRANCH   7  10
BRANCH   1  20
ATOM     20  C   UNL     1       5.324   4.033  16.001  0.00  0.00    +0.000 C 
BRANCH  20  21
ATOM     21  N   UNL     1       6.727   4.126  16.421  0.00  0.00    +0.000 NA
ATOM     22  H   UNL     1       6.759   3.933  17.421  0.00  0.00    +0.000 HD
BRANCH  21  23
ATOM     23  C   UNL     1       7.322   5.429  16.122  0.00  0.00    +0.000 C 
BRANCH  23  24
ATOM     24  CA  UNL     1       7.061   6.424  17.273  0.00  0.00    +0.000 C 
BRANCH  24  25
ATOM     25  N   UNL     1       7.668   7.778  17.041  0.00  0.00    +0.000 NA
ATOM     26  H1  UNL     1       8.286   7.693  16.228  0.00  0.00    +0.000 HD
ATOM     27  H2  UNL     1       8.298   7.982  17.824  0.00  0.00    +0.000 HD
ENDBRANCH  24  25
BRANCH  24  28
ATOM     28  C   UNL     1       7.603   5.875  18.596  0.00  0.00    +0.000 C 
ATOM     29  O   UNL     1       7.308   4.804  19.102  0.00  0.00    +0.000 OA
BRANCH  28  30
ATOM     30  OXT UNL     1       8.460   6.759  19.176  0.00  0.00    +0.000 OA
ATOM     31  HXT UNL     1       9.354   6.574  18.789  0.00  0.00    +0.000 HD
ENDBRANCH  28  30
ENDBRANCH  24  28
ENDBRANCH  23  24
ENDBRANCH  21  23
ENDBRANCH  20  21
ENDBRANCH   1  20
TORSDOF 8
ENDMDL
MODEL 2
REMARK VINA RESULT:      -8.1      0.978      1.113
REMARK  Name = 
REMARK  8 active torsions:
REMARK  status: ('A' for Active; 'I' for Inactive)
REMARK    1  A    between atoms: N_1  and  CA_2
REMARK    2  A    between atoms: CA_2  and  C_3
REMARK    3  A    between atoms: CA_2  and  C_25
REMARK    4  A    between atoms: C_3  and  N_4
REMARK    5  A    between atoms: N_4  and  C_5
REMARK    6  A    between atoms: C_5  and  C_6
REMARK    7  A    between atoms: C_12  and  C_13
REMARK    8  A    between atoms: C_25  and  OXT_27
REMARK                            x       y       z     vdW  Elec       q    Type
REMARK                         _______ _______ _______ _____ _____    ______ ____
ROOT
ATOM      1  C   UNL     1       4.525   4.007  17.355  0.00  0.00    +0.000 A 
ATOM      2  C   UNL     1       3.940   2.913  17.952  0.00  0.00    +0.000 A 
ATOM      3  C   UNL     1       2.939   3.257  18.933  0.00  0.00    +0.000 A 
ATOM      4  C   UNL     1       2.140   2.411  19.735  0.00  0.00    +0.000 A 
ATOM      5  C   UNL     1       1.195   2.950  20.604  0.00  0.00    +0.000 A 
ATOM      6  C   UNL     1       1.016   4.327  20.672  0.00  0.00    +0.000 A 
ATOM      7  C   UNL     1       1.780   5.234  19.903  0.00  0.00    +0.000 A 
ATOM      8  C   UNL     1       2.768   4.644  19.047  0.00  0.00    +0.000 A 
ATOM      9  S   UNL     1       3.933   5.442  18.048  0.00  0.00    +0.000 S 
ENDROOT
BRANCH   7  10
ATOM     10  C   UNL     1       1.564   6.704  20.010  0.00  0.00    +0.000 A 
ATOM     11  C   UNL     1       1.893   7.578  18.960  0.00  0.00    +0.000 A 
ATOM     12  C   UNL     1       1.664   8.958  19.048  0.00  0.00    +0.000 A 
ATOM     13  C   UNL     1       1.047   9.514  20.175  0.00  0.00    +0.000 A 
ATOM     14  C   UNL     1       0.752  10.883  20.270  0.00  0.00    +0.000 A 
ATOM     15  C   UNL     1       0.098  11.397  21.394  0.00  0.00    +0.000 A 
ATOM     16  C   UNL     1      -0.263  10.551  22.436  0.00  0.00    +0.000 A 
ATOM     17  C   UNL     1       0.047   9.194  22.367  0.00  0.00    +0.000 A 
ATOM     18  C   UNL     1       0.707   8.665  21.247  0.00  0.00    +0.000 A 
ATOM     19  C   UNL     1       1.024   7.300  21.166  0.00  0.00    +0.000 A 
ENDBRANCH   7  10
BRANCH   1  20
ATOM     20  C   UNL     1       5.543   4.046  16.242  0.00  0.00    +0.000 C 
BRANCH  20  21
ATOM     21  N   UNL     1       6.579   5.053  16.501  0.00  0.00    +0.000 NA
ATOM     22  H   UNL     1       6.958   5.338  15.600  0.00  0.00    +0.000 HD
BRANCH  21  23
ATOM     23  C   UNL     1       7.639   4.561  17.382  0.00  0.00    +0.000 C 
BRANCH  23  24
ATOM     24  CA  UNL     1       7.841   5.519  18.577  0.00  0.00    +0.000 C 
BRANCH  24  25
ATOM     25  N   UNL     1       6.808   5.356  19.654  0.00  0.00    +0.000 NA
ATOM     26  H1  UNL     1       6.615   4.353  19.734  0.00  0.00    +0.000 HD
ATOM     27  H2  UNL     1       5.930   5.762  19.316  0.00  0.00    +0.000 HD
ENDBRANCH  24  25
BRANCH  24  28
ATOM     28  C   UNL     1       7.822   6.977  18.110  0.00  0.00    +0.000 C 
ATOM     29  O   UNL     1       7.216   7.412  17.143  0.00  0.00    +0.000 OA
BRANCH  28  30
ATOM     30  OXT UNL     1       8.605   7.754  18.906  0.00  0.00    +0.000 OA
ATOM     31  HXT UNL     1       9.540   7.474  18.733  0.00  0.00    +0.000 HD
ENDBRANCH  28  30
ENDBRANCH  24  28
ENDBRANCH  23  24
ENDBRANCH  21  23
ENDBRANCH  20  21
ENDBRANCH   1  20
TORSDOF 8
ENDMDL
MODEL 3
REMARK VINA RESULT:      -8.0      1.791      2.343
REMARK  Name = 
REMARK  8 active torsions:
REMARK  status: ('A' for Active; 'I' for Inactive)
REMARK    1  A    between atoms: N_1  and  CA_2
REMARK    2  A    between atoms: CA_2  and  C_3
REMARK    3  A    between atoms: CA_2  and  C_25
REMARK    4  A    between atoms: C_3  and  N_4
REMARK    5  A    between atoms: N_4  and  C_5
REMARK    6  A    between atoms: C_5  and  C_6
REMARK    7  A    between atoms: C_12  and  C_13
REMARK    8  A    between atoms: C_25  and  OXT_27
REMARK                            x       y       z     vdW  Elec       q    Type
REMARK                         _______ _______ _______ _____ _____    ______ ____
ROOT
ATOM      1  C   UNL     1       5.409   4.365  18.570  0.00  0.00    +0.000 A 
ATOM      2  C   UNL     1       4.723   3.261  19.025  0.00  0.00    +0.000 A 
ATOM      3  C   UNL     1       3.461   3.582  19.646  0.00  0.00    +0.000 A 
ATOM      4  C   UNL     1       2.498   2.720  20.220  0.00  0.00    +0.000 A 
ATOM      5  C   UNL     1       1.314   3.234  20.740  0.00  0.00    +0.000 A 
ATOM      6  C   UNL     1       1.060   4.599  20.680  0.00  0.00    +0.000 A 
ATOM      7  C   UNL     1       1.977   5.521  20.123  0.00  0.00    +0.000 A 
ATOM      8  C   UNL     1       3.200   4.960  19.630  0.00  0.00    +0.000 A 
ATOM      9  S   UNL     1       4.572   5.787  18.979  0.00  0.00    +0.000 S 
ENDROOT
BRANCH   7  10
ATOM     10  C   UNL     1       1.671   6.979  20.084  0.00  0.00    +0.000 A 
ATOM     11  C   UNL     1       1.923   7.755  18.940  0.00  0.00    +0.000 A 
ATOM     12  C   UNL     1       1.610   9.120  18.891  0.00  0.00    +0.000 A 
ATOM     13  C   UNL     1       0.983   9.754  19.971  0.00  0.00    +0.000 A 
ATOM     14  C   UNL     1       0.605  11.105  19.931  0.00  0.00    +0.000 A 
ATOM     15  C   UNL     1      -0.057  11.695  21.013  0.00  0.00    +0.000 A 
ATOM     16  C   UNL     1      -0.342  10.942  22.146  0.00  0.00    +0.000 A 
ATOM     17  C   UNL     1       0.050   9.607  22.210  0.00  0.00    +0.000 A 
ATOM     18  C   UNL     1       0.718   9.003  21.133  0.00  0.00    +0.000 A 
ATOM     19  C   UNL     1       1.119   7.659  21.185  0.00  0.00    +0.000 A 
ENDBRANCH   7  10
BRANCH   1  20
ATOM     20  C   UNL     1       6.709   4.424  17.807  0.00  0.00    +0.000 C 
BRANCH  20  21
ATOM     21  N   UNL     1       6.604   3.730  16.518  0.00  0.00    +0.000 NA
ATOM     22  H   UNL     1       7.493   3.847  16.035  0.00  0.00    +0.000 HD
BRANCH  21  23
ATOM     23  C   UNL     1       5.496   4.222  15.698  0.00  0.00    +0.000 C 
BRANCH  23  24
ATOM     24  CA  UNL     1       5.965   4.480  14.249  0.00  0.00    +0.000 C 
BRANCH  24  25
ATOM     25  N   UNL     1       6.204   3.221  13.466  0.00  0.00    +0.000 NA
ATOM     26  H1  UNL     1       5.331   2.686  13.488  0.00  0.00    +0.000 HD
ATOM     27  H2  UNL     1       6.873   2.646  13.987  0.00  0.00    +0.000 HD
ENDBRANCH  24  25
BRANCH  24  28
ATOM     28  C   UNL     1       7.254   5.305  14.237  0.00  0.00    +0.000 C 
ATOM     29  O   UNL     1       7.749   5.877  15.196  0.00  0.00    +0.000 OA
BRANCH  28  30
ATOM     30  OXT UNL     1       7.791   5.353  12.988  0.00  0.00    +0.000 OA
ATOM     31  HXT UNL     1       7.053   5.611  12.378  0.00  0.00    +0.000 HD
ENDBRANCH  28  30
ENDBRANCH  24  28
ENDBRANCH  23  24
ENDBRANCH  21  23
ENDBRANCH  20  21
ENDBRANCH   1  20
TORSDOF 8
ENDMDL
MODEL 4
REMARK VINA RESULT:      -8.0      1.805      2.308
REMARK  Name = 
REMARK  8 active torsions:
REMARK  status: ('A' for Active; 'I' for Inactive)
REMARK    1  A    between atoms: N_1  and  CA_2
REMARK    2  A    between atoms: CA_2  and  C_3
REMARK    3  A    between atoms: CA_2  and  C_25
REMARK    4  A    between atoms: C_3  and  N_4
REMARK    5  A    between atoms: N_4  and  C_5
REMARK    6  A    between atoms: C_5  and  C_6
REMARK    7  A    between atoms: C_12  and  C_13
REMARK    8  A    between atoms: C_25  and  OXT_27
REMARK                            x       y       z     vdW  Elec       q    Type
REMARK                         _______ _______ _______ _____ _____    ______ ____
ROOT
ATOM      1  C   UNL     1       5.790   4.687  18.780  0.00  0.00    +0.000 A 
ATOM      2  C   UNL     1       5.141   3.514  19.093  0.00  0.00    +0.000 A 
ATOM      3  C   UNL     1       3.810   3.713  19.615  0.00  0.00    +0.000 A 
ATOM      4  C   UNL     1       2.859   2.756  20.036  0.00  0.00    +0.000 A 
ATOM      5  C   UNL     1       1.603   3.159  20.479  0.00  0.00    +0.000 A 
ATOM      6  C   UNL     1       1.266   4.508  20.488  0.00  0.00    +0.000 A 
ATOM      7  C   UNL     1       2.166   5.521  20.084  0.00  0.00    +0.000 A 
ATOM      8  C   UNL     1       3.462   5.071  19.669  0.00  0.00    +0.000 A 
ATOM      9  S   UNL     1       4.829   6.024  19.206  0.00  0.00    +0.000 S 
ENDROOT
BRANCH   7  10
ATOM     10  C   UNL     1       1.770   6.957  20.115  0.00  0.00    +0.000 A 
ATOM     11  C   UNL     1       1.965   7.801  19.009  0.00  0.00    +0.000 A 
ATOM     12  C   UNL     1       1.567   9.145  19.026  0.00  0.00    +0.000 A 
ATOM     13  C   UNL     1       0.911   9.687  20.139  0.00  0.00    +0.000 A 
ATOM     14  C   UNL     1       0.449  11.012  20.166  0.00  0.00    +0.000 A 
ATOM     15  C   UNL     1      -0.238  11.507  21.278  0.00  0.00    +0.000 A 
ATOM     16  C   UNL     1      -0.468  10.685  22.376  0.00  0.00    +0.000 A 
ATOM     17  C   UNL     1       0.007   9.375  22.374  0.00  0.00    +0.000 A 
ATOM     18  C   UNL     1       0.703   8.866  21.265  0.00  0.00    +0.000 A 
ATOM     19  C   UNL     1       1.186   7.549  21.251  0.00  0.00    +0.000 A 
ENDBRANCH   7  10
BRANCH   1  20
ATOM     20  C   UNL     1       7.146   4.879  18.147  0.00  0.00    +0.000 C 
BRANCH  20  21
ATOM     21  N   UNL     1       7.173   6.071  17.292  0.00  0.00    +0.000 NA
ATOM     22  H   UNL     1       6.790   6.844  17.835  0.00  0.00    +0.000 HD
BRANCH  21  23
ATOM     23  C   UNL     1       6.430   5.891  16.044  0.00  0.00    +0.000 C 
BRANCH  23  24
ATOM     24  CA  UNL     1       7.151   4.885  15.122  0.00  0.00    +0.000 C 
BRANCH  24  25
ATOM     25  N   UNL     1       7.812   5.529  13.937  0.00  0.00    +0.000 NA
ATOM     26  H1  UNL     1       8.802   5.647  14.175  0.00  0.00    +0.000 HD
ATOM     27  H2  UNL     1       7.451   6.484  13.853  0.00  0.00    +0.000 HD
ENDBRANCH  24  25
BRANCH  24  28
ATOM     28  C   UNL     1       6.174   3.825  14.608  0.00  0.00    +0.000 C 
ATOM     29  O   UNL     1       5.712   3.762  13.479  0.00  0.00    +0.000 OA
BRANCH  28  30
ATOM     30  OXT UNL     1       5.845   2.946  15.594  0.00  0.00    +0.000 OA
ATOM     31  HXT UNL     1       5.943   2.040  15.201  0.00  0.00    +0.000 HD
ENDBRANCH  28  30
ENDBRANCH  24  28
ENDBRANCH  23  24
ENDBRANCH  21  23
ENDBRANCH  20  21
ENDBRANCH   1  20
TORSDOF 8
ENDMDL
MODEL 5
REMARK VINA RESULT:      -7.9      3.800      8.022
REMARK  Name = 
REMARK  8 active torsions:
REMARK  status: ('A' for Active; 'I' for Inactive)
REMARK    1  A    between atoms: N_1  and  CA_2
REMARK    2  A    between atoms: CA_2  and  C_3
REMARK    3  A    between atoms: CA_2  and  C_25
REMARK    4  A    between atoms: C_3  and  N_4
REMARK    5  A    between atoms: N_4  and  C_5
REMARK    6  A    between atoms: C_5  and  C_6
REMARK    7  A    between atoms: C_12  and  C_13
REMARK    8  A    between atoms: C_25  and  OXT_27
REMARK                            x       y       z     vdW  Elec       q    Type
REMARK                         _______ _______ _______ _____ _____    ______ ____
ROOT
ATOM      1  C   UNL     1       2.158   7.680  19.225  0.00  0.00    +0.000 A 
ATOM      2  C   UNL     1       1.964   6.660  20.129  0.00  0.00    +0.000 A 
ATOM      3  C   UNL     1       2.697   5.458  19.808  0.00  0.00    +0.000 A 
ATOM      4  C   UNL     1       2.744   4.225  20.496  0.00  0.00    +0.000 A 
ATOM      5  C   UNL     1       3.552   3.191  20.034  0.00  0.00    +0.000 A 
ATOM      6  C   UNL     1       4.337   3.372  18.901  0.00  0.00    +0.000 A 
ATOM      7  C   UNL     1       4.339   4.576  18.160  0.00  0.00    +0.000 A 
ATOM      8  C   UNL     1       3.467   5.605  18.645  0.00  0.00    +0.000 A 
ATOM      9  S   UNL     1       3.144   7.154  17.945  0.00  0.00    +0.000 S 
ENDROOT
BRANCH   7  10
ATOM     10  C   UNL     1       5.189   4.729  16.945  0.00  0.00    +0.000 A 
ATOM     11  C   UNL     1       6.411   5.421  16.982  0.00  0.00    +0.000 A 
ATOM     12  C   UNL     1       7.225   5.541  15.847  0.00  0.00    +0.000 A 
ATOM     13  C   UNL     1       6.871   4.928  14.639  0.00  0.00    +0.000 A 
ATOM     14  C   UNL     1       7.692   4.982  13.501  0.00  0.00    +0.000 A 
ATOM     15  C   UNL     1       7.325   4.324  12.323  0.00  0.00    +0.000 A 
ATOM     16  C   UNL     1       6.133   3.610  12.268  0.00  0.00    +0.000 A 
ATOM     17  C   UNL     1       5.296   3.569  13.381  0.00  0.00    +0.000 A 
ATOM     18  C   UNL     1       5.650   4.229  14.569  0.00  0.00    +0.000 A 
ATOM     19  C   UNL     1       4.815   4.196  15.697  0.00  0.00    +0.000 A 
ENDBRANCH   7  10
BRANCH   1  20
ATOM     20  C   UNL     1       1.630   9.093  19.266  0.00  0.00    +0.000 C 
BRANCH  20  21
ATOM     21  N   UNL     1       0.362   9.168  20.001  0.00  0.00    +0.000 NA
ATOM     22  H   UNL     1      -0.292   8.531  19.548  0.00  0.00    +0.000 HD
BRANCH  21  23
ATOM     23  C   UNL     1      -0.183  10.525  20.053  0.00  0.00    +0.000 C 
BRANCH  23  24
ATOM     24  CA  UNL     1      -0.083  11.098  21.483  0.00  0.00    +0.000 C 
BRANCH  24  25
ATOM     25  N   UNL     1       0.900  12.227  21.606  0.00  0.00    +0.000 NA
ATOM     26  H1  UNL     1       0.378  13.095  21.456  0.00  0.00    +0.000 HD
ATOM     27  H2  UNL     1       1.546  12.173  20.813  0.00  0.00    +0.000 HD
ENDBRANCH  24  25
BRANCH  24  28
ATOM     28  C   UNL     1       0.316  10.004  22.477  0.00  0.00    +0.000 C 
ATOM     29  O   UNL     1       1.457   9.698  22.786  0.00  0.00    +0.000 OA
BRANCH  28  30
ATOM     30  OXT UNL     1      -0.782   9.372  22.973  0.00  0.00    +0.000 OA
ATOM     31  HXT UNL     1      -1.244   8.968  22.195  0.00  0.00    +0.000 HD
ENDBRANCH  28  30
ENDBRANCH  24  28
ENDBRANCH  23  24
ENDBRANCH  21  23
ENDBRANCH  20  21
ENDBRANCH   1  20
TORSDOF 8
ENDMDL
MODEL 6
REMARK VINA RESULT:      -7.9      0.772      1.734
REMARK  Name = 
REMARK  8 active torsions:
REMARK  status: ('A' for Active; 'I' for Inactive)
REMARK    1  A    between atoms: N_1  and  CA_2
REMARK    2  A    between atoms: CA_2  and  C_3
REMARK    3  A    between atoms: CA_2  and  C_25
REMARK    4  A    between atoms: C_3  and  N_4
REMARK    5  A    between atoms: N_4  and  C_5
REMARK    6  A    between atoms: C_5  and  C_6
REMARK    7  A    between atoms: C_12  and  C_13
REMARK    8  A    between atoms: C_25  and  OXT_27
REMARK                            x       y       z     vdW  Elec       q    Type
REMARK                         _______ _______ _______ _____ _____    ______ ____
ROOT
ATOM      1  C   UNL     1       4.348   4.010  17.054  0.00  0.00    +0.000 A 
ATOM      2  C   UNL     1       3.884   2.899  17.723  0.00  0.00    +0.000 A 
ATOM      3  C   UNL     1       2.986   3.213  18.808  0.00  0.00    +0.000 A 
ATOM      4  C   UNL     1       2.321   2.344  19.703  0.00  0.00    +0.000 A 
ATOM      5  C   UNL     1       1.459   2.852  20.669  0.00  0.00    +0.000 A 
ATOM      6  C   UNL     1       1.227   4.221  20.747  0.00  0.00    +0.000 A 
ATOM      7  C   UNL     1       1.858   5.150  19.888  0.00  0.00    +0.000 A 
ATOM      8  C   UNL     1       2.767   4.593  18.930  0.00  0.00    +0.000 A 
ATOM      9  S   UNL     1       3.775   5.427  17.799  0.00  0.00    +0.000 S 
ENDROOT
BRANCH   7  10
ATOM     10  C   UNL     1       1.590   6.611  20.008  0.00  0.00    +0.000 A 
ATOM     11  C   UNL     1       1.149   7.185  21.212  0.00  0.00    +0.000 A 
ATOM     12  C   UNL     1       0.924   8.563  21.335  0.00  0.00    +0.000 A 
ATOM     13  C   UNL     1       1.182   9.431  20.267  0.00  0.00    +0.000 A 
ATOM     14  C   UNL     1       1.021  10.822  20.375  0.00  0.00    +0.000 A 
ATOM     15  C   UNL     1       1.326  11.662  19.300  0.00  0.00    +0.000 A 
ATOM     16  C   UNL     1       1.790  11.123  18.106  0.00  0.00    +0.000 A 
ATOM     17  C   UNL     1       1.930   9.743  17.975  0.00  0.00    +0.000 A 
ATOM     18  C   UNL     1       1.623   8.887  19.045  0.00  0.00    +0.000 A 
ATOM     19  C   UNL     1       1.759   7.495  18.925  0.00  0.00    +0.000 A 
ENDBRANCH   7  10
BRANCH   1  20
ATOM     20  C   UNL     1       5.230   4.079  15.832  0.00  0.00    +0.000 C 
BRANCH  20  21
ATOM     21  N   UNL     1       5.627   5.460  15.537  0.00  0.00    +0.000 NA
ATOM     22  H   UNL     1       5.502   5.606  14.537  0.00  0.00    +0.000 HD
BRANCH  21  23
ATOM     23  C   UNL     1       7.003   5.753  15.941  0.00  0.00    +0.000 C 
BRANCH  23  24
ATOM     24  CA  UNL     1       7.026   6.504  17.290  0.00  0.00    +0.000 C 
BRANCH  24  25
ATOM     25  N   UNL     1       7.718   7.834  17.221  0.00  0.00    +0.000 NA
ATOM     26  H1  UNL     1       7.195   8.409  16.552  0.00  0.00    +0.000 HD
ATOM     27  H2  UNL     1       8.633   7.694  16.780  0.00  0.00    +0.000 HD
ENDBRANCH  24  25
BRANCH  24  28
ATOM     28  C   UNL     1       7.714   5.660  18.366  0.00  0.00    +0.000 C 
ATOM     29  O   UNL     1       7.734   4.440  18.417  0.00  0.00    +0.000 OA
BRANCH  28  30
ATOM     30  OXT UNL     1       8.299   6.452  19.306  0.00  0.00    +0.000 OA
ATOM     31  HXT UNL     1       7.718   6.404  20.108  0.00  0.00    +0.000 HD
ENDBRANCH  28  30
ENDBRANCH  24  28
ENDBRANCH  23  24
ENDBRANCH  21  23
ENDBRANCH  20  21
ENDBRANCH   1  20
TORSDOF 8
ENDMDL
MODEL 7
REMARK VINA RESULT:      -7.9      3.253      7.429
REMARK  Name = 
REMARK  8 active torsions:
REMARK  status: ('A' for Active; 'I' for Inactive)
REMARK    1  A    between atoms: N_1  and  CA_2
REMARK    2  A    between atoms: CA_2  and  C_3
REMARK    3  A    between atoms: CA_2  and  C_25
REMARK    4  A    between atoms: C_3  and  N_4
REMARK    5  A    between atoms: N_4  and  C_5
REMARK    6  A    between atoms: C_5  and  C_6
REMARK    7  A    between atoms: C_12  and  C_13
REMARK    8  A    between atoms: C_25  and  OXT_27
REMARK                            x       y       z     vdW  Elec       q    Type
REMARK                         _______ _______ _______ _____ _____    ______ ____
ROOT
ATOM      1  C   UNL     1       1.823   6.202  20.191  0.00  0.00    +0.000 A 
ATOM      2  C   UNL     1       1.447   4.934  20.573  0.00  0.00    +0.000 A 
ATOM      3  C   UNL     1       2.099   3.888  19.822  0.00  0.00    +0.000 A 
ATOM      4  C   UNL     1       1.966   2.486  19.934  0.00  0.00    +0.000 A 
ATOM      5  C   UNL     1       2.722   1.639  19.129  0.00  0.00    +0.000 A 
ATOM      6  C   UNL     1       3.632   2.169  18.222  0.00  0.00    +0.000 A 
ATOM      7  C   UNL     1       3.817   3.560  18.052  0.00  0.00    +0.000 A 
ATOM      8  C   UNL     1       2.995   4.401  18.872  0.00  0.00    +0.000 A 
ATOM      9  S   UNL     1       2.885   6.127  18.865  0.00  0.00    +0.000 S 
ENDROOT
BRANCH   7  10
ATOM     10  C   UNL     1       4.797   4.090  17.063  0.00  0.00    +0.000 A 
ATOM     11  C   UNL     1       5.846   4.943  17.446  0.00  0.00    +0.000 A 
ATOM     12  C   UNL     1       6.786   5.419  16.522  0.00  0.00    +0.000 A 
ATOM     13  C   UNL     1       6.743   5.018  15.181  0.00  0.00    +0.000 A 
ATOM     14  C   UNL     1       7.702   5.431  14.243  0.00  0.00    +0.000 A 
ATOM     15  C   UNL     1       7.651   4.978  12.921  0.00  0.00    +0.000 A 
ATOM     16  C   UNL     1       6.640   4.112  12.522  0.00  0.00    +0.000 A 
ATOM     17  C   UNL     1       5.666   3.714  13.435  0.00  0.00    +0.000 A 
ATOM     18  C   UNL     1       5.702   4.165  14.764  0.00  0.00    +0.000 A 
ATOM     19  C   UNL     1       4.727   3.771  15.694  0.00  0.00    +0.000 A 
ENDBRANCH   7  10
BRANCH   1  20
ATOM     20  C   UNL     1       1.421   7.528  20.787  0.00  0.00    +0.000 C 
BRANCH  20  21
ATOM     21  N   UNL     1       1.663   8.631  19.849  0.00  0.00    +0.000 NA
ATOM     22  H   UNL     1       2.626   8.938  19.982  0.00  0.00    +0.000 HD
BRANCH  21  23
ATOM     23  C   UNL     1       0.730   9.744  20.030  0.00  0.00    +0.000 C 
BRANCH  23  24
ATOM     24  CA  UNL     1       0.574  10.541  18.717  0.00  0.00    +0.000 C 
BRANCH  24  25
ATOM     25  N   UNL     1      -0.598  10.101  17.888  0.00  0.00    +0.000 NA
ATOM     26  H1  UNL     1      -0.266  10.017  16.922  0.00  0.00    +0.000 HD
ATOM     27  H2  UNL     1      -1.276  10.869  17.862  0.00  0.00    +0.000 HD
ENDBRANCH  24  25
BRANCH  24  28
ATOM     28  C   UNL     1       1.837  10.427  17.861  0.00  0.00    +0.000 C 
ATOM     29  O   UNL     1       2.221   9.423  17.280  0.00  0.00    +0.000 OA
BRANCH  28  30
ATOM     30  OXT UNL     1       2.522  11.603  17.842  0.00  0.00    +0.000 OA
ATOM     31  HXT UNL     1       2.923  11.675  16.938  0.00  0.00    +0.000 HD
ENDBRANCH  28  30
ENDBRANCH  24  28
ENDBRANCH  23  24
ENDBRANCH  21  23
ENDBRANCH  20  21
ENDBRANCH   1  20
TORSDOF 8
ENDMDL
MODEL 8
REMARK VINA RESULT:      -7.8      4.059      8.121
REMARK  Name = 
REMARK  8 active torsions:
REMARK  status: ('A' for Active; 'I' for Inactive)
REMARK    1  A    between atoms: N_1  and  CA_2
REMARK    2  A    between atoms: CA_2  and  C_3
REMARK    3  A    between atoms: CA_2  and  C_25
REMARK    4  A    between atoms: C_3  and  N_4
REMARK    5  A    between atoms: N_4  and  C_5
REMARK    6  A    between atoms: C_5  and  C_6
REMARK    7  A    between atoms: C_12  and  C_13
REMARK    8  A    between atoms: C_25  and  OXT_27
REMARK                            x       y       z     vdW  Elec       q    Type
REMARK                         _______ _______ _______ _____ _____    ______ ____
ROOT
ATOM      1  C   UNL     1       2.169   6.651  19.733  0.00  0.00    +0.000 A 
ATOM      2  C   UNL     1       1.802   5.432  20.258  0.00  0.00    +0.000 A 
ATOM      3  C   UNL     1       2.408   4.308  19.586  0.00  0.00    +0.000 A 
ATOM      4  C   UNL     1       2.269   2.926  19.845  0.00  0.00    +0.000 A 
ATOM      5  C   UNL     1       2.978   1.994  19.093  0.00  0.00    +0.000 A 
ATOM      6  C   UNL     1       3.847   2.418  18.094  0.00  0.00    +0.000 A 
ATOM      7  C   UNL     1       4.035   3.783  17.778  0.00  0.00    +0.000 A 
ATOM      8  C   UNL     1       3.261   4.712  18.548  0.00  0.00    +0.000 A 
ATOM      9  S   UNL     1       3.164   6.430  18.372  0.00  0.00    +0.000 S 
ENDROOT
BRANCH   7  10
ATOM     10  C   UNL     1       4.970   4.199  16.694  0.00  0.00    +0.000 A 
ATOM     11  C   UNL     1       6.068   5.036  16.948  0.00  0.00    +0.000 A 
ATOM     12  C   UNL     1       6.965   5.405  15.936  0.00  0.00    +0.000 A 
ATOM     13  C   UNL     1       6.826   4.907  14.635  0.00  0.00    +0.000 A 
ATOM     14  C   UNL     1       7.739   5.211  13.613  0.00  0.00    +0.000 A 
ATOM     15  C   UNL     1       7.591   4.662  12.335  0.00  0.00    +0.000 A 
ATOM     16  C   UNL     1       6.528   3.809  12.064  0.00  0.00    +0.000 A 
ATOM     17  C   UNL     1       5.599   3.518  13.061  0.00  0.00    +0.000 A 
ATOM     18  C   UNL     1       5.733   4.066  14.347  0.00  0.00    +0.000 A 
ATOM     19  C   UNL     1       4.804   3.781  15.360  0.00  0.00    +0.000 A 
ENDBRANCH   7  10
BRANCH   1  20
ATOM     20  C   UNL     1       1.807   8.035  20.211  0.00  0.00    +0.000 C 
BRANCH  20  21
ATOM     21  N   UNL     1       1.376   8.020  21.614  0.00  0.00    +0.000 NA
ATOM     22  H   UNL     1       0.421   7.666  21.635  0.00  0.00    +0.000 HD
BRANCH  21  23
ATOM     23  C   UNL     1       1.460   9.336  22.247  0.00  0.00    +0.000 C 
BRANCH  23  24
ATOM     24  CA  UNL     1       0.518  10.339  21.544  0.00  0.00    +0.000 C 
BRANCH  24  25
ATOM     25  N   UNL     1       1.230  11.542  20.997  0.00  0.00    +0.000 NA
ATOM     26  H1  UNL     1       1.975  11.196  20.383  0.00  0.00    +0.000 HD
ATOM     27  H2  UNL     1       1.724  11.998  21.770  0.00  0.00    +0.000 HD
ENDBRANCH  24  25
BRANCH  24  28
ATOM     28  C   UNL     1      -0.571  10.822  22.505  0.00  0.00    +0.000 C 
ATOM     29  O   UNL     1      -0.880  10.295  23.562  0.00  0.00    +0.000 OA
BRANCH  28  30
ATOM     30  OXT UNL     1      -1.197  11.927  22.016  0.00  0.00    +0.000 OA
ATOM     31  HXT UNL     1      -2.095  11.630  21.721  0.00  0.00    +0.000 HD
ENDBRANCH  28  30
ENDBRANCH  24  28
ENDBRANCH  23  24
ENDBRANCH  21  23
ENDBRANCH  20  21
ENDBRANCH   1  20
TORSDOF 8
ENDMDL
MODEL 9
REMARK VINA RESULT:      -7.8      4.082      8.118
REMARK  Name = 
REMARK  8 active torsions:
REMARK  status: ('A' for Active; 'I' for Inactive)
REMARK    1  A    between atoms: N_1  and  CA_2
REMARK    2  A    between atoms: CA_2  and  C_3
REMARK    3  A    between atoms: CA_2  and  C_25
REMARK    4  A    between atoms: C_3  and  N_4
REMARK    5  A    between atoms: N_4  and  C_5
REMARK    6  A    between atoms: C_5  and  C_6
REMARK    7  A    between atoms: C_12  and  C_13
REMARK    8  A    between atoms: C_25  and  OXT_27
REMARK                            x       y       z     vdW  Elec       q    Type
REMARK                         _______ _______ _______ _____ _____    ______ ____
ROOT
ATOM      1  C   UNL     1       2.072   7.031  19.872  0.00  0.00    +0.000 A 
ATOM      2  C   UNL     1       1.865   5.895  20.622  0.00  0.00    +0.000 A 
ATOM      3  C   UNL     1       2.588   4.745  20.137  0.00  0.00    +0.000 A 
ATOM      4  C   UNL     1       2.622   3.426  20.645  0.00  0.00    +0.000 A 
ATOM      5  C   UNL     1       3.423   2.460  20.044  0.00  0.00    +0.000 A 
ATOM      6  C   UNL     1       4.214   2.791  18.951  0.00  0.00    +0.000 A 
ATOM      7  C   UNL     1       4.230   4.088  18.387  0.00  0.00    +0.000 A 
ATOM      8  C   UNL     1       3.366   5.046  19.009  0.00  0.00    +0.000 A 
ATOM      9  S   UNL     1       3.060   6.681  18.534  0.00  0.00    +0.000 S 
ENDROOT
BRANCH   7  10
ATOM     10  C   UNL     1       5.087   4.403  17.209  0.00  0.00    +0.000 A 
ATOM     11  C   UNL     1       6.269   5.151  17.335  0.00  0.00    +0.000 A 
ATOM     12  C   UNL     1       7.091   5.424  16.232  0.00  0.00    +0.000 A 
ATOM     13  C   UNL     1       6.787   4.913  14.964  0.00  0.00    +0.000 A 
ATOM     14  C   UNL     1       7.619   5.120  13.853  0.00  0.00    +0.000 A 
ATOM     15  C   UNL     1       7.305   4.560  12.611  0.00  0.00    +0.000 A 
ATOM     16  C   UNL     1       6.155   3.793  12.465  0.00  0.00    +0.000 A 
ATOM     17  C   UNL     1       5.306   3.600  13.553  0.00  0.00    +0.000 A 
ATOM     18  C   UNL     1       5.607   4.160  14.805  0.00  0.00    +0.000 A 
ATOM     19  C   UNL     1       4.760   3.974  15.909  0.00  0.00    +0.000 A 
ENDBRANCH   7  10
BRANCH   1  20
ATOM     20  C   UNL     1       1.556   8.429  20.110  0.00  0.00    +0.000 C 
BRANCH  20  21
ATOM     21  N   UNL     1       1.512   8.746  21.542  0.00  0.00    +0.000 NA
ATOM     22  H   UNL     1       2.027   8.016  22.032  0.00  0.00    +0.000 HD
BRANCH  21  23
ATOM     23  C   UNL     1       0.146   8.855  22.056  0.00  0.00    +0.000 C 
BRANCH  23  24
ATOM     24  CA  UNL     1      -0.089  10.247  22.683  0.00  0.00    +0.000 C 
BRANCH  24  25
ATOM     25  N   UNL     1      -1.421  10.377  23.364  0.00  0.00    +0.000 NA
ATOM     26  H1  UNL     1      -2.116   9.944  22.748  0.00  0.00    +0.000 HD
ATOM     27  H2  UNL     1      -1.674  11.370  23.380  0.00  0.00    +0.000 HD
ENDBRANCH  24  25
BRANCH  24  28
ATOM     28  C   UNL     1       0.015  11.343  21.619  0.00  0.00    +0.000 C 
ATOM     29  O   UNL     1       0.667  12.372  21.711  0.00  0.00    +0.000 OA
BRANCH  28  30
ATOM     30  OXT UNL     1      -0.749  11.044  20.534  0.00  0.00    +0.000 OA
ATOM     31  HXT UNL     1      -1.311  11.843  20.362  0.00  0.00    +0.000 HD
ENDBRANCH  28  30
ENDBRANCH  24  28
ENDBRANCH  23  24
ENDBRANCH  21  23
ENDBRANCH  20  21
ENDBRANCH   1  20
TORSDOF 8
ENDMDL
