MODEL 1
REMARK VINA RESULT:      -7.8      0.000      0.000
REMARK  Name = 
REMARK  10 active torsions:
REMARK  status: ('A' for Active; 'I' for Inactive)
REMARK    1  A    between atoms: C_1  and  C_2
REMARK    2  A    between atoms: C_2  and  C_6
REMARK    3  A    between atoms: C_3  and  C_4
REMARK    4  A    between atoms: C_4  and  O_5
REMARK    5  A    between atoms: C_6  and  C_7
REMARK    6  A    between atoms: C_7  and  C_8
REMARK    7  A    between atoms: C_9  and  C_10
REMARK    8  A    between atoms: C_9  and  C_11
REMARK    9  A    between atoms: C_11  and  C_12
REMARK   10  A    between atoms: C_15  and  C_16
REMARK                            x       y       z     vdW  Elec       q    Type
REMARK                         _______ _______ _______ _____ _____    ______ ____
ROOT
ATOM      1  C   UNL     1       3.577   6.629  17.670  0.00  0.00    +0.000 C 
ENDROOT
BRANCH   1   2
ATOM      2  C   UNL     1       2.629   7.426  18.534  0.00  0.00    +0.000 A 
ATOM      3  C   UNL     1       2.073   8.614  18.052  0.00  0.00    +0.000 A 
ATOM      4  C   UNL     1       1.268   9.406  18.873  0.00  0.00    +0.000 A 
ATOM      5  C   UNL     1       0.983   9.043  20.204  0.00  0.00    +0.000 A 
ATOM      6  C   UNL     1       1.523   7.829  20.662  0.00  0.00    +0.000 A 
ATOM      7  C   UNL     1       2.336   7.033  19.844  0.00  0.00    +0.000 A 
BRANCH   5   8
ATOM      8  C   UNL     1       0.172   9.920  21.080  0.00  0.00    +0.000 A 
ATOM      9  C   UNL     1      -0.123   9.565  22.407  0.00  0.00    +0.000 A 
ATOM     10  C   UNL     1      -0.925  10.372  23.223  0.00  0.00    +0.000 A 
ATOM     11  C   UNL     1      -1.436  11.567  22.730  0.00  0.00    +0.000 A 
ATOM     12  C   UNL     1      -1.154  11.952  21.424  0.00  0.00    +0.000 A 
ATOM     13  C   UNL     1      -0.360  11.136  20.610  0.00  0.00    +0.000 A 
ENDBRANCH   5   8
ENDBRANCH   1   2
BRANCH   1  15
ATOM     14  C   UNL     1       1.930   4.755  17.874  0.00  0.00    +0.000 C 
ATOM     15  C   UNL     1       3.178   5.165  17.558  0.00  0.00    +0.000 C 
ATOM     16  C   UNL     1       4.293   4.247  17.131  0.00  0.00    +0.000 C 
BRANCH  14  17
ATOM     17  C   UNL     1       1.431   3.334  17.834  0.00  0.00    +0.000 C 
BRANCH  17  18
ATOM     18  C   UNL     1       0.944   2.802  19.189  0.00  0.00    +0.000 C 
BRANCH  18  20
ATOM     19  C   UNL     1       1.788   3.370  21.531  0.00  0.00    +0.000 C 
ATOM     20  C   UNL     1       2.092   2.763  20.186  0.00  0.00    +0.000 C 
ATOM     21  C   UNL     1       3.277   2.219  19.844  0.00  0.00    +0.000 C 
BRANCH  21  22
ATOM     22  C   UNL     1       4.484   2.043  20.711  0.00  0.00    +0.000 C 
BRANCH  22  23
ATOM     23  O   UNL     1       5.342   1.091  20.095  0.00  0.00    +0.000 OA
ATOM     24  H   UNL     1       5.690   1.511  19.291  0.00  0.00    +0.000 HD
ENDBRANCH  22  23
ENDBRANCH  21  22
ENDBRANCH  18  20
ENDBRANCH  17  18
ENDBRANCH  14  17
ENDBRANCH   1  15
TORSDOF 8
ENDMDL
MODEL 2
REMARK VINA RESULT:      -7.6      5.960      8.951
REMARK  Name = 
REMARK  10 active torsions:
REMARK  status: ('A' for Active; 'I' for Inactive)
REMARK    1  A    between atoms: C_1  and  C_2
REMARK    2  A    between atoms: C_2  and  C_6
REMARK    3  A    between atoms: C_3  and  C_4
REMARK    4  A    between atoms: C_4  and  O_5
REMARK    5  A    between atoms: C_6  and  C_7
REMARK    6  A    between atoms: C_7  and  C_8
REMARK    7  A    between atoms: C_9  and  C_10
REMARK    8  A    between atoms: C_9  and  C_11
REMARK    9  A    between atoms: C_11  and  C_12
REMARK   10  A    between atoms: C_15  and  C_16
REMARK                            x       y       z     vdW  Elec       q    Type
REMARK                         _______ _______ _______ _____ _____    ______ ____
ROOT
ATOM      1  C   UNL     1       7.199   7.156  16.662  0.00  0.00    +0.000 C 
ENDROOT
BRANCH   1   2
ATOM      2  C   UNL     1       6.016   6.348  17.139  0.00  0.00    +0.000 A 
ATOM      3  C   UNL     1       4.800   6.981  17.410  0.00  0.00    +0.000 A 
ATOM      4  C   UNL     1       3.726   6.260  17.938  0.00  0.00    +0.000 A 
ATOM      5  C   UNL     1       3.822   4.883  18.213  0.00  0.00    +0.000 A 
ATOM      6  C   UNL     1       5.042   4.255  17.904  0.00  0.00    +0.000 A 
ATOM      7  C   UNL     1       6.123   4.974  17.379  0.00  0.00    +0.000 A 
BRANCH   5   8
ATOM      8  C   UNL     1       2.693   4.143  18.823  0.00  0.00    +0.000 A 
ATOM      9  C   UNL     1       1.985   3.161  18.109  0.00  0.00    +0.000 A 
ATOM     10  C   UNL     1       0.891   2.491  18.669  0.00  0.00    +0.000 A 
ATOM     11  C   UNL     1       0.492   2.780  19.970  0.00  0.00    +0.000 A 
ATOM     12  C   UNL     1       1.178   3.738  20.707  0.00  0.00    +0.000 A 
ATOM     13  C   UNL     1       2.264   4.412  20.137  0.00  0.00    +0.000 A 
ENDBRANCH   5   8
ENDBRANCH   1   2
BRANCH   1  15
ATOM     14  C   UNL     1       8.241   9.176  17.711  0.00  0.00    +0.000 C 
ATOM     15  C   UNL     1       7.920   7.866  17.798  0.00  0.00    +0.000 C 
ATOM     16  C   UNL     1       8.277   6.978  18.960  0.00  0.00    +0.000 C 
BRANCH  14  17
ATOM     17  C   UNL     1       8.980   9.975  18.753  0.00  0.00    +0.000 C 
BRANCH  17  18
ATOM     18  C   UNL     1       9.032  11.483  18.468  0.00  0.00    +0.000 C 
BRANCH  18  20
ATOM     19  C   UNL     1      11.344  11.571  19.546  0.00  0.00    +0.000 C 
ATOM     20  C   UNL     1      10.475  11.955  18.377  0.00  0.00    +0.000 C 
ATOM     21  C   UNL     1      10.897  12.666  17.312  0.00  0.00    +0.000 C 
BRANCH  21  22
ATOM     22  C   UNL     1      12.284  13.153  17.032  0.00  0.00    +0.000 C 
BRANCH  22  23
ATOM     23  O   UNL     1      12.204  14.504  16.597  0.00  0.00    +0.000 OA
ATOM     24  H   UNL     1      13.100  14.873  16.673  0.00  0.00    +0.000 HD
ENDBRANCH  22  23
ENDBRANCH  21  22
ENDBRANCH  18  20
ENDBRANCH  17  18
ENDBRANCH  14  17
ENDBRANCH   1  15
TORSDOF 8
ENDMDL
MODEL 3
REMARK VINA RESULT:      -7.5      0.474      1.089
REMARK  Name = 
REMARK  10 active torsions:
REMARK  status: ('A' for Active; 'I' for Inactive)
REMARK    1  A    between atoms: C_1  and  C_2
REMARK    2  A    between atoms: C_2  and  C_6
REMARK    3  A    between atoms: C_3  and  C_4
REMARK    4  A    between atoms: C_4  and  O_5
REMARK    5  A    between atoms: C_6  and  C_7
REMARK    6  A    between atoms: C_7  and  C_8
REMARK    7  A    between atoms: C_9  and  C_10
REMARK    8  A    between atoms: C_9  and  C_11
REMARK    9  A    between atoms: C_11  and  C_12
REMARK   10  A    between atoms: C_15  and  C_16
REMARK                            x       y       z     vdW  Elec       q    Type
REMARK                         _______ _______ _______ _____ _____    ______ ____
ROOT
ATOM      1  C   UNL     1       3.423   6.648  17.776  0.00  0.00    +0.000 C 
ENDROOT
BRANCH   1   2
ATOM      2  C   UNL     1       2.517   7.493  18.639  0.00  0.00    +0.000 A 
ATOM      3  C   UNL     1       1.967   8.673  18.131  0.00  0.00    +0.000 A 
ATOM      4  C   UNL     1       1.202   9.510  18.946  0.00  0.00    +0.000 A 
ATOM      5  C   UNL     1       0.953   9.201  20.297  0.00  0.00    +0.000 A 
ATOM      6  C   UNL     1       1.485   7.994  20.784  0.00  0.00    +0.000 A 
ATOM      7  C   UNL     1       2.258   7.154  19.971  0.00  0.00    +0.000 A 
BRANCH   5   8
ATOM      8  C   UNL     1       0.184  10.124  21.165  0.00  0.00    +0.000 A 
ATOM      9  C   UNL     1       0.003  11.475  20.822  0.00  0.00    +0.000 A 
ATOM     10  C   UNL     1      -0.687  12.359  21.660  0.00  0.00    +0.000 A 
ATOM     11  C   UNL     1      -1.227  11.902  22.858  0.00  0.00    +0.000 A 
ATOM     12  C   UNL     1      -1.074  10.569  23.220  0.00  0.00    +0.000 A 
ATOM     13  C   UNL     1      -0.374   9.693  22.383  0.00  0.00    +0.000 A 
ENDBRANCH   5   8
ENDBRANCH   1   2
BRANCH   1  15
ATOM     14  C   UNL     1       1.685   4.864  18.024  0.00  0.00    +0.000 C 
ATOM     15  C   UNL     1       2.932   5.215  17.638  0.00  0.00    +0.000 C 
ATOM     16  C   UNL     1       3.960   4.253  17.103  0.00  0.00    +0.000 C 
BRANCH  14  17
ATOM     17  C   UNL     1       1.102   3.475  17.967  0.00  0.00    +0.000 C 
BRANCH  17  18
ATOM     18  C   UNL     1       0.839   2.848  19.343  0.00  0.00    +0.000 C 
BRANCH  18  20
ATOM     19  C   UNL     1       2.111   3.557  21.441  0.00  0.00    +0.000 C 
ATOM     20  C   UNL     1       2.127   2.781  20.148  0.00  0.00    +0.000 C 
ATOM     21  C   UNL     1       3.181   2.072  19.697  0.00  0.00    +0.000 C 
BRANCH  21  22
ATOM     22  C   UNL     1       4.492   1.849  20.382  0.00  0.00    +0.000 C 
BRANCH  22  23
ATOM     23  O   UNL     1       5.412   2.828  19.917  0.00  0.00    +0.000 OA
ATOM     24  H   UNL     1       5.180   3.007  18.990  0.00  0.00    +0.000 HD
ENDBRANCH  22  23
ENDBRANCH  21  22
ENDBRANCH  18  20
ENDBRANCH  17  18
ENDBRANCH  14  17
ENDBRANCH   1  15
TORSDOF 8
ENDMDL
MODEL 4
REMARK VINA RESULT:      -7.4      1.350      2.075
REMARK  Name = 
REMARK  10 active torsions:
REMARK  status: ('A' for Active; 'I' for Inactive)
REMARK    1  A    between atoms: C_1  and  C_2
REMARK    2  A    between atoms: C_2  and  C_6
REMARK    3  A    between atoms: C_3  and  C_4
REMARK    4  A    between atoms: C_4  and  O_5
REMARK    5  A    between atoms: C_6  and  C_7
REMARK    6  A    between atoms: C_7  and  C_8
REMARK    7  A    between atoms: C_9  and  C_10
REMARK    8  A    between atoms: C_9  and  C_11
REMARK    9  A    between atoms: C_11  and  C_12
REMARK   10  A    between atoms: C_15  and  C_16
REMARK                            x       y       z     vdW  Elec       q    Type
REMARK                         _______ _______ _______ _____ _____    ______ ____
ROOT
ATOM      1  C   UNL     1       4.092   6.767  17.009  0.00  0.00    +0.000 C 
ENDROOT
BRANCH   1   2
ATOM      2  C   UNL     1       3.125   7.369  18.000  0.00  0.00    +0.000 A 
ATOM      3  C   UNL     1       2.489   8.579  17.711  0.00  0.00    +0.000 A 
ATOM      4  C   UNL     1       1.664   9.192  18.656  0.00  0.00    +0.000 A 
ATOM      5  C   UNL     1       1.438   8.621  19.923  0.00  0.00    +0.000 A 
ATOM      6  C   UNL     1       2.059   7.387  20.186  0.00  0.00    +0.000 A 
ATOM      7  C   UNL     1       2.892   6.771  19.243  0.00  0.00    +0.000 A 
BRANCH   5   8
ATOM      8  C   UNL     1       0.603   9.310  20.935  0.00  0.00    +0.000 A 
ATOM      9  C   UNL     1      -0.207  10.407  20.597  0.00  0.00    +0.000 A 
ATOM     10  C   UNL     1      -0.965  11.085  21.559  0.00  0.00    +0.000 A 
ATOM     11  C   UNL     1      -0.940  10.665  22.885  0.00  0.00    +0.000 A 
ATOM     12  C   UNL     1      -0.156   9.576  23.250  0.00  0.00    +0.000 A 
ATOM     13  C   UNL     1       0.607   8.909  22.285  0.00  0.00    +0.000 A 
ENDBRANCH   5   8
ENDBRANCH   1   2
BRANCH   1  15
ATOM     14  C   UNL     1       3.681   4.299  16.910  0.00  0.00    +0.000 C 
ATOM     15  C   UNL     1       4.449   5.325  17.340  0.00  0.00    +0.000 C 
ATOM     16  C   UNL     1       5.666   5.170  18.214  0.00  0.00    +0.000 C 
BRANCH  14  17
ATOM     17  C   UNL     1       3.915   2.839  17.203  0.00  0.00    +0.000 C 
BRANCH  17  18
ATOM     18  C   UNL     1       2.740   2.145  17.906  0.00  0.00    +0.000 C 
BRANCH  18  20
ATOM     19  C   UNL     1       4.217   2.194  19.989  0.00  0.00    +0.000 C 
ATOM     20  C   UNL     1       2.833   2.344  19.411  0.00  0.00    +0.000 C 
ATOM     21  C   UNL     1       1.730   2.627  20.134  0.00  0.00    +0.000 C 
BRANCH  21  22
ATOM     22  C   UNL     1       1.649   2.912  21.601  0.00  0.00    +0.000 C 
BRANCH  22  23
ATOM     23  O   UNL     1       2.205   4.198  21.838  0.00  0.00    +0.000 OA
ATOM     24  H   UNL     1       2.275   4.634  20.971  0.00  0.00    +0.000 HD
ENDBRANCH  22  23
ENDBRANCH  21  22
ENDBRANCH  18  20
ENDBRANCH  17  18
ENDBRANCH  14  17
ENDBRANCH   1  15
TORSDOF 8
ENDMDL
MODEL 5
REMARK VINA RESULT:      -7.4      3.550      5.513
REMARK  Name = 
REMARK  10 active torsions:
REMARK  status: ('A' for Active; 'I' for Inactive)
REMARK    1  A    between atoms: C_1  and  C_2
REMARK    2  A    between atoms: C_2  and  C_6
REMARK    3  A    between atoms: C_3  and  C_4
REMARK    4  A    between atoms: C_4  and  O_5
REMARK    5  A    between atoms: C_6  and  C_7
REMARK    6  A    between atoms: C_7  and  C_8
REMARK    7  A    between atoms: C_9  and  C_10
REMARK    8  A    between atoms: C_9  and  C_11
REMARK    9  A    between atoms: C_11  and  C_12
REMARK   10  A    between atoms: C_15  and  C_16
REMARK                            x       y       z     vdW  Elec       q    Type
REMARK                         _______ _______ _______ _____ _____    ______ ____
ROOT
ATOM      1  C   UNL     1       4.943   4.059  18.040  0.00  0.00    +0.000 C 
ENDROOT
BRANCH   1   2
ATOM      2  C   UNL     1       4.133   5.296  18.346  0.00  0.00    +0.000 A 
ATOM      3  C   UNL     1       3.397   5.377  19.531  0.00  0.00    +0.000 A 
ATOM      4  C   UNL     1       2.573   6.475  19.783  0.00  0.00    +0.000 A 
ATOM      5  C   UNL     1       2.454   7.537  18.866  0.00  0.00    +0.000 A 
ATOM      6  C   UNL     1       3.226   7.456  17.694  0.00  0.00    +0.000 A 
ATOM      7  C   UNL     1       4.050   6.354  17.434  0.00  0.00    +0.000 A 
BRANCH   5   8
ATOM      8  C   UNL     1       1.534   8.670  19.122  0.00  0.00    +0.000 A 
ATOM      9  C   UNL     1       0.995   8.906  20.399  0.00  0.00    +0.000 A 
ATOM     10  C   UNL     1       0.094   9.950  20.634  0.00  0.00    +0.000 A 
ATOM     11  C   UNL     1      -0.275  10.797  19.594  0.00  0.00    +0.000 A 
ATOM     12  C   UNL     1       0.248  10.597  18.322  0.00  0.00    +0.000 A 
ATOM     13  C   UNL     1       1.141   9.544  18.091  0.00  0.00    +0.000 A 
ENDBRANCH   5   8
ENDBRANCH   1   2
BRANCH   1  15
ATOM     14  C   UNL     1       5.372   3.874  15.580  0.00  0.00    +0.000 C 
ATOM     15  C   UNL     1       5.819   4.222  16.807  0.00  0.00    +0.000 C 
ATOM     16  C   UNL     1       7.206   4.737  17.093  0.00  0.00    +0.000 C 
BRANCH  14  17
ATOM     17  C   UNL     1       6.157   3.958  14.297  0.00  0.00    +0.000 C 
BRANCH  17  18
ATOM     18  C   UNL     1       5.312   4.318  13.067  0.00  0.00    +0.000 C 
BRANCH  18  20
ATOM     19  C   UNL     1       4.167   3.037  11.179  0.00  0.00    +0.000 C 
ATOM     20  C   UNL     1       5.403   3.217  12.023  0.00  0.00    +0.000 C 
ATOM     21  C   UNL     1       6.524   2.478  11.901  0.00  0.00    +0.000 C 
BRANCH  21  22
ATOM     22  C   UNL     1       6.806   1.405  10.897  0.00  0.00    +0.000 C 
BRANCH  22  23
ATOM     23  O   UNL     1       6.227   0.193  11.364  0.00  0.00    +0.000 OA
ATOM     24  H   UNL     1       5.263   0.311  11.318  0.00  0.00    +0.000 HD
ENDBRANCH  22  23
ENDBRANCH  21  22
ENDBRANCH  18  20
ENDBRANCH  17  18
ENDBRANCH  14  17
ENDBRANCH   1  15
TORSDOF 8
ENDMDL
MODEL 6
REMARK VINA RESULT:      -7.4      4.697      6.728
REMARK  Name = 
REMARK  10 active torsions:
REMARK  status: ('A' for Active; 'I' for Inactive)
REMARK    1  A    between atoms: C_1  and  C_2
REMARK    2  A    between atoms: C_2  and  C_6
REMARK    3  A    between atoms: C_3  and  C_4
REMARK    4  A    between atoms: C_4  and  O_5
REMARK    5  A    between atoms: C_6  and  C_7
REMARK    6  A    between atoms: C_7  and  C_8
REMARK    7  A    between atoms: C_9  and  C_10
REMARK    8  A    between atoms: C_9  and  C_11
REMARK    9  A    between atoms: C_11  and  C_12
REMARK   10  A    between atoms: C_15  and  C_16
REMARK                            x       y       z     vdW  Elec       q    Type
REMARK                         _______ _______ _______ _____ _____    ______ ____
ROOT
ATOM      1  C   UNL     1       6.488   4.629  17.721  0.00  0.00    +0.000 C 
ENDROOT
BRANCH   1   2
ATOM      2  C   UNL     1       7.192   5.949  17.926  0.00  0.00    +0.000 A 
ATOM      3  C   UNL     1       7.957   6.164  19.076  0.00  0.00    +0.000 A 
ATOM      4  C   UNL     1       8.537   7.410  19.322  0.00  0.00    +0.000 A 
ATOM      5  C   UNL     1       8.381   8.488  18.430  0.00  0.00    +0.000 A 
ATOM      6  C   UNL     1       7.636   8.246  17.262  0.00  0.00    +0.000 A 
ATOM      7  C   UNL     1       7.047   7.000  17.014  0.00  0.00    +0.000 A 
BRANCH   5   8
ATOM      8  C   UNL     1       8.957   9.820  18.730  0.00  0.00    +0.000 A 
ATOM      9  C   UNL     1       9.179  10.770  17.719  0.00  0.00    +0.000 A 
ATOM     10  C   UNL     1       9.762  12.013  17.994  0.00  0.00    +0.000 A 
ATOM     11  C   UNL     1      10.122  12.338  19.297  0.00  0.00    +0.000 A 
ATOM     12  C   UNL     1       9.906  11.424  20.321  0.00  0.00    +0.000 A 
ATOM     13  C   UNL     1       9.332  10.179  20.039  0.00  0.00    +0.000 A 
ENDBRANCH   5   8
ENDBRANCH   1   2
BRANCH   1  15
ATOM     14  C   UNL     1       4.099   5.166  18.242  0.00  0.00    +0.000 C 
ATOM     15  C   UNL     1       5.027   4.799  17.331  0.00  0.00    +0.000 C 
ATOM     16  C   UNL     1       4.725   4.469  15.893  0.00  0.00    +0.000 C 
BRANCH  14  17
ATOM     17  C   UNL     1       2.624   5.332  17.981  0.00  0.00    +0.000 C 
BRANCH  17  18
ATOM     18  C   UNL     1       1.883   4.015  17.710  0.00  0.00    +0.000 C 
BRANCH  18  20
ATOM     19  C   UNL     1       2.683   1.844  18.791  0.00  0.00    +0.000 C 
ATOM     20  C   UNL     1       1.910   3.129  18.946  0.00  0.00    +0.000 C 
ATOM     21  C   UNL     1       1.271   3.505  20.073  0.00  0.00    +0.000 C 
BRANCH  21  22
ATOM     22  C   UNL     1       1.246   2.792  21.388  0.00  0.00    +0.000 C 
BRANCH  22  23
ATOM     23  O   UNL     1       2.394   3.182  22.130  0.00  0.00    +0.000 OA
ATOM     24  H   UNL     1       3.093   2.541  21.915  0.00  0.00    +0.000 HD
ENDBRANCH  22  23
ENDBRANCH  21  22
ENDBRANCH  18  20
ENDBRANCH  17  18
ENDBRANCH  14  17
ENDBRANCH   1  15
TORSDOF 8
ENDMDL
MODEL 7
REMARK VINA RESULT:      -7.4      3.851      5.834
REMARK  Name = 
REMARK  10 active torsions:
REMARK  status: ('A' for Active; 'I' for Inactive)
REMARK    1  A    between atoms: C_1  and  C_2
REMARK    2  A    between atoms: C_2  and  C_6
REMARK    3  A    between atoms: C_3  and  C_4
REMARK    4  A    between atoms: C_4  and  O_5
REMARK    5  A    between atoms: C_6  and  C_7
REMARK    6  A    between atoms: C_7  and  C_8
REMARK    7  A    between atoms: C_9  and  C_10
REMARK    8  A    between atoms: C_9  and  C_11
REMARK    9  A    between atoms: C_11  and  C_12
REMARK   10  A    between atoms: C_15  and  C_16
REMARK                            x       y       z     vdW  Elec       q    Type
REMARK                         _______ _______ _______ _____ _____    ______ ____
ROOT
ATOM      1  C   UNL     1       5.092   4.127  17.477  0.00  0.00    +0.000 C 
ENDROOT
BRANCH   1   2
ATOM      2  C   UNL     1       4.253   5.295  17.938  0.00  0.00    +0.000 A 
ATOM      3  C   UNL     1       3.316   5.125  18.960  0.00  0.00    +0.000 A 
ATOM      4  C   UNL     1       2.472   6.173  19.333  0.00  0.00    +0.000 A 
ATOM      5  C   UNL     1       2.532   7.431  18.703  0.00  0.00    +0.000 A 
ATOM      6  C   UNL     1       3.502   7.596  17.699  0.00  0.00    +0.000 A 
ATOM      7  C   UNL     1       4.348   6.546  17.318  0.00  0.00    +0.000 A 
BRANCH   5   8
ATOM      8  C   UNL     1       1.594   8.517  19.073  0.00  0.00    +0.000 A 
ATOM      9  C   UNL     1       1.208   8.734  20.406  0.00  0.00    +0.000 A 
ATOM     10  C   UNL     1       0.290   9.732  20.752  0.00  0.00    +0.000 A 
ATOM     11  C   UNL     1      -0.251  10.550  19.766  0.00  0.00    +0.000 A 
ATOM     12  C   UNL     1       0.118  10.368  18.439  0.00  0.00    +0.000 A 
ATOM     13  C   UNL     1       1.029   9.362  18.098  0.00  0.00    +0.000 A 
ENDBRANCH   5   8
ENDBRANCH   1   2
BRANCH   1  15
ATOM     14  C   UNL     1       5.232   4.359  14.988  0.00  0.00    +0.000 C 
ATOM     15  C   UNL     1       5.848   4.420  16.190  0.00  0.00    +0.000 C 
ATOM     16  C   UNL     1       7.312   4.715  16.382  0.00  0.00    +0.000 C 
BRANCH  14  17
ATOM     17  C   UNL     1       5.883   4.595  13.650  0.00  0.00    +0.000 C 
BRANCH  17  18
ATOM     18  C   UNL     1       6.459   3.328  13.000  0.00  0.00    +0.000 C 
BRANCH  18  20
ATOM     19  C   UNL     1       5.960   1.543  11.244  0.00  0.00    +0.000 C 
ATOM     20  C   UNL     1       5.535   2.832  11.899  0.00  0.00    +0.000 C 
ATOM     21  C   UNL     1       4.431   3.531  11.565  0.00  0.00    +0.000 C 
BRANCH  21  22
ATOM     22  C   UNL     1       3.388   3.161  10.558  0.00  0.00    +0.000 C 
BRANCH  22  23
ATOM     23  O   UNL     1       2.972   4.345   9.891  0.00  0.00    +0.000 OA
ATOM     24  H   UNL     1       3.782   4.815   9.629  0.00  0.00    +0.000 HD
ENDBRANCH  22  23
ENDBRANCH  21  22
ENDBRANCH  18  20
ENDBRANCH  17  18
ENDBRANCH  14  17
ENDBRANCH   1  15
TORSDOF 8
ENDMDL
MODEL 8
REMARK VINA RESULT:      -7.4      5.463      8.686
REMARK  Name = 
REMARK  10 active torsions:
REMARK  status: ('A' for Active; 'I' for Inactive)
REMARK    1  A    between atoms: C_1  and  C_2
REMARK    2  A    between atoms: C_2  and  C_6
REMARK    3  A    between atoms: C_3  and  C_4
REMARK    4  A    between atoms: C_4  and  O_5
REMARK    5  A    between atoms: C_6  and  C_7
REMARK    6  A    between atoms: C_7  and  C_8
REMARK    7  A    between atoms: C_9  and  C_10
REMARK    8  A    between atoms: C_9  and  C_11
REMARK    9  A    between atoms: C_11  and  C_12
REMARK   10  A    between atoms: C_15  and  C_16
REMARK                            x       y       z     vdW  Elec       q    Type
REMARK                         _______ _______ _______ _____ _____    ______ ____
ROOT
ATOM      1  C   UNL     1       7.141   7.022  16.674  0.00  0.00    +0.000 C 
ENDROOT
BRANCH   1   2
ATOM      2  C   UNL     1       5.950   6.227  17.155  0.00  0.00    +0.000 A 
ATOM      3  C   UNL     1       4.713   6.854  17.327  0.00  0.00    +0.000 A 
ATOM      4  C   UNL     1       3.628   6.152  17.857  0.00  0.00    +0.000 A 
ATOM      5  C   UNL     1       3.735   4.799  18.233  0.00  0.00    +0.000 A 
ATOM      6  C   UNL     1       4.977   4.175  18.023  0.00  0.00    +0.000 A 
ATOM      7  C   UNL     1       6.069   4.876  17.496  0.00  0.00    +0.000 A 
BRANCH   5   8
ATOM      8  C   UNL     1       2.590   4.082  18.844  0.00  0.00    +0.000 A 
ATOM      9  C   UNL     1       2.199   4.319  20.173  0.00  0.00    +0.000 A 
ATOM     10  C   UNL     1       1.145   3.613  20.765  0.00  0.00    +0.000 A 
ATOM     11  C   UNL     1       0.446   2.662  20.029  0.00  0.00    +0.000 A 
ATOM     12  C   UNL     1       0.802   2.412  18.709  0.00  0.00    +0.000 A 
ATOM     13  C   UNL     1       1.863   3.114  18.125  0.00  0.00    +0.000 A 
ENDBRANCH   5   8
ENDBRANCH   1   2
BRANCH   1  15
ATOM     14  C   UNL     1       8.149   9.053  17.736  0.00  0.00    +0.000 C 
ATOM     15  C   UNL     1       7.866   7.733  17.807  0.00  0.00    +0.000 C 
ATOM     16  C   UNL     1       8.275   6.835  18.945  0.00  0.00    +0.000 C 
BRANCH  14  17
ATOM     17  C   UNL     1       8.889   9.854  18.776  0.00  0.00    +0.000 C 
BRANCH  17  18
ATOM     18  C   UNL     1       9.752  10.985  18.199  0.00  0.00    +0.000 C 
BRANCH  18  20
ATOM     19  C   UNL     1       9.754  12.871  19.920  0.00  0.00    +0.000 C 
ATOM     20  C   UNL     1       9.202  12.339  18.623  0.00  0.00    +0.000 C 
ATOM     21  C   UNL     1       8.287  12.974  17.864  0.00  0.00    +0.000 C 
BRANCH  21  22
ATOM     22  C   UNL     1       7.689  14.326  18.096  0.00  0.00    +0.000 C 
BRANCH  22  23
ATOM     23  O   UNL     1       8.246  15.229  17.150  0.00  0.00    +0.000 OA
ATOM     24  H   UNL     1       8.058  14.859  16.270  0.00  0.00    +0.000 HD
ENDBRANCH  22  23
ENDBRANCH  21  22
ENDBRANCH  18  20
ENDBRANCH  17  18
ENDBRANCH  14  17
ENDBRANCH   1  15
TORSDOF 8
ENDMDL
MODEL 9
REMARK VINA RESULT:      -7.3      5.517      8.730
REMARK  Name = 
REMARK  10 active torsions:
REMARK  status: ('A' for Active; 'I' for Inactive)
REMARK    1  A    between atoms: C_1  and  C_2
REMARK    2  A    between atoms: C_2  and  C_6
REMARK    3  A    between atoms: C_3  and  C_4
REMARK    4  A    between atoms: C_4  and  O_5
REMARK    5  A    between atoms: C_6  and  C_7
REMARK    6  A    between atoms: C_7  and  C_8
REMARK    7  A    between atoms: C_9  and  C_10
REMARK    8  A    between atoms: C_9  and  C_11
REMARK    9  A    between atoms: C_11  and  C_12
REMARK   10  A    between atoms: C_15  and  C_16
REMARK                            x       y       z     vdW  Elec       q    Type
REMARK                         _______ _______ _______ _____ _____    ______ ____
ROOT
ATOM      1  C   UNL     1       7.158   7.082  16.733  0.00  0.00    +0.000 C 
ENDROOT
BRANCH   1   2
ATOM      2  C   UNL     1       5.984   6.265  17.219  0.00  0.00    +0.000 A 
ATOM      3  C   UNL     1       4.738   6.870  17.400  0.00  0.00    +0.000 A 
ATOM      4  C   UNL     1       3.669   6.148  17.936  0.00  0.00    +0.000 A 
ATOM      5  C   UNL     1       3.800   4.796  18.307  0.00  0.00    +0.000 A 
ATOM      6  C   UNL     1       5.052   4.194  18.088  0.00  0.00    +0.000 A 
ATOM      7  C   UNL     1       6.129   4.915  17.556  0.00  0.00    +0.000 A 
BRANCH   5   8
ATOM      8  C   UNL     1       2.673   4.059  18.924  0.00  0.00    +0.000 A 
ATOM      9  C   UNL     1       1.835   3.226  18.163  0.00  0.00    +0.000 A 
ATOM     10  C   UNL     1       0.744   2.562  18.735  0.00  0.00    +0.000 A 
ATOM     11  C   UNL     1       0.478   2.704  20.093  0.00  0.00    +0.000 A 
ATOM     12  C   UNL     1       1.294   3.512  20.875  0.00  0.00    +0.000 A 
ATOM     13  C   UNL     1       2.378   4.182  20.295  0.00  0.00    +0.000 A 
ENDBRANCH   5   8
ENDBRANCH   1   2
BRANCH   1  15
ATOM     14  C   UNL     1       8.200   9.091  17.803  0.00  0.00    +0.000 C 
ATOM     15  C   UNL     1       7.899   7.775  17.866  0.00  0.00    +0.000 C 
ATOM     16  C   UNL     1       8.301   6.863  18.996  0.00  0.00    +0.000 C 
BRANCH  14  17
ATOM     17  C   UNL     1       8.956   9.875  18.844  0.00  0.00    +0.000 C 
BRANCH  17  18
ATOM     18  C   UNL     1       9.848  10.984  18.268  0.00  0.00    +0.000 C 
BRANCH  18  20
ATOM     19  C   UNL     1       9.936  12.698  20.159  0.00  0.00    +0.000 C 
ATOM     20  C   UNL     1       9.407  12.342  18.794  0.00  0.00    +0.000 C 
ATOM     21  C   UNL     1       8.598  13.131  18.058  0.00  0.00    +0.000 C 
BRANCH  21  22
ATOM     22  C   UNL     1       8.120  14.510  18.390  0.00  0.00    +0.000 C 
BRANCH  22  23
ATOM     23  O   UNL     1       7.542  15.076  17.222  0.00  0.00    +0.000 OA
ATOM     24  H   UNL     1       8.025  14.704  16.465  0.00  0.00    +0.000 HD
ENDBRANCH  22  23
ENDBRANCH  21  22
ENDBRANCH  18  20
ENDBRANCH  17  18
ENDBRANCH  14  17
ENDBRANCH   1  15
TORSDOF 8
ENDMDL
