MODEL 1
REMARK VINA RESULT:      -8.0      0.000      0.000
REMARK  Name = 
REMARK  5 active torsions:
REMARK  status: ('A' for Active; 'I' for Inactive)
REMARK    1  A    between atoms: C_1  and  C_2
REMARK    2  A    between atoms: C_9  and  C_10
REMARK    3  A    between atoms: C_10  and  P_13
REMARK    4  A    between atoms: P_13  and  O_15
REMARK    5  A    between atoms: P_13  and  O_16
REMARK                            x       y       z     vdW  Elec       q    Type
REMARK                         _______ _______ _______ _____ _____    ______ ____
ROOT
ATOM      1  C   UNL     1       0.802   3.000  20.942  0.00  0.00    +0.000 C 
ATOM      2  C   UNL     1       1.676   3.122  19.728  0.00  0.00    +0.000 A 
ATOM      3  C   UNL     1       1.466   2.310  18.610  0.00  0.00    +0.000 A 
ATOM      4  C   UNL     1       2.265   2.456  17.475  0.00  0.00    +0.000 A 
ATOM      5  C   UNL     1       3.289   3.421  17.432  0.00  0.00    +0.000 A 
ATOM      6  C   UNL     1       4.106   3.572  16.302  0.00  0.00    +0.000 A 
ATOM      7  C   UNL     1       5.167   4.494  16.287  0.00  0.00    +0.000 A 
ATOM      8 BR   UNL     1       6.240   4.520  14.721  0.00  0.00    +0.000 Br
ATOM      9  C   UNL     1       5.430   5.298  17.403  0.00  0.00    +0.000 A 
ATOM     10  C   UNL     1       4.575   5.168  18.521  0.00  0.00    +0.000 A 
ATOM     11  C   UNL     1       3.520   4.237  18.556  0.00  0.00    +0.000 A 
ATOM     12  C   UNL     1       2.700   4.080  19.690  0.00  0.00    +0.000 A 
ENDROOT
BRANCH   9  13
ATOM     13  C   UNL     1       6.696   6.130  17.553  0.00  0.00    +0.000 C 
ATOM     14  F   UNL     1       7.656   5.928  16.614  0.00  0.00    +0.000 F 
ATOM     15  F   UNL     1       6.471   7.476  17.606  0.00  0.00    +0.000 F 
BRANCH  13  16
ATOM     16  P   UNL     1       7.523   5.763  19.142  0.00  0.00    +0.000 P 
ATOM     17  O   UNL     1       8.365   4.614  18.561  0.00  0.00    +0.000 OA
BRANCH  16  18
ATOM     18  O   UNL     1       8.529   7.069  19.024  0.00  0.00    +0.000 OA
ATOM     19  H   UNL     1       8.922   7.254  19.901  0.00  0.00    +0.000 HD
ENDBRANCH  16  18
BRANCH  16  20
ATOM     20  O   UNL     1       8.306   5.417  20.646  0.00  0.00    +0.000 OA
ATOM     21  H   UNL     1       8.161   6.226  21.178  0.00  0.00    +0.000 HD
ENDBRANCH  16  20
ENDBRANCH  13  16
ENDBRANCH   9  13
TORSDOF 4
ENDMDL
MODEL 2
REMARK VINA RESULT:      -7.8      1.445      1.915
REMARK  Name = 
REMARK  5 active torsions:
REMARK  status: ('A' for Active; 'I' for Inactive)
REMARK    1  A    between atoms: C_1  and  C_2
REMARK    2  A    between atoms: C_9  and  C_10
REMARK    3  A    between atoms: C_10  and  P_13
REMARK    4  A    between atoms: P_13  and  O_15
REMARK    5  A    between atoms: P_13  and  O_16
REMARK                            x       y       z     vdW  Elec       q    Type
REMARK                         _______ _______ _______ _____ _____    ______ ____
ROOT
ATOM      1  C   UNL     1       1.154   2.649  21.950  0.00  0.00    +0.000 C 
ATOM      2  C   UNL     1       1.796   2.857  20.609  0.00  0.00    +0.000 A 
ATOM      3  C   UNL     1       1.166   2.425  19.440  0.00  0.00    +0.000 A 
ATOM      4  C   UNL     1       1.758   2.654  18.197  0.00  0.00    +0.000 A 
ATOM      5  C   UNL     1       2.990   3.325  18.096  0.00  0.00    +0.000 A 
ATOM      6  C   UNL     1       3.602   3.554  16.855  0.00  0.00    +0.000 A 
ATOM      7  C   UNL     1       4.863   4.169  16.765  0.00  0.00    +0.000 A 
ATOM      8 BR   UNL     1       5.601   4.328  15.023  0.00  0.00    +0.000 Br
ATOM      9  C   UNL     1       5.540   4.583  17.919  0.00  0.00    +0.000 A 
ATOM     10  C   UNL     1       4.897   4.385  19.162  0.00  0.00    +0.000 A 
ATOM     11  C   UNL     1       3.643   3.756  19.268  0.00  0.00    +0.000 A 
ATOM     12  C   UNL     1       3.028   3.521  20.513  0.00  0.00    +0.000 A 
ENDROOT
BRANCH   9  13
ATOM     13  C   UNL     1       6.996   5.024  17.919  0.00  0.00    +0.000 C 
ATOM     14  F   UNL     1       7.674   4.838  19.080  0.00  0.00    +0.000 F 
ATOM     15  F   UNL     1       7.746   4.459  16.927  0.00  0.00    +0.000 F 
BRANCH  13  16
ATOM     16  P   UNL     1       7.125   6.819  17.594  0.00  0.00    +0.000 P 
ATOM     17  O   UNL     1       8.254   7.032  18.619  0.00  0.00    +0.000 OA
BRANCH  16  18
ATOM     18  O   UNL     1       7.940   6.596  16.174  0.00  0.00    +0.000 OA
ATOM     19  H   UNL     1       7.942   7.434  15.668  0.00  0.00    +0.000 HD
ENDBRANCH  16  18
BRANCH  16  20
ATOM     20  O   UNL     1       7.248   8.517  17.287  0.00  0.00    +0.000 OA
ATOM     21  H   UNL     1       6.375   8.752  16.911  0.00  0.00    +0.000 HD
ENDBRANCH  16  20
ENDBRANCH  13  16
ENDBRANCH   9  13
TORSDOF 4
ENDMDL
MODEL 3
REMARK VINA RESULT:      -7.7      4.098      4.755
REMARK  Name = 
REMARK  5 active torsions:
REMARK  status: ('A' for Active; 'I' for Inactive)
REMARK    1  A    between atoms: C_1  and  C_2
REMARK    2  A    between atoms: C_9  and  C_10
REMARK    3  A    between atoms: C_10  and  P_13
REMARK    4  A    between atoms: P_13  and  O_15
REMARK    5  A    between atoms: P_13  and  O_16
REMARK                            x       y       z     vdW  Elec       q    Type
REMARK                         _______ _______ _______ _____ _____    ______ ____
ROOT
ATOM      1  C   UNL     1      -0.030   9.179  21.529  0.00  0.00    +0.000 C 
ATOM      2  C   UNL     1       0.874   8.740  20.414  0.00  0.00    +0.000 A 
ATOM      3  C   UNL     1       1.062   9.543  19.287  0.00  0.00    +0.000 A 
ATOM      4  C   UNL     1       1.930   9.138  18.272  0.00  0.00    +0.000 A 
ATOM      5  C   UNL     1       2.635   7.923  18.366  0.00  0.00    +0.000 A 
ATOM      6  C   UNL     1       3.503   7.499  17.350  0.00  0.00    +0.000 A 
ATOM      7  C   UNL     1       4.155   6.256  17.419  0.00  0.00    +0.000 A 
ATOM      8 BR   UNL     1       5.228   5.781  15.926  0.00  0.00    +0.000 Br
ATOM      9  C   UNL     1       3.963   5.409  18.518  0.00  0.00    +0.000 A 
ATOM     10  C   UNL     1       3.118   5.863  19.555  0.00  0.00    +0.000 A 
ATOM     11  C   UNL     1       2.445   7.098  19.491  0.00  0.00    +0.000 A 
ATOM     12  C   UNL     1       1.569   7.525  20.507  0.00  0.00    +0.000 A 
ENDROOT
BRANCH   9  13
ATOM     13  C   UNL     1       4.432   3.961  18.548  0.00  0.00    +0.000 C 
ATOM     14  F   UNL     1       3.999   3.174  17.530  0.00  0.00    +0.000 F 
ATOM     15  F   UNL     1       5.789   3.819  18.609  0.00  0.00    +0.000 F 
BRANCH  13  16
ATOM     16  P   UNL     1       3.837   3.123  20.061  0.00  0.00    +0.000 P 
ATOM     17  O   UNL     1       2.705   2.378  19.332  0.00  0.00    +0.000 OA
BRANCH  16  18
ATOM     18  O   UNL     1       5.077   2.031  20.053  0.00  0.00    +0.000 OA
ATOM     19  H   UNL     1       4.992   1.453  19.268  0.00  0.00    +0.000 HD
ENDBRANCH  16  18
BRANCH  16  20
ATOM     20  O   UNL     1       3.275   2.330  21.492  0.00  0.00    +0.000 OA
ATOM     21  H   UNL     1       2.629   2.961  21.872  0.00  0.00    +0.000 HD
ENDBRANCH  16  20
ENDBRANCH  13  16
ENDBRANCH   9  13
TORSDOF 4
ENDMDL
MODEL 4
REMARK VINA RESULT:      -7.6      4.653      5.348
REMARK  Name = 
REMARK  5 active torsions:
REMARK  status: ('A' for Active; 'I' for Inactive)
REMARK    1  A    between atoms: C_1  and  C_2
REMARK    2  A    between atoms: C_9  and  C_10
REMARK    3  A    between atoms: C_10  and  P_13
REMARK    4  A    between atoms: P_13  and  O_15
REMARK    5  A    between atoms: P_13  and  O_16
REMARK                            x       y       z     vdW  Elec       q    Type
REMARK                         _______ _______ _______ _____ _____    ______ ____
ROOT
ATOM      1  C   UNL     1       0.092  10.005  21.004  0.00  0.00    +0.000 C 
ATOM      2  C   UNL     1       0.955   9.207  20.070  0.00  0.00    +0.000 A 
ATOM      3  C   UNL     1       1.363   9.737  18.843  0.00  0.00    +0.000 A 
ATOM      4  C   UNL     1       2.192   8.998  17.999  0.00  0.00    +0.000 A 
ATOM      5  C   UNL     1       2.635   7.713  18.364  0.00  0.00    +0.000 A 
ATOM      6  C   UNL     1       3.460   6.954  17.522  0.00  0.00    +0.000 A 
ATOM      7  C   UNL     1       3.847   5.647  17.864  0.00  0.00    +0.000 A 
ATOM      8 BR   UNL     1       4.889   4.713  16.581  0.00  0.00    +0.000 Br
ATOM      9  C   UNL     1       3.427   5.069  19.068  0.00  0.00    +0.000 A 
ATOM     10  C   UNL     1       2.630   5.857  19.929  0.00  0.00    +0.000 A 
ATOM     11  C   UNL     1       2.220   7.161  19.592  0.00  0.00    +0.000 A 
ATOM     12  C   UNL     1       1.388   7.924  20.434  0.00  0.00    +0.000 A 
ENDROOT
BRANCH   9  13
ATOM     13  C   UNL     1       3.597   3.591  19.389  0.00  0.00    +0.000 C 
ATOM     14  F   UNL     1       3.228   2.724  18.413  0.00  0.00    +0.000 F 
ATOM     15  F   UNL     1       4.864   3.249  19.766  0.00  0.00    +0.000 F 
BRANCH  13  16
ATOM     16  P   UNL     1       2.572   3.124  20.831  0.00  0.00    +0.000 P 
ATOM     17  O   UNL     1       1.696   2.147  20.026  0.00  0.00    +0.000 OA
BRANCH  16  18
ATOM     18  O   UNL     1       3.745   2.148  21.464  0.00  0.00    +0.000 OA
ATOM     19  H   UNL     1       3.365   1.266  21.649  0.00  0.00    +0.000 HD
ENDBRANCH  16  18
BRANCH  16  20
ATOM     20  O   UNL     1       1.602   2.681  22.193  0.00  0.00    +0.000 OA
ATOM     21  H   UNL     1       0.900   3.363  22.213  0.00  0.00    +0.000 HD
ENDBRANCH  16  20
ENDBRANCH  13  16
ENDBRANCH   9  13
TORSDOF 4
ENDMDL
MODEL 5
REMARK VINA RESULT:      -7.5      5.393      6.174
REMARK  Name = 
REMARK  5 active torsions:
REMARK  status: ('A' for Active; 'I' for Inactive)
REMARK    1  A    between atoms: C_1  and  C_2
REMARK    2  A    between atoms: C_9  and  C_10
REMARK    3  A    between atoms: C_10  and  P_13
REMARK    4  A    between atoms: P_13  and  O_15
REMARK    5  A    between atoms: P_13  and  O_16
REMARK                            x       y       z     vdW  Elec       q    Type
REMARK                         _______ _______ _______ _____ _____    ______ ____
ROOT
ATOM      1  C   UNL     1      -0.029  11.194  20.712  0.00  0.00    +0.000 C 
ATOM      2  C   UNL     1       0.748  10.165  19.944  0.00  0.00    +0.000 A 
ATOM      3  C   UNL     1       1.252  10.450  18.673  0.00  0.00    +0.000 A 
ATOM      4  C   UNL     1       2.001   9.495  17.983  0.00  0.00    +0.000 A 
ATOM      5  C   UNL     1       2.267   8.236  18.553  0.00  0.00    +0.000 A 
ATOM      6  C   UNL     1       3.009   7.263  17.868  0.00  0.00    +0.000 A 
ATOM      7  C   UNL     1       3.219   5.986  18.415  0.00  0.00    +0.000 A 
ATOM      8 BR   UNL     1       4.165   4.748  17.330  0.00  0.00    +0.000 Br
ATOM      9  C   UNL     1       2.697   5.653  19.671  0.00  0.00    +0.000 A 
ATOM     10  C   UNL     1       1.986   6.653  20.371  0.00  0.00    +0.000 A 
ATOM     11  C   UNL     1       1.755   7.931  19.828  0.00  0.00    +0.000 A 
ATOM     12  C   UNL     1       1.005   8.908  20.512  0.00  0.00    +0.000 A 
ENDROOT
BRANCH   9  13
ATOM     13  C   UNL     1       2.670   4.231  20.213  0.00  0.00    +0.000 C 
ATOM     14  F   UNL     1       3.815   3.517  20.070  0.00  0.00    +0.000 F 
ATOM     15  F   UNL     1       2.311   4.146  21.528  0.00  0.00    +0.000 F 
BRANCH  13  16
ATOM     16  P   UNL     1       1.399   3.238  19.350  0.00  0.00    +0.000 P 
ATOM     17  O   UNL     1       2.289   1.986  19.254  0.00  0.00    +0.000 OA
BRANCH  16  18
ATOM     18  O   UNL     1       0.531   2.981  20.733  0.00  0.00    +0.000 OA
ATOM     19  H   UNL     1       1.140   2.973  21.499  0.00  0.00    +0.000 HD
ENDBRANCH  16  18
BRANCH  16  20
ATOM     20  O   UNL     1       0.197   2.298  18.535  0.00  0.00    +0.000 OA
ATOM     21  H   UNL     1      -0.648   2.716  18.800  0.00  0.00    +0.000 HD
ENDBRANCH  16  20
ENDBRANCH  13  16
ENDBRANCH   9  13
TORSDOF 4
ENDMDL
MODEL 6
REMARK VINA RESULT:      -7.4      4.335      5.878
REMARK  Name = 
REMARK  5 active torsions:
REMARK  status: ('A' for Active; 'I' for Inactive)
REMARK    1  A    between atoms: C_1  and  C_2
REMARK    2  A    between atoms: C_9  and  C_10
REMARK    3  A    between atoms: C_10  and  P_13
REMARK    4  A    between atoms: P_13  and  O_15
REMARK    5  A    between atoms: P_13  and  O_16
REMARK                            x       y       z     vdW  Elec       q    Type
REMARK                         _______ _______ _______ _____ _____    ______ ____
ROOT
ATOM      1  C   UNL     1       6.282   3.685  14.414  0.00  0.00    +0.000 C 
ATOM      2  C   UNL     1       5.553   4.615  15.339  0.00  0.00    +0.000 A 
ATOM      3  C   UNL     1       5.700   6.000  15.224  0.00  0.00    +0.000 A 
ATOM      4  C   UNL     1       4.991   6.855  16.069  0.00  0.00    +0.000 A 
ATOM      5  C   UNL     1       4.115   6.343  17.044  0.00  0.00    +0.000 A 
ATOM      6  C   UNL     1       3.403   7.190  17.907  0.00  0.00    +0.000 A 
ATOM      7  C   UNL     1       2.578   6.672  18.920  0.00  0.00    +0.000 A 
ATOM      8 BR   UNL     1       1.752   7.941  20.066  0.00  0.00    +0.000 Br
ATOM      9  C   UNL     1       2.435   5.289  19.088  0.00  0.00    +0.000 A 
ATOM     10  C   UNL     1       3.124   4.445  18.188  0.00  0.00    +0.000 A 
ATOM     11  C   UNL     1       3.966   4.950  17.180  0.00  0.00    +0.000 A 
ATOM     12  C   UNL     1       4.686   4.102  16.315  0.00  0.00    +0.000 A 
ENDROOT
BRANCH   9  13
ATOM     13  C   UNL     1       1.766   4.661  20.302  0.00  0.00    +0.000 C 
ATOM     14  F   UNL     1       1.617   5.467  21.384  0.00  0.00    +0.000 F 
ATOM     15  F   UNL     1       0.540   4.118  20.040  0.00  0.00    +0.000 F 
BRANCH  13  16
ATOM     16  P   UNL     1       2.747   3.245  20.917  0.00  0.00    +0.000 P 
ATOM     17  O   UNL     1       2.159   3.316  22.337  0.00  0.00    +0.000 OA
BRANCH  16  18
ATOM     18  O   UNL     1       1.785   2.133  20.162  0.00  0.00    +0.000 OA
ATOM     19  H   UNL     1       0.945   2.561  19.899  0.00  0.00    +0.000 HD
ENDBRANCH  16  18
BRANCH  16  20
ATOM     20  O   UNL     1       3.675   1.905  21.498  0.00  0.00    +0.000 OA
ATOM     21  H   UNL     1       3.043   1.407  22.057  0.00  0.00    +0.000 HD
ENDBRANCH  16  20
ENDBRANCH  13  16
ENDBRANCH   9  13
TORSDOF 4
ENDMDL
MODEL 7
REMARK VINA RESULT:      -7.4      4.757      6.228
REMARK  Name = 
REMARK  5 active torsions:
REMARK  status: ('A' for Active; 'I' for Inactive)
REMARK    1  A    between atoms: C_1  and  C_2
REMARK    2  A    between atoms: C_9  and  C_10
REMARK    3  A    between atoms: C_10  and  P_13
REMARK    4  A    between atoms: P_13  and  O_15
REMARK    5  A    between atoms: P_13  and  O_16
REMARK                            x       y       z     vdW  Elec       q    Type
REMARK                         _______ _______ _______ _____ _____    ______ ____
ROOT
ATOM      1  C   UNL     1       6.362   4.264  14.466  0.00  0.00    +0.000 C 
ATOM      2  C   UNL     1       5.605   5.070  15.480  0.00  0.00    +0.000 A 
ATOM      3  C   UNL     1       5.753   6.458  15.547  0.00  0.00    +0.000 A 
ATOM      4  C   UNL     1       5.019   7.200  16.473  0.00  0.00    +0.000 A 
ATOM      5  C   UNL     1       4.115   6.570  17.350  0.00  0.00    +0.000 A 
ATOM      6  C   UNL     1       3.378   7.301  18.292  0.00  0.00    +0.000 A 
ATOM      7  C   UNL     1       2.524   6.660  19.207  0.00  0.00    +0.000 A 
ATOM      8 BR   UNL     1       1.663   7.774  20.481  0.00  0.00    +0.000 Br
ATOM      9  C   UNL     1       2.379   5.267  19.193  0.00  0.00    +0.000 A 
ATOM     10  C   UNL     1       3.095   4.544  18.213  0.00  0.00    +0.000 A 
ATOM     11  C   UNL     1       3.965   5.170  17.302  0.00  0.00    +0.000 A 
ATOM     12  C   UNL     1       4.711   4.439  16.357  0.00  0.00    +0.000 A 
ENDROOT
BRANCH   9  13
ATOM     13  C   UNL     1       1.676   4.490  20.297  0.00  0.00    +0.000 C 
ATOM     14  F   UNL     1       2.232   4.576  21.533  0.00  0.00    +0.000 F 
ATOM     15  F   UNL     1       0.353   4.799  20.436  0.00  0.00    +0.000 F 
BRANCH  13  16
ATOM     16  P   UNL     1       1.668   2.700  19.920  0.00  0.00    +0.000 P 
ATOM     17  O   UNL     1       1.613   2.280  21.400  0.00  0.00    +0.000 OA
BRANCH  16  18
ATOM     18  O   UNL     1       0.079   2.710  19.468  0.00  0.00    +0.000 OA
ATOM     19  H   UNL     1       0.018   2.890  18.508  0.00  0.00    +0.000 HD
ENDBRANCH  16  18
BRANCH  16  20
ATOM     20  O   UNL     1       1.660   1.007  19.564  0.00  0.00    +0.000 OA
ATOM     21  H   UNL     1       2.579   0.823  19.278  0.00  0.00    +0.000 HD
ENDBRANCH  16  20
ENDBRANCH  13  16
ENDBRANCH   9  13
TORSDOF 4
ENDMDL
MODEL 8
REMARK VINA RESULT:      -7.3      3.413      4.295
REMARK  Name = 
REMARK  5 active torsions:
REMARK  status: ('A' for Active; 'I' for Inactive)
REMARK    1  A    between atoms: C_1  and  C_2
REMARK    2  A    between atoms: C_9  and  C_10
REMARK    3  A    between atoms: C_10  and  P_13
REMARK    4  A    between atoms: P_13  and  O_15
REMARK    5  A    between atoms: P_13  and  O_16
REMARK                            x       y       z     vdW  Elec       q    Type
REMARK                         _______ _______ _______ _____ _____    ______ ____
ROOT
ATOM      1  C   UNL     1       0.927  10.892  18.706  0.00  0.00    +0.000 C 
ATOM      2  C   UNL     1       1.452   9.519  19.007  0.00  0.00    +0.000 A 
ATOM      3  C   UNL     1       1.161   8.891  20.220  0.00  0.00    +0.000 A 
ATOM      4  C   UNL     1       1.628   7.600  20.474  0.00  0.00    +0.000 A 
ATOM      5  C   UNL     1       2.393   6.908  19.517  0.00  0.00    +0.000 A 
ATOM      6  C   UNL     1       2.878   5.615  19.762  0.00  0.00    +0.000 A 
ATOM      7  C   UNL     1       3.694   4.952  18.829  0.00  0.00    +0.000 A 
ATOM      8 BR   UNL     1       4.347   3.245  19.341  0.00  0.00    +0.000 Br
ATOM      9  C   UNL     1       4.037   5.566  17.618  0.00  0.00    +0.000 A 
ATOM     10  C   UNL     1       3.510   6.852  17.363  0.00  0.00    +0.000 A 
ATOM     11  C   UNL     1       2.705   7.534  18.295  0.00  0.00    +0.000 A 
ATOM     12  C   UNL     1       2.221   8.834  18.054  0.00  0.00    +0.000 A 
ENDROOT
BRANCH   9  13
ATOM     13  C   UNL     1       5.104   5.022  16.679  0.00  0.00    +0.000 C 
ATOM     14  F   UNL     1       4.847   3.810  16.124  0.00  0.00    +0.000 F 
ATOM     15  F   UNL     1       5.424   5.867  15.654  0.00  0.00    +0.000 F 
BRANCH  13  16
ATOM     16  P   UNL     1       6.687   4.794  17.567  0.00  0.00    +0.000 P 
ATOM     17  O   UNL     1       7.494   4.536  16.282  0.00  0.00    +0.000 OA
BRANCH  16  18
ATOM     18  O   UNL     1       6.883   6.416  17.818  0.00  0.00    +0.000 OA
ATOM     19  H   UNL     1       6.724   6.894  16.979  0.00  0.00    +0.000 HD
ENDBRANCH  16  18
BRANCH  16  20
ATOM     20  O   UNL     1       8.185   4.580  18.406  0.00  0.00    +0.000 OA
ATOM     21  H   UNL     1       8.856   4.915  17.777  0.00  0.00    +0.000 HD
ENDBRANCH  16  20
ENDBRANCH  13  16
ENDBRANCH   9  13
TORSDOF 4
ENDMDL
MODEL 9
REMARK VINA RESULT:      -7.3      3.919      5.689
REMARK  Name = 
REMARK  5 active torsions:
REMARK  status: ('A' for Active; 'I' for Inactive)
REMARK    1  A    between atoms: C_1  and  C_2
REMARK    2  A    between atoms: C_9  and  C_10
REMARK    3  A    between atoms: C_10  and  P_13
REMARK    4  A    between atoms: P_13  and  O_15
REMARK    5  A    between atoms: P_13  and  O_16
REMARK                            x       y       z     vdW  Elec       q    Type
REMARK                         _______ _______ _______ _____ _____    ______ ____
ROOT
ATOM      1  C   UNL     1       4.967   3.159  11.418  0.00  0.00    +0.000 C 
ATOM      2  C   UNL     1       5.598   3.680  12.676  0.00  0.00    +0.000 A 
ATOM      3  C   UNL     1       6.906   4.172  12.671  0.00  0.00    +0.000 A 
ATOM      4  C   UNL     1       7.469   4.684  13.840  0.00  0.00    +0.000 A 
ATOM      5  C   UNL     1       6.735   4.719  15.041  0.00  0.00    +0.000 A 
ATOM      6  C   UNL     1       7.291   5.221  16.226  0.00  0.00    +0.000 A 
ATOM      7  C   UNL     1       6.576   5.196  17.436  0.00  0.00    +0.000 A 
ATOM      8 BR   UNL     1       7.494   5.826  18.973  0.00  0.00    +0.000 Br
ATOM      9  C   UNL     1       5.276   4.676  17.486  0.00  0.00    +0.000 A 
ATOM     10  C   UNL     1       4.709   4.211  16.278  0.00  0.00    +0.000 A 
ATOM     11  C   UNL     1       5.420   4.214  15.064  0.00  0.00    +0.000 A 
ATOM     12  C   UNL     1       4.866   3.707  13.872  0.00  0.00    +0.000 A 
ENDROOT
BRANCH   9  13
ATOM     13  C   UNL     1       4.542   4.390  18.788  0.00  0.00    +0.000 C 
ATOM     14  F   UNL     1       5.101   3.451  19.594  0.00  0.00    +0.000 F 
ATOM     15  F   UNL     1       4.328   5.497  19.558  0.00  0.00    +0.000 F 
BRANCH  13  16
ATOM     16  P   UNL     1       2.857   3.761  18.452  0.00  0.00    +0.000 P 
ATOM     17  O   UNL     1       2.869   2.784  19.640  0.00  0.00    +0.000 OA
BRANCH  16  18
ATOM     18  O   UNL     1       2.131   5.108  19.075  0.00  0.00    +0.000 OA
ATOM     19  H   UNL     1       2.087   5.800  18.384  0.00  0.00    +0.000 HD
ENDBRANCH  16  18
BRANCH  16  20
ATOM     20  O   UNL     1       1.264   3.167  18.134  0.00  0.00    +0.000 OA
ATOM     21  H   UNL     1       0.981   2.784  18.990  0.00  0.00    +0.000 HD
ENDBRANCH  16  20
ENDBRANCH  13  16
ENDBRANCH   9  13
TORSDOF 4
ENDMDL
