MODEL 1
REMARK VINA RESULT:      -9.0      0.000      0.000
REMARK  Name = 
REMARK  4 active torsions:
REMARK  status: ('A' for Active; 'I' for Inactive)
REMARK    1  A    between atoms: C_1  and  C_2
REMARK    2  A    between atoms: C_2  and  C_3
REMARK    3  A    between atoms: C_6  and  C_7
REMARK    4  A    between atoms: C_24  and  C_25
REMARK                            x       y       z     vdW  Elec       q    Type
REMARK                         _______ _______ _______ _____ _____    ______ ____
ROOT
ATOM      1  C   UNL     1      -0.390  10.571  19.709  0.00  0.00    +0.000 C 
ATOM      2  C   UNL     1      -0.382  11.671  20.735  0.00  0.00    +0.000 A 
ATOM      3  N   UNL     1      -0.192  13.022  20.586  0.00  0.00    +0.000 N 
ATOM      4  C   UNL     1      -0.352  13.823  21.743  0.00  0.00    +0.000 A 
ATOM      5  C   UNL     1       0.142  15.124  21.815  0.00  0.00    +0.000 A 
ATOM      6  C   UNL     1      -0.262  15.963  22.858  0.00  0.00    +0.000 A 
ATOM      7  C   UNL     1      -1.225  15.534  23.776  0.00  0.00    +0.000 A 
ATOM      8  C   UNL     1      -1.675  14.213  23.752  0.00  0.00    +0.000 A 
ATOM      9  C   UNL     1      -1.160  13.339  22.794  0.00  0.00    +0.000 A 
ATOM     10  C   UNL     1      -1.329  11.853  22.905  0.00  0.00    +0.000 A 
ATOM     11  O   UNL     1      -2.043  11.334  23.753  0.00  0.00    +0.000 OA
ATOM     12  C   UNL     1      -0.600  11.054  21.907  0.00  0.00    +0.000 A 
ATOM     13  C   UNL     1      -0.176   9.598  21.831  0.00  0.00    +0.000 C 
ATOM     14  N   UNL     1       0.324   9.547  20.433  0.00  0.00    +0.000 N 
ATOM     15  C   UNL     1       1.296   8.811  19.856  0.00  0.00    +0.000 A 
ATOM     16  N   UNL     1       1.863   9.270  18.724  0.00  0.00    +0.000 NA
ATOM     17  C   UNL     1       2.674   8.444  18.022  0.00  0.00    +0.000 A 
ATOM     18  C   UNL     1       2.946   7.139  18.376  0.00  0.00    +0.000 A 
ATOM     19  C   UNL     1       2.383   6.800  19.594  0.00  0.00    +0.000 A 
ATOM     20  N   UNL     1       1.593   7.607  20.352  0.00  0.00    +0.000 NA
ATOM     21  H   UNL     1       0.574  13.276  19.967  0.00  0.00    +0.000 HD
ENDROOT
BRANCH  18  22
ATOM     22  C   UNL     1       3.701   6.201  17.532  0.00  0.00    +0.000 A 
ATOM     23  C   UNL     1       4.697   6.621  16.639  0.00  0.00    +0.000 A 
ATOM     24  C   UNL     1       5.386   5.689  15.855  0.00  0.00    +0.000 A 
ATOM     25  C   UNL     1       5.056   4.350  15.973  0.00  0.00    +0.000 A 
ATOM     26  N   UNL     1       4.099   3.889  16.792  0.00  0.00    +0.000 NA
ATOM     27  C   UNL     1       3.440   4.825  17.543  0.00  0.00    +0.000 A 
ENDBRANCH  18  22
BRANCH   1  31
ATOM     28  C   UNL     1      -2.831  10.788  16.741  0.00  0.00    +0.000 A 
ATOM     29  C   UNL     1      -2.090   9.651  16.506  0.00  0.00    +0.000 A 
ATOM     30  C   UNL     1      -0.975   9.546  17.388  0.00  0.00    +0.000 A 
ATOM     31  C   UNL     1      -0.937  10.581  18.309  0.00  0.00    +0.000 A 
ATOM     32  S   UNL     1      -2.090  11.794  17.902  0.00  0.00    +0.000 S 
BRANCH  28  34
ATOM     33  C   UNL     1      -5.027  11.847  17.141  0.00  0.00    +0.000 C 
ATOM     34  C   UNL     1      -4.115  11.215  16.106  0.00  0.00    +0.000 C 
ENDBRANCH  28  34
ENDBRANCH   1  31
TORSDOF 3
ENDMDL
MODEL 2
REMARK VINA RESULT:      -8.5      0.967      1.385
REMARK  Name = 
REMARK  4 active torsions:
REMARK  status: ('A' for Active; 'I' for Inactive)
REMARK    1  A    between atoms: C_1  and  C_2
REMARK    2  A    between atoms: C_2  and  C_3
REMARK    3  A    between atoms: C_6  and  C_7
REMARK    4  A    between atoms: C_24  and  C_25
REMARK                            x       y       z     vdW  Elec       q    Type
REMARK                         _______ _______ _______ _____ _____    ______ ____
ROOT
ATOM      1  C   UNL     1      -0.235  11.084  19.635  0.00  0.00    +0.000 C 
ATOM      2  C   UNL     1       0.026  12.363  20.381  0.00  0.00    +0.000 A 
ATOM      3  N   UNL     1       0.346  13.614  19.915  0.00  0.00    +0.000 N 
ATOM      4  C   UNL     1       0.425  14.653  20.873  0.00  0.00    +0.000 A 
ATOM      5  C   UNL     1       1.066  15.861  20.602  0.00  0.00    +0.000 A 
ATOM      6  C   UNL     1       0.896  16.947  21.466  0.00  0.00    +0.000 A 
ATOM      7  C   UNL     1       0.017  16.856  22.549  0.00  0.00    +0.000 A 
ATOM      8  C   UNL     1      -0.577  15.633  22.867  0.00  0.00    +0.000 A 
ATOM      9  C   UNL     1      -0.289  14.516  22.082  0.00  0.00    +0.000 A 
ATOM     10  C   UNL     1      -0.607  13.124  22.540  0.00  0.00    +0.000 A 
ATOM     11  O   UNL     1      -1.260  12.897  23.550  0.00  0.00    +0.000 OA
ATOM     12  C   UNL     1      -0.107  12.042  21.678  0.00  0.00    +0.000 A 
ATOM     13  C   UNL     1       0.140  10.558  21.888  0.00  0.00    +0.000 C 
ATOM     14  N   UNL     1       0.447  10.147  20.494  0.00  0.00    +0.000 N 
ATOM     15  C   UNL     1       1.248   9.180  20.001  0.00  0.00    +0.000 A 
ATOM     16  N   UNL     1       1.713   9.310  18.744  0.00  0.00    +0.000 NA
ATOM     17  C   UNL     1       2.330   8.252  18.166  0.00  0.00    +0.000 A 
ATOM     18  C   UNL     1       2.497   7.025  18.775  0.00  0.00    +0.000 A 
ATOM     19  C   UNL     1       2.062   7.030  20.088  0.00  0.00    +0.000 A 
ATOM     20  N   UNL     1       1.470   8.078  20.721  0.00  0.00    +0.000 NA
ATOM     21  H   UNL     1       1.049  13.625  19.181  0.00  0.00    +0.000 HD
ENDROOT
BRANCH  18  22
ATOM     22  C   UNL     1       3.029   5.837  18.090  0.00  0.00    +0.000 A 
ATOM     23  C   UNL     1       2.255   4.692  17.852  0.00  0.00    +0.000 A 
ATOM     24  C   UNL     1       2.808   3.586  17.198  0.00  0.00    +0.000 A 
ATOM     25  C   UNL     1       4.134   3.643  16.804  0.00  0.00    +0.000 A 
ATOM     26  N   UNL     1       4.931   4.699  17.023  0.00  0.00    +0.000 NA
ATOM     27  C   UNL     1       4.363   5.765  17.668  0.00  0.00    +0.000 A 
ENDBRANCH  18  22
BRANCH   1  31
ATOM     28  C   UNL     1      -3.030  10.851  16.997  0.00  0.00    +0.000 A 
ATOM     29  C   UNL     1      -2.316   9.682  16.860  0.00  0.00    +0.000 A 
ATOM     30  C   UNL     1      -1.099   9.706  17.601  0.00  0.00    +0.000 A 
ATOM     31  C   UNL     1      -0.953  10.875  18.330  0.00  0.00    +0.000 A 
ATOM     32  S   UNL     1      -2.157  12.022  17.879  0.00  0.00    +0.000 S 
BRANCH  28  34
ATOM     33  C   UNL     1      -5.178  11.961  17.504  0.00  0.00    +0.000 C 
ATOM     34  C   UNL     1      -4.386  11.188  16.466  0.00  0.00    +0.000 C 
ENDBRANCH  28  34
ENDBRANCH   1  31
TORSDOF 3
ENDMDL
MODEL 3
REMARK VINA RESULT:      -8.2      1.645      2.147
REMARK  Name = 
REMARK  4 active torsions:
REMARK  status: ('A' for Active; 'I' for Inactive)
REMARK    1  A    between atoms: C_1  and  C_2
REMARK    2  A    between atoms: C_2  and  C_3
REMARK    3  A    between atoms: C_6  and  C_7
REMARK    4  A    between atoms: C_24  and  C_25
REMARK                            x       y       z     vdW  Elec       q    Type
REMARK                         _______ _______ _______ _____ _____    ______ ____
ROOT
ATOM      1  C   UNL     1      -0.067  11.139  19.207  0.00  0.00    +0.000 C 
ATOM      2  C   UNL     1       0.393  12.525  19.566  0.00  0.00    +0.000 A 
ATOM      3  N   UNL     1       0.587  13.630  18.774  0.00  0.00    +0.000 N 
ATOM      4  C   UNL     1       0.925  14.837  19.431  0.00  0.00    +0.000 A 
ATOM      5  C   UNL     1       1.480  15.919  18.749  0.00  0.00    +0.000 A 
ATOM      6  C   UNL     1       1.554  17.168  19.371  0.00  0.00    +0.000 A 
ATOM      7  C   UNL     1       0.993  17.360  20.638  0.00  0.00    +0.000 A 
ATOM      8  C   UNL     1       0.495  16.270  21.355  0.00  0.00    +0.000 A 
ATOM      9  C   UNL     1       0.556  14.999  20.783  0.00  0.00    +0.000 A 
ATOM     10  C   UNL     1       0.361  13.755  21.597  0.00  0.00    +0.000 A 
ATOM     11  O   UNL     1      -0.002  13.784  22.765  0.00  0.00    +0.000 OA
ATOM     12  C   UNL     1       0.607  12.488  20.891  0.00  0.00    +0.000 A 
ATOM     13  C   UNL     1       0.889  11.067  21.346  0.00  0.00    +0.000 C 
ATOM     14  N   UNL     1       0.812  10.358  20.042  0.00  0.00    +0.000 N 
ATOM     15  C   UNL     1       1.447   9.260  19.582  0.00  0.00    +0.000 A 
ATOM     16  N   UNL     1       1.562   9.097  18.249  0.00  0.00    +0.000 NA
ATOM     17  C   UNL     1       1.996   7.905  17.776  0.00  0.00    +0.000 A 
ATOM     18  C   UNL     1       2.309   6.823  18.571  0.00  0.00    +0.000 A 
ATOM     19  C   UNL     1       2.238   7.127  19.919  0.00  0.00    +0.000 A 
ATOM     20  N   UNL     1       1.844   8.319  20.441  0.00  0.00    +0.000 NA
ATOM     21  H   UNL     1       1.070  13.443  17.899  0.00  0.00    +0.000 HD
ENDROOT
BRANCH  18  22
ATOM     22  C   UNL     1       2.631   5.487  18.046  0.00  0.00    +0.000 A 
ATOM     23  C   UNL     1       3.926   5.121  17.653  0.00  0.00    +0.000 A 
ATOM     24  C   UNL     1       4.181   3.837  17.158  0.00  0.00    +0.000 A 
ATOM     25  C   UNL     1       3.128   2.945  17.056  0.00  0.00    +0.000 A 
ATOM     26  N   UNL     1       1.865   3.242  17.394  0.00  0.00    +0.000 NA
ATOM     27  C   UNL     1       1.646   4.507  17.872  0.00  0.00    +0.000 A 
ENDBRANCH  18  22
BRANCH   1  31
ATOM     28  C   UNL     1      -3.342  10.957  17.192  0.00  0.00    +0.000 A 
ATOM     29  C   UNL     1      -3.090   9.658  17.573  0.00  0.00    +0.000 A 
ATOM     30  C   UNL     1      -1.786   9.506  18.130  0.00  0.00    +0.000 A 
ATOM     31  C   UNL     1      -1.107  10.712  18.208  0.00  0.00    +0.000 A 
ATOM     32  S   UNL     1      -1.958  11.942  17.354  0.00  0.00    +0.000 S 
BRANCH  28  34
ATOM     33  C   UNL     1      -5.505  11.982  17.804  0.00  0.00    +0.000 C 
ATOM     34  C   UNL     1      -4.608  11.546  16.660  0.00  0.00    +0.000 C 
ENDBRANCH  28  34
ENDBRANCH   1  31
TORSDOF 3
ENDMDL
MODEL 4
REMARK VINA RESULT:      -8.0      3.759      6.450
REMARK  Name = 
REMARK  4 active torsions:
REMARK  status: ('A' for Active; 'I' for Inactive)
REMARK    1  A    between atoms: C_1  and  C_2
REMARK    2  A    between atoms: C_2  and  C_3
REMARK    3  A    between atoms: C_6  and  C_7
REMARK    4  A    between atoms: C_24  and  C_25
REMARK                            x       y       z     vdW  Elec       q    Type
REMARK                         _______ _______ _______ _____ _____    ______ ____
ROOT
ATOM      1  C   UNL     1      -1.551  12.192  21.236  0.00  0.00    +0.000 C 
ATOM      2  C   UNL     1      -2.931  12.669  21.595  0.00  0.00    +0.000 A 
ATOM      3  N   UNL     1      -4.065  12.766  20.828  0.00  0.00    +0.000 N 
ATOM      4  C   UNL     1      -5.254  13.157  21.489  0.00  0.00    +0.000 A 
ATOM      5  C   UNL     1      -6.367  13.625  20.793  0.00  0.00    +0.000 A 
ATOM      6  C   UNL     1      -7.596  13.747  21.449  0.00  0.00    +0.000 A 
ATOM      7  C   UNL     1      -7.735  13.318  22.772  0.00  0.00    +0.000 A 
ATOM      8  C   UNL     1      -6.614  12.910  23.497  0.00  0.00    +0.000 A 
ATOM      9  C   UNL     1      -5.364  12.927  22.877  0.00  0.00    +0.000 A 
ATOM     10  C   UNL     1      -4.090  12.832  23.662  0.00  0.00    +0.000 A 
ATOM     11  O   UNL     1      -4.073  12.592  24.862  0.00  0.00    +0.000 OA
ATOM     12  C   UNL     1      -2.852  13.019  22.889  0.00  0.00    +0.000 A 
ATOM     13  C   UNL     1      -1.420  13.364  23.261  0.00  0.00    +0.000 C 
ATOM     14  N   UNL     1      -0.755  13.161  21.948  0.00  0.00    +0.000 N 
ATOM     15  C   UNL     1       0.315  13.758  21.386  0.00  0.00    +0.000 A 
ATOM     16  N   UNL     1       0.431  13.737  20.044  0.00  0.00    +0.000 NA
ATOM     17  C   UNL     1       1.599  14.134  19.485  0.00  0.00    +0.000 A 
ATOM     18  C   UNL     1       2.703  14.541  20.205  0.00  0.00    +0.000 A 
ATOM     19  C   UNL     1       2.447  14.606  21.563  0.00  0.00    +0.000 A 
ATOM     20  N   UNL     1       1.280  14.253  22.165  0.00  0.00    +0.000 NA
ATOM     21  H   UNL     1      -3.916  13.159  19.901  0.00  0.00    +0.000 HD
ENDROOT
BRANCH  18  22
ATOM     22  C   UNL     1       4.014  14.824  19.603  0.00  0.00    +0.000 A 
ATOM     23  C   UNL     1       4.304  14.551  18.258  0.00  0.00    +0.000 A 
ATOM     24  C   UNL     1       5.569  14.836  17.732  0.00  0.00    +0.000 A 
ATOM     25  C   UNL     1       6.527  15.380  18.570  0.00  0.00    +0.000 A 
ATOM     26  N   UNL     1       6.319  15.643  19.868  0.00  0.00    +0.000 NA
ATOM     27  C   UNL     1       5.073  15.350  20.355  0.00  0.00    +0.000 A 
ENDBRANCH  18  22
BRANCH   1  31
ATOM     28  C   UNL     1       0.599   9.617  19.347  0.00  0.00    +0.000 A 
ATOM     29  C   UNL     1      -0.224  10.162  18.387  0.00  0.00    +0.000 A 
ATOM     30  C   UNL     1      -1.252  10.968  18.957  0.00  0.00    +0.000 A 
ATOM     31  C   UNL     1      -1.142  11.059  20.335  0.00  0.00    +0.000 A 
ATOM     32  S   UNL     1       0.033   9.945  20.923  0.00  0.00    +0.000 S 
BRANCH  28  34
ATOM     33  C   UNL     1       2.112   8.590  17.686  0.00  0.00    +0.000 C 
ATOM     34  C   UNL     1       1.838   8.800  19.164  0.00  0.00    +0.000 C 
ENDBRANCH  28  34
ENDBRANCH   1  31
TORSDOF 3
ENDMDL
MODEL 5
REMARK VINA RESULT:      -7.9      2.198      3.308
REMARK  Name = 
REMARK  4 active torsions:
REMARK  status: ('A' for Active; 'I' for Inactive)
REMARK    1  A    between atoms: C_1  and  C_2
REMARK    2  A    between atoms: C_2  and  C_3
REMARK    3  A    between atoms: C_6  and  C_7
REMARK    4  A    between atoms: C_24  and  C_25
REMARK                            x       y       z     vdW  Elec       q    Type
REMARK                         _______ _______ _______ _____ _____    ______ ____
ROOT
ATOM      1  C   UNL     1      -1.197  12.172  19.850  0.00  0.00    +0.000 C 
ATOM      2  C   UNL     1      -0.887  13.643  19.884  0.00  0.00    +0.000 A 
ATOM      3  N   UNL     1      -0.752  14.546  18.858  0.00  0.00    +0.000 N 
ATOM      4  C   UNL     1      -0.563  15.902  19.219  0.00  0.00    +0.000 A 
ATOM      5  C   UNL     1      -0.072  16.845  18.318  0.00  0.00    +0.000 A 
ATOM      6  C   UNL     1      -0.149  18.206  18.627  0.00  0.00    +0.000 A 
ATOM      7  C   UNL     1      -0.796  18.630  19.791  0.00  0.00    +0.000 A 
ATOM      8  C   UNL     1      -1.231  17.693  20.731  0.00  0.00    +0.000 A 
ATOM      9  C   UNL     1      -1.021  16.337  20.481  0.00  0.00    +0.000 A 
ATOM     10  C   UNL     1      -1.147  15.304  21.561  0.00  0.00    +0.000 A 
ATOM     11  O   UNL     1      -1.576  15.569  22.676  0.00  0.00    +0.000 OA
ATOM     12  C   UNL     1      -0.746  13.939  21.186  0.00  0.00    +0.000 A 
ATOM     13  C   UNL     1      -0.361  12.701  21.975  0.00  0.00    +0.000 C 
ATOM     14  N   UNL     1      -0.299  11.703  20.877  0.00  0.00    +0.000 N 
ATOM     15  C   UNL     1       0.459  10.599  20.712  0.00  0.00    +0.000 A 
ATOM     16  N   UNL     1       0.664  10.141  19.462  0.00  0.00    +0.000 NA
ATOM     17  C   UNL     1       1.232   8.922  19.301  0.00  0.00    +0.000 A 
ATOM     18  C   UNL     1       1.598   8.094  20.341  0.00  0.00    +0.000 A 
ATOM     19  C   UNL     1       1.423   8.696  21.575  0.00  0.00    +0.000 A 
ATOM     20  N   UNL     1       0.892   9.930  21.784  0.00  0.00    +0.000 NA
ATOM     21  H   UNL     1      -0.205  14.210  18.069  0.00  0.00    +0.000 HD
ENDROOT
BRANCH  18  22
ATOM     22  C   UNL     1       2.070   6.713  20.161  0.00  0.00    +0.000 A 
ATOM     23  C   UNL     1       1.554   5.636  20.895  0.00  0.00    +0.000 A 
ATOM     24  C   UNL     1       2.039   4.340  20.689  0.00  0.00    +0.000 A 
ATOM     25  C   UNL     1       3.043   4.148  19.755  0.00  0.00    +0.000 A 
ATOM     26  N   UNL     1       3.592   5.140  19.038  0.00  0.00    +0.000 NA
ATOM     27  C   UNL     1       3.100   6.397  19.265  0.00  0.00    +0.000 A 
ENDBRANCH  18  22
BRANCH   1  31
ATOM     28  C   UNL     1      -3.243  11.119  16.764  0.00  0.00    +0.000 A 
ATOM     29  C   UNL     1      -4.146  11.118  17.804  0.00  0.00    +0.000 A 
ATOM     30  C   UNL     1      -3.506  11.256  19.070  0.00  0.00    +0.000 A 
ATOM     31  C   UNL     1      -2.135  11.419  18.949  0.00  0.00    +0.000 A 
ATOM     32  S   UNL     1      -1.633  11.121  17.328  0.00  0.00    +0.000 S 
BRANCH  28  34
ATOM     33  C   UNL     1      -2.862   9.869  14.667  0.00  0.00    +0.000 C 
ATOM     34  C   UNL     1      -3.509  11.091  15.293  0.00  0.00    +0.000 C 
ENDBRANCH  28  34
ENDBRANCH   1  31
TORSDOF 3
ENDMDL
MODEL 6
REMARK VINA RESULT:      -7.9      4.084      6.013
REMARK  Name = 
REMARK  4 active torsions:
REMARK  status: ('A' for Active; 'I' for Inactive)
REMARK    1  A    between atoms: C_1  and  C_2
REMARK    2  A    between atoms: C_2  and  C_3
REMARK    3  A    between atoms: C_6  and  C_7
REMARK    4  A    between atoms: C_24  and  C_25
REMARK                            x       y       z     vdW  Elec       q    Type
REMARK                         _______ _______ _______ _____ _____    ______ ____
ROOT
ATOM      1  C   UNL     1      -1.216  12.524  20.327  0.00  0.00    +0.000 C 
ATOM      2  C   UNL     1      -2.536  13.002  20.864  0.00  0.00    +0.000 A 
ATOM      3  N   UNL     1      -3.651  13.459  20.204  0.00  0.00    +0.000 N 
ATOM      4  C   UNL     1      -4.793  13.737  20.993  0.00  0.00    +0.000 A 
ATOM      5  C   UNL     1      -5.845  14.519  20.519  0.00  0.00    +0.000 A 
ATOM      6  C   UNL     1      -7.056  14.550  21.218  0.00  0.00    +0.000 A 
ATOM      7  C   UNL     1      -7.246  13.734  22.337  0.00  0.00    +0.000 A 
ATOM      8  C   UNL     1      -6.179  13.000  22.857  0.00  0.00    +0.000 A 
ATOM      9  C   UNL     1      -4.932  13.085  22.236  0.00  0.00    +0.000 A 
ATOM     10  C   UNL     1      -3.679  12.610  22.909  0.00  0.00    +0.000 A 
ATOM     11  O   UNL     1      -3.693  11.995  23.967  0.00  0.00    +0.000 OA
ATOM     12  C   UNL     1      -2.425  12.906  22.198  0.00  0.00    +0.000 A 
ATOM     13  C   UNL     1      -0.966  12.961  22.617  0.00  0.00    +0.000 C 
ATOM     14  N   UNL     1      -0.322  13.124  21.288  0.00  0.00    +0.000 N 
ATOM     15  C   UNL     1       0.810  13.755  20.913  0.00  0.00    +0.000 A 
ATOM     16  N   UNL     1       0.927  14.156  19.632  0.00  0.00    +0.000 NA
ATOM     17  C   UNL     1       2.134  14.588  19.195  0.00  0.00    +0.000 A 
ATOM     18  C   UNL     1       3.273  14.624  19.971  0.00  0.00    +0.000 A 
ATOM     19  C   UNL     1       3.020  14.273  21.286  0.00  0.00    +0.000 A 
ATOM     20  N   UNL     1       1.819  13.869  21.780  0.00  0.00    +0.000 NA
ATOM     21  H   UNL     1      -3.456  14.111  19.449  0.00  0.00    +0.000 HD
ENDROOT
BRANCH  18  22
ATOM     22  C   UNL     1       4.610  14.946  19.451  0.00  0.00    +0.000 A 
ATOM     23  C   UNL     1       5.011  14.625  18.146  0.00  0.00    +0.000 A 
ATOM     24  C   UNL     1       6.296  14.952  17.698  0.00  0.00    +0.000 A 
ATOM     25  C   UNL     1       7.161  15.587  18.573  0.00  0.00    +0.000 A 
ATOM     26  N   UNL     1       6.845  15.900  19.838  0.00  0.00    +0.000 NA
ATOM     27  C   UNL     1       5.582  15.564  20.248  0.00  0.00    +0.000 A 
ENDBRANCH  18  22
BRANCH   1  31
ATOM     28  C   UNL     1      -1.691  10.254  17.255  0.00  0.00    +0.000 A 
ATOM     29  C   UNL     1      -0.632   9.702  17.941  0.00  0.00    +0.000 A 
ATOM     30  C   UNL     1      -0.167  10.555  18.985  0.00  0.00    +0.000 A 
ATOM     31  C   UNL     1      -0.929  11.707  19.098  0.00  0.00    +0.000 A 
ATOM     32  S   UNL     1      -2.008  11.851  17.763  0.00  0.00    +0.000 S 
BRANCH  28  34
ATOM     33  C   UNL     1      -3.043  10.733  15.243  0.00  0.00    +0.000 C 
ATOM     34  C   UNL     1      -2.516   9.649  16.166  0.00  0.00    +0.000 C 
ENDBRANCH  28  34
ENDBRANCH   1  31
TORSDOF 3
ENDMDL
MODEL 7
REMARK VINA RESULT:      -7.9      1.648      2.172
REMARK  Name = 
REMARK  4 active torsions:
REMARK  status: ('A' for Active; 'I' for Inactive)
REMARK    1  A    between atoms: C_1  and  C_2
REMARK    2  A    between atoms: C_2  and  C_3
REMARK    3  A    between atoms: C_6  and  C_7
REMARK    4  A    between atoms: C_24  and  C_25
REMARK                            x       y       z     vdW  Elec       q    Type
REMARK                         _______ _______ _______ _____ _____    ______ ____
ROOT
ATOM      1  C   UNL     1      -0.847  10.959  19.293  0.00  0.00    +0.000 C 
ATOM      2  C   UNL     1      -0.651  12.416  19.610  0.00  0.00    +0.000 A 
ATOM      3  N   UNL     1      -0.702  13.517  18.791  0.00  0.00    +0.000 N 
ATOM      4  C   UNL     1      -0.580  14.783  19.413  0.00  0.00    +0.000 A 
ATOM      5  C   UNL     1      -0.268  15.934  18.691  0.00  0.00    +0.000 A 
ATOM      6  C   UNL     1      -0.416  17.189  19.287  0.00  0.00    +0.000 A 
ATOM      7  C   UNL     1      -0.959  17.301  20.571  0.00  0.00    +0.000 A 
ATOM      8  C   UNL     1      -1.212  16.155  21.326  0.00  0.00    +0.000 A 
ATOM      9  C   UNL     1      -0.927  14.905  20.775  0.00  0.00    +0.000 A 
ATOM     10  C   UNL     1      -0.850  13.667  21.619  0.00  0.00    +0.000 A 
ATOM     11  O   UNL     1      -1.171  13.655  22.799  0.00  0.00    +0.000 OA
ATOM     12  C   UNL     1      -0.389  12.454  20.926  0.00  0.00    +0.000 A 
ATOM     13  C   UNL     1       0.178  11.125  21.395  0.00  0.00    +0.000 C 
ATOM     14  N   UNL     1       0.194  10.382  20.109  0.00  0.00    +0.000 N 
ATOM     15  C   UNL     1       1.013   9.416  19.643  0.00  0.00    +0.000 A 
ATOM     16  N   UNL     1       1.111   9.245  18.311  0.00  0.00    +0.000 NA
ATOM     17  C   UNL     1       1.750   8.147  17.842  0.00  0.00    +0.000 A 
ATOM     18  C   UNL     1       2.294   7.165  18.644  0.00  0.00    +0.000 A 
ATOM     19  C   UNL     1       2.212   7.483  19.988  0.00  0.00    +0.000 A 
ATOM     20  N   UNL     1       1.613   8.590  20.504  0.00  0.00    +0.000 NA
ATOM     21  H   UNL     1      -0.222  13.405  17.901  0.00  0.00    +0.000 HD
ENDROOT
BRANCH  18  22
ATOM     22  C   UNL     1       2.849   5.903  18.132  0.00  0.00    +0.000 A 
ATOM     23  C   UNL     1       2.054   4.780  17.864  0.00  0.00    +0.000 A 
ATOM     24  C   UNL     1       2.630   3.601  17.379  0.00  0.00    +0.000 A 
ATOM     25  C   UNL     1       4.000   3.566  17.181  0.00  0.00    +0.000 A 
ATOM     26  N   UNL     1       4.816   4.598  17.440  0.00  0.00    +0.000 NA
ATOM     27  C   UNL     1       4.224   5.737  17.916  0.00  0.00    +0.000 A 
ENDBRANCH  18  22
BRANCH   1  31
ATOM     28  C   UNL     1      -3.363  10.453  16.425  0.00  0.00    +0.000 A 
ATOM     29  C   UNL     1      -3.956   9.869  17.521  0.00  0.00    +0.000 A 
ATOM     30  C   UNL     1      -3.056   9.756  18.621  0.00  0.00    +0.000 A 
ATOM     31  C   UNL     1      -1.819  10.315  18.344  0.00  0.00    +0.000 A 
ATOM     32  S   UNL     1      -1.695  10.709  16.672  0.00  0.00    +0.000 S 
BRANCH  28  34
ATOM     33  C   UNL     1      -3.304  10.091  13.981  0.00  0.00    +0.000 C 
ATOM     34  C   UNL     1      -3.982  10.833  15.118  0.00  0.00    +0.000 C 
ENDBRANCH  28  34
ENDBRANCH   1  31
TORSDOF 3
ENDMDL
MODEL 8
REMARK VINA RESULT:      -7.8      1.747      2.639
REMARK  Name = 
REMARK  4 active torsions:
REMARK  status: ('A' for Active; 'I' for Inactive)
REMARK    1  A    between atoms: C_1  and  C_2
REMARK    2  A    between atoms: C_2  and  C_3
REMARK    3  A    between atoms: C_6  and  C_7
REMARK    4  A    between atoms: C_24  and  C_25
REMARK                            x       y       z     vdW  Elec       q    Type
REMARK                         _______ _______ _______ _____ _____    ______ ____
ROOT
ATOM      1  C   UNL     1      -1.629  12.396  21.009  0.00  0.00    +0.000 C 
ATOM      2  C   UNL     1      -1.633  13.517  22.011  0.00  0.00    +0.000 A 
ATOM      3  N   UNL     1      -1.262  14.832  21.875  0.00  0.00    +0.000 N 
ATOM      4  C   UNL     1      -1.485  15.679  22.987  0.00  0.00    +0.000 A 
ATOM      5  C   UNL     1      -0.853  16.915  23.113  0.00  0.00    +0.000 A 
ATOM      6  C   UNL     1      -1.295  17.826  24.078  0.00  0.00    +0.000 A 
ATOM      7  C   UNL     1      -2.422  17.540  24.854  0.00  0.00    +0.000 A 
ATOM      8  C   UNL     1      -3.021  16.281  24.781  0.00  0.00    +0.000 A 
ATOM      9  C   UNL     1      -2.485  15.325  23.917  0.00  0.00    +0.000 A 
ATOM     10  C   UNL     1      -2.846  13.873  24.022  0.00  0.00    +0.000 A 
ATOM     11  O   UNL     1      -3.729  13.467  24.765  0.00  0.00    +0.000 OA
ATOM     12  C   UNL     1      -2.086  12.965  23.148  0.00  0.00    +0.000 A 
ATOM     13  C   UNL     1      -1.834  11.468  23.151  0.00  0.00    +0.000 C 
ATOM     14  N   UNL     1      -1.153  11.317  21.840  0.00  0.00    +0.000 N 
ATOM     15  C   UNL     1      -0.206  10.455  21.417  0.00  0.00    +0.000 A 
ATOM     16  N   UNL     1       0.566  10.811  20.372  0.00  0.00    +0.000 NA
ATOM     17  C   UNL     1       1.362   9.874  19.803  0.00  0.00    +0.000 A 
ATOM     18  C   UNL     1       1.421   8.557  20.209  0.00  0.00    +0.000 A 
ATOM     19  C   UNL     1       0.656   8.323  21.338  0.00  0.00    +0.000 A 
ATOM     20  N   UNL     1      -0.129   9.239  21.965  0.00  0.00    +0.000 NA
ATOM     21  H   UNL     1      -0.392  14.975  21.368  0.00  0.00    +0.000 HD
ENDROOT
BRANCH  18  22
ATOM     22  C   UNL     1       2.169   7.513  19.493  0.00  0.00    +0.000 A 
ATOM     23  C   UNL     1       2.801   7.743  18.262  0.00  0.00    +0.000 A 
ATOM     24  C   UNL     1       3.499   6.715  17.619  0.00  0.00    +0.000 A 
ATOM     25  C   UNL     1       3.542   5.468  18.218  0.00  0.00    +0.000 A 
ATOM     26  N   UNL     1       2.939   5.179  19.381  0.00  0.00    +0.000 NA
ATOM     27  C   UNL     1       2.261   6.204  19.984  0.00  0.00    +0.000 A 
ENDBRANCH  18  22
BRANCH   1  31
ATOM     28  C   UNL     1      -2.857  11.340  17.517  0.00  0.00    +0.000 A 
ATOM     29  C   UNL     1      -1.615  11.894  17.302  0.00  0.00    +0.000 A 
ATOM     30  C   UNL     1      -1.114  12.554  18.462  0.00  0.00    +0.000 A 
ATOM     31  C   UNL     1      -1.969  12.430  19.545  0.00  0.00    +0.000 A 
ATOM     32  S   UNL     1      -3.476  11.757  19.051  0.00  0.00    +0.000 S 
BRANCH  28  34
ATOM     33  C   UNL     1      -3.038  10.447  15.220  0.00  0.00    +0.000 C 
ATOM     34  C   UNL     1      -3.675  10.492  16.597  0.00  0.00    +0.000 C 
ENDBRANCH  28  34
ENDBRANCH   1  31
TORSDOF 3
ENDMDL
MODEL 9
REMARK VINA RESULT:      -7.8      1.335      1.467
REMARK  Name = 
REMARK  4 active torsions:
REMARK  status: ('A' for Active; 'I' for Inactive)
REMARK    1  A    between atoms: C_1  and  C_2
REMARK    2  A    between atoms: C_2  and  C_3
REMARK    3  A    between atoms: C_6  and  C_7
REMARK    4  A    between atoms: C_24  and  C_25
REMARK                            x       y       z     vdW  Elec       q    Type
REMARK                         _______ _______ _______ _____ _____    ______ ____
ROOT
ATOM      1  C   UNL     1      -1.173  10.683  19.527  0.00  0.00    +0.000 C 
ATOM      2  C   UNL     1      -1.210  12.050  20.152  0.00  0.00    +0.000 A 
ATOM      3  N   UNL     1      -1.332  13.289  19.573  0.00  0.00    +0.000 N 
ATOM      4  C   UNL     1      -1.446  14.396  20.447  0.00  0.00    +0.000 A 
ATOM      5  C   UNL     1      -1.226  15.704  20.017  0.00  0.00    +0.000 A 
ATOM      6  C   UNL     1      -1.603  16.776  20.831  0.00  0.00    +0.000 A 
ATOM      7  C   UNL     1      -2.279  16.546  22.033  0.00  0.00    +0.000 A 
ATOM      8  C   UNL     1      -2.445  15.242  22.504  0.00  0.00    +0.000 A 
ATOM      9  C   UNL     1      -1.938  14.181  21.752  0.00  0.00    +0.000 A 
ATOM     10  C   UNL     1      -1.775  12.808  22.332  0.00  0.00    +0.000 A 
ATOM     11  O   UNL     1      -2.205  12.505  23.436  0.00  0.00    +0.000 OA
ATOM     12  C   UNL     1      -1.086  11.833  21.471  0.00  0.00    +0.000 A 
ATOM     13  C   UNL     1      -0.391  10.507  21.730  0.00  0.00    +0.000 C 
ATOM     14  N   UNL     1      -0.147  10.066  20.332  0.00  0.00    +0.000 N 
ATOM     15  C   UNL     1       0.838   9.323  19.787  0.00  0.00    +0.000 A 
ATOM     16  N   UNL     1       1.089   9.456  18.470  0.00  0.00    +0.000 NA
ATOM     17  C   UNL     1       1.915   8.564  17.873  0.00  0.00    +0.000 A 
ATOM     18  C   UNL     1       2.508   7.501  18.522  0.00  0.00    +0.000 A 
ATOM     19  C   UNL     1       2.252   7.510  19.882  0.00  0.00    +0.000 A 
ATOM     20  N   UNL     1       1.459   8.405  20.531  0.00  0.00    +0.000 NA
ATOM     21  H   UNL     1      -0.757  13.427  18.745  0.00  0.00    +0.000 HD
ENDROOT
BRANCH  18  22
ATOM     22  C   UNL     1       3.279   6.452  17.839  0.00  0.00    +0.000 A 
ATOM     23  C   UNL     1       4.407   6.731  17.055  0.00  0.00    +0.000 A 
ATOM     24  C   UNL     1       5.106   5.696  16.423  0.00  0.00    +0.000 A 
ATOM     25  C   UNL     1       4.653   4.398  16.580  0.00  0.00    +0.000 A 
ATOM     26  N   UNL     1       3.568   4.069  17.298  0.00  0.00    +0.000 NA
ATOM     27  C   UNL     1       2.903   5.103  17.901  0.00  0.00    +0.000 A 
ENDBRANCH  18  22
BRANCH   1  31
ATOM     28  C   UNL     1      -3.255  10.524  16.293  0.00  0.00    +0.000 A 
ATOM     29  C   UNL     1      -3.913   9.699  17.177  0.00  0.00    +0.000 A 
ATOM     30  C   UNL     1      -3.146   9.454  18.354  0.00  0.00    +0.000 A 
ATOM     31  C   UNL     1      -1.950  10.153  18.354  0.00  0.00    +0.000 A 
ATOM     32  S   UNL     1      -1.665  10.863  16.810  0.00  0.00    +0.000 S 
BRANCH  28  34
ATOM     33  C   UNL     1      -3.927   9.987  13.977  0.00  0.00    +0.000 C 
ATOM     34  C   UNL     1      -3.747  11.093  15.001  0.00  0.00    +0.000 C 
ENDBRANCH  28  34
ENDBRANCH   1  31
TORSDOF 3
ENDMDL
