MODEL 1
REMARK VINA RESULT:      -9.7      0.000      0.000
REMARK  Name = 
REMARK  11 active torsions:
REMARK  status: ('A' for Active; 'I' for Inactive)
REMARK    1  A    between atoms: C_1  and  C_2
REMARK    2  A    between atoms: C_2  and  C_3
REMARK    3  A    between atoms: C_4  and  C_5
REMARK    4  A    between atoms: C_5  and  C_6
REMARK    5  A    between atoms: C_8  and  C_9
REMARK    6  A    between atoms: N_11  and  C_12
REMARK    7  A    between atoms: C_17  and  C_18
REMARK    8  A    between atoms: C_18  and  C_19
REMARK    9  A    between atoms: C_22  and  O_23
REMARK   10  A    between atoms: C_26  and  C_27
REMARK   11  A    between atoms: C_34  and  O_35
REMARK                            x       y       z     vdW  Elec       q    Type
REMARK                         _______ _______ _______ _____ _____    ______ ____
ROOT
ATOM      1  C   UNL     1       0.865   9.291  20.045  0.00  0.00    +0.000 A 
ATOM      2  C   UNL     1       0.003   9.957  19.261  0.00  0.00    +0.000 A 
ATOM      3  C   UNL     1      -0.820  11.017  19.784  0.00  0.00    +0.000 A 
ATOM      4  C   UNL     1      -1.743  11.663  18.969  0.00  0.00    +0.000 A 
ATOM      5  C   UNL     1      -2.555  12.659  19.504  0.00  0.00    +0.000 A 
ATOM      6  C   UNL     1      -2.432  13.057  20.852  0.00  0.00    +0.000 A 
ATOM      7  C   UNL     1      -1.455  12.443  21.667  0.00  0.00    +0.000 A 
ATOM      8  C   UNL     1      -1.176  12.854  23.086  0.00  0.00    +0.000 C 
ATOM      9  C   UNL     1      -0.688  11.403  21.113  0.00  0.00    +0.000 A 
ATOM     10  O   UNL     1       0.229  10.719  21.947  0.00  0.00    +0.000 OA
ATOM     11  C   UNL     1       0.969   9.634  21.494  0.00  0.00    +0.000 A 
ATOM     12  O   UNL     1       1.706   8.984  22.235  0.00  0.00    +0.000 OA
ENDROOT
BRANCH   1  15
ATOM     13  C   UNL     1       2.228   8.190  18.322  0.00  0.00    +0.000 C 
ATOM     14  O   UNL     1       2.133   9.078  17.477  0.00  0.00    +0.000 OA
ATOM     15  N   UNL     1       1.675   8.262  19.589  0.00  0.00    +0.000 N 
ATOM     16  H   UNL     1       1.952   7.600  20.307  0.00  0.00    +0.000 HD
BRANCH  13  19
ATOM     17  C   UNL     1       2.964   4.547  17.719  0.00  0.00    +0.000 A 
ATOM     18  C   UNL     1       2.354   5.749  18.101  0.00  0.00    +0.000 A 
ATOM     19  C   UNL     1       3.012   6.981  17.963  0.00  0.00    +0.000 A 
ATOM     20  C   UNL     1       4.317   7.009  17.464  0.00  0.00    +0.000 A 
ATOM     21  C   UNL     1       4.948   5.813  17.107  0.00  0.00    +0.000 A 
ATOM     22  C   UNL     1       4.271   4.597  17.234  0.00  0.00    +0.000 A 
BRANCH  22  23
ATOM     23  O   UNL     1       4.880   3.433  16.868  0.00  0.00    +0.000 OA
ATOM     24  H   UNL     1       5.582   3.226  17.505  0.00  0.00    +0.000 HD
ENDBRANCH  22  23
BRANCH  17  25
ATOM     25  C   UNL     1       2.188   3.258  17.839  0.00  0.00    +0.000 C 
BRANCH  25  29
ATOM     26  C   UNL     1       1.441   2.646  21.628  0.00  0.00    +0.000 C 
ATOM     27  C   UNL     1       2.210   2.744  20.339  0.00  0.00    +0.000 C 
ATOM     28  C   UNL     1       3.687   2.473  20.398  0.00  0.00    +0.000 C 
ATOM     29  C   UNL     1       1.571   3.074  19.198  0.00  0.00    +0.000 C 
ENDBRANCH  25  29
ENDBRANCH  17  25
ENDBRANCH  13  19
ENDBRANCH   1  15
BRANCH   6  30
ATOM     30  C   UNL     1      -3.352  14.164  21.336  0.00  0.00    +0.000 C 
BRANCH  30  31
ATOM     31  C   UNL     1      -4.602  13.650  22.015  0.00  0.00    +0.000 A 
ATOM     32  C   UNL     1      -4.776  13.803  23.400  0.00  0.00    +0.000 A 
ATOM     33  C   UNL     1      -5.886  13.255  24.043  0.00  0.00    +0.000 A 
ATOM     34  C   UNL     1      -6.834  12.566  23.297  0.00  0.00    +0.000 A 
ATOM     35  C   UNL     1      -6.706  12.445  21.920  0.00  0.00    +0.000 A 
ATOM     36  C   UNL     1      -5.593  12.990  21.278  0.00  0.00    +0.000 A 
BRANCH  34  37
ATOM     37  O   UNL     1      -7.915  11.984  23.890  0.00  0.00    +0.000 OA
ATOM     38  H   UNL     1      -8.558  11.761  23.197  0.00  0.00    +0.000 HD
ENDBRANCH  34  37
ENDBRANCH  30  31
ENDBRANCH   6  30
TORSDOF 8
ENDMDL
MODEL 2
REMARK VINA RESULT:      -9.3      1.678      3.565
REMARK  Name = 
REMARK  11 active torsions:
REMARK  status: ('A' for Active; 'I' for Inactive)
REMARK    1  A    between atoms: C_1  and  C_2
REMARK    2  A    between atoms: C_2  and  C_3
REMARK    3  A    between atoms: C_4  and  C_5
REMARK    4  A    between atoms: C_5  and  C_6
REMARK    5  A    between atoms: C_8  and  C_9
REMARK    6  A    between atoms: N_11  and  C_12
REMARK    7  A    between atoms: C_17  and  C_18
REMARK    8  A    between atoms: C_18  and  C_19
REMARK    9  A    between atoms: C_22  and  O_23
REMARK   10  A    between atoms: C_26  and  C_27
REMARK   11  A    between atoms: C_34  and  O_35
REMARK                            x       y       z     vdW  Elec       q    Type
REMARK                         _______ _______ _______ _____ _____    ______ ____
ROOT
ATOM      1  C   UNL     1       1.266   8.114  20.663  0.00  0.00    +0.000 A 
ATOM      2  C   UNL     1       0.621   8.415  21.801  0.00  0.00    +0.000 A 
ATOM      3  C   UNL     1      -0.144   9.630  21.929  0.00  0.00    +0.000 A 
ATOM      4  C   UNL     1      -0.764   9.951  23.131  0.00  0.00    +0.000 A 
ATOM      5  C   UNL     1      -1.466  11.147  23.245  0.00  0.00    +0.000 A 
ATOM      6  C   UNL     1      -1.597  12.026  22.149  0.00  0.00    +0.000 A 
ATOM      7  C   UNL     1      -1.016  11.675  20.910  0.00  0.00    +0.000 A 
ATOM      8  C   UNL     1      -1.171  12.490  19.656  0.00  0.00    +0.000 C 
ATOM      9  C   UNL     1      -0.267  10.487  20.842  0.00  0.00    +0.000 A 
ATOM     10  O   UNL     1       0.396  10.172  19.631  0.00  0.00    +0.000 OA
ATOM     11  C   UNL     1       1.214   9.055  19.507  0.00  0.00    +0.000 A 
ATOM     12  O   UNL     1       1.856   8.821  18.484  0.00  0.00    +0.000 OA
ENDROOT
BRANCH   1  15
ATOM     13  C   UNL     1       1.504   5.674  20.488  0.00  0.00    +0.000 C 
ATOM     14  O   UNL     1       0.305   5.410  20.548  0.00  0.00    +0.000 OA
ATOM     15  N   UNL     1       2.017   6.960  20.493  0.00  0.00    +0.000 N 
ATOM     16  H   UNL     1       2.985   7.126  20.238  0.00  0.00    +0.000 HD
BRANCH  13  19
ATOM     17  C   UNL     1       4.506   3.728  19.315  0.00  0.00    +0.000 A 
ATOM     18  C   UNL     1       3.506   4.698  19.456  0.00  0.00    +0.000 A 
ATOM     19  C   UNL     1       2.452   4.537  20.370  0.00  0.00    +0.000 A 
ATOM     20  C   UNL     1       2.380   3.370  21.135  0.00  0.00    +0.000 A 
ATOM     21  C   UNL     1       3.357   2.380  20.981  0.00  0.00    +0.000 A 
ATOM     22  C   UNL     1       4.408   2.566  20.080  0.00  0.00    +0.000 A 
BRANCH  22  23
ATOM     23  O   UNL     1       5.371   1.609  19.945  0.00  0.00    +0.000 OA
ATOM     24  H   UNL     1       5.235   1.135  19.108  0.00  0.00    +0.000 HD
ENDBRANCH  22  23
BRANCH  17  25
ATOM     25  C   UNL     1       5.645   3.979  18.356  0.00  0.00    +0.000 C 
BRANCH  25  29
ATOM     26  C   UNL     1       5.160   6.640  15.533  0.00  0.00    +0.000 C 
ATOM     27  C   UNL     1       5.407   5.311  16.192  0.00  0.00    +0.000 C 
ATOM     28  C   UNL     1       5.583   4.120  15.293  0.00  0.00    +0.000 C 
ATOM     29  C   UNL     1       5.452   5.226  17.538  0.00  0.00    +0.000 C 
ENDBRANCH  25  29
ENDBRANCH  17  25
ENDBRANCH  13  19
ENDBRANCH   1  15
BRANCH   6  30
ATOM     30  C   UNL     1      -2.396  13.298  22.370  0.00  0.00    +0.000 C 
BRANCH  30  31
ATOM     31  C   UNL     1      -3.827  13.042  22.785  0.00  0.00    +0.000 A 
ATOM     32  C   UNL     1      -4.851  12.993  21.825  0.00  0.00    +0.000 A 
ATOM     33  C   UNL     1      -6.183  12.843  22.212  0.00  0.00    +0.000 A 
ATOM     34  C   UNL     1      -6.492  12.724  23.561  0.00  0.00    +0.000 A 
ATOM     35  C   UNL     1      -5.490  12.721  24.523  0.00  0.00    +0.000 A 
ATOM     36  C   UNL     1      -4.159  12.876  24.135  0.00  0.00    +0.000 A 
BRANCH  34  37
ATOM     37  O   UNL     1      -7.783  12.612  23.985  0.00  0.00    +0.000 OA
ATOM     38  H   UNL     1      -7.835  11.866  24.605  0.00  0.00    +0.000 HD
ENDBRANCH  34  37
ENDBRANCH  30  31
ENDBRANCH   6  30
TORSDOF 8
ENDMDL
MODEL 3
REMARK VINA RESULT:      -9.3      1.276      2.901
REMARK  Name = 
REMARK  11 active torsions:
REMARK  status: ('A' for Active; 'I' for Inactive)
REMARK    1  A    between atoms: C_1  and  C_2
REMARK    2  A    between atoms: C_2  and  C_3
REMARK    3  A    between atoms: C_4  and  C_5
REMARK    4  A    between atoms: C_5  and  C_6
REMARK    5  A    between atoms: C_8  and  C_9
REMARK    6  A    between atoms: N_11  and  C_12
REMARK    7  A    between atoms: C_17  and  C_18
REMARK    8  A    between atoms: C_18  and  C_19
REMARK    9  A    between atoms: C_22  and  O_23
REMARK   10  A    between atoms: C_26  and  C_27
REMARK   11  A    between atoms: C_34  and  O_35
REMARK                            x       y       z     vdW  Elec       q    Type
REMARK                         _______ _______ _______ _____ _____    ______ ____
ROOT
ATOM      1  C   UNL     1       0.760   9.304  20.319  0.00  0.00    +0.000 A 
ATOM      2  C   UNL     1      -0.167   9.876  19.536  0.00  0.00    +0.000 A 
ATOM      3  C   UNL     1      -0.935  11.009  19.989  0.00  0.00    +0.000 A 
ATOM      4  C   UNL     1      -1.927  11.558  19.184  0.00  0.00    +0.000 A 
ATOM      5  C   UNL     1      -2.682  12.627  19.656  0.00  0.00    +0.000 A 
ATOM      6  C   UNL     1      -2.434  13.195  20.923  0.00  0.00    +0.000 A 
ATOM      7  C   UNL     1      -1.388  12.676  21.720  0.00  0.00    +0.000 A 
ATOM      8  C   UNL     1      -0.977  13.263  23.042  0.00  0.00    +0.000 C 
ATOM      9  C   UNL     1      -0.679  11.562  21.239  0.00  0.00    +0.000 A 
ATOM     10  O   UNL     1       0.308  10.976  22.068  0.00  0.00    +0.000 OA
ATOM     11  C   UNL     1       0.999   9.830  21.695  0.00  0.00    +0.000 A 
ATOM     12  O   UNL     1       1.799   9.270  22.444  0.00  0.00    +0.000 OA
ENDROOT
BRANCH   1  15
ATOM     13  C   UNL     1       2.152   8.082  18.704  0.00  0.00    +0.000 C 
ATOM     14  O   UNL     1       2.182   8.962  17.846  0.00  0.00    +0.000 OA
ATOM     15  N   UNL     1       1.521   8.212  19.929  0.00  0.00    +0.000 N 
ATOM     16  H   UNL     1       1.699   7.542  20.671  0.00  0.00    +0.000 HD
BRANCH  13  19
ATOM     17  C   UNL     1       4.815   5.803  17.328  0.00  0.00    +0.000 A 
ATOM     18  C   UNL     1       4.014   6.917  17.608  0.00  0.00    +0.000 A 
ATOM     19  C   UNL     1       2.867   6.813  18.411  0.00  0.00    +0.000 A 
ATOM     20  C   UNL     1       2.495   5.565  18.916  0.00  0.00    +0.000 A 
ATOM     21  C   UNL     1       3.270   4.439  18.619  0.00  0.00    +0.000 A 
ATOM     22  C   UNL     1       4.418   4.565  17.834  0.00  0.00    +0.000 A 
BRANCH  22  23
ATOM     23  O   UNL     1       5.184   3.469  17.561  0.00  0.00    +0.000 OA
ATOM     24  H   UNL     1       4.630   2.788  17.146  0.00  0.00    +0.000 HD
ENDBRANCH  22  23
BRANCH  17  25
ATOM     25  C   UNL     1       6.067   5.984  16.505  0.00  0.00    +0.000 C 
BRANCH  25  29
ATOM     26  C   UNL     1       8.371   8.731  18.064  0.00  0.00    +0.000 C 
ATOM     27  C   UNL     1       7.668   7.414  17.887  0.00  0.00    +0.000 C 
ATOM     28  C   UNL     1       7.967   6.333  18.887  0.00  0.00    +0.000 C 
ATOM     29  C   UNL     1       6.817   7.240  16.854  0.00  0.00    +0.000 C 
ENDBRANCH  25  29
ENDBRANCH  17  25
ENDBRANCH  13  19
ENDBRANCH   1  15
BRANCH   6  30
ATOM     30  C   UNL     1      -3.301  14.370  21.341  0.00  0.00    +0.000 C 
BRANCH  30  31
ATOM     31  C   UNL     1      -4.547  13.957  22.092  0.00  0.00    +0.000 A 
ATOM     32  C   UNL     1      -4.507  13.752  23.481  0.00  0.00    +0.000 A 
ATOM     33  C   UNL     1      -5.632  13.289  24.164  0.00  0.00    +0.000 A 
ATOM     34  C   UNL     1      -6.805  13.046  23.460  0.00  0.00    +0.000 A 
ATOM     35  C   UNL     1      -6.879  13.289  22.095  0.00  0.00    +0.000 A 
ATOM     36  C   UNL     1      -5.753  13.748  21.412  0.00  0.00    +0.000 A 
BRANCH  34  37
ATOM     37  O   UNL     1      -7.916  12.559  24.082  0.00  0.00    +0.000 OA
ATOM     38  H   UNL     1      -8.619  12.464  23.418  0.00  0.00    +0.000 HD
ENDBRANCH  34  37
ENDBRANCH  30  31
ENDBRANCH   6  30
TORSDOF 8
ENDMDL
MODEL 4
REMARK VINA RESULT:      -9.2      0.517      1.115
REMARK  Name = 
REMARK  11 active torsions:
REMARK  status: ('A' for Active; 'I' for Inactive)
REMARK    1  A    between atoms: C_1  and  C_2
REMARK    2  A    between atoms: C_2  and  C_3
REMARK    3  A    between atoms: C_4  and  C_5
REMARK    4  A    between atoms: C_5  and  C_6
REMARK    5  A    between atoms: C_8  and  C_9
REMARK    6  A    between atoms: N_11  and  C_12
REMARK    7  A    between atoms: C_17  and  C_18
REMARK    8  A    between atoms: C_18  and  C_19
REMARK    9  A    between atoms: C_22  and  O_23
REMARK   10  A    between atoms: C_26  and  C_27
REMARK   11  A    between atoms: C_34  and  O_35
REMARK                            x       y       z     vdW  Elec       q    Type
REMARK                         _______ _______ _______ _____ _____    ______ ____
ROOT
ATOM      1  C   UNL     1       1.108   9.171  19.855  0.00  0.00    +0.000 A 
ATOM      2  C   UNL     1       0.274   9.865  19.065  0.00  0.00    +0.000 A 
ATOM      3  C   UNL     1      -0.612  10.864  19.605  0.00  0.00    +0.000 A 
ATOM      4  C   UNL     1      -1.506  11.538  18.780  0.00  0.00    +0.000 A 
ATOM      5  C   UNL     1      -2.379  12.472  19.328  0.00  0.00    +0.000 A 
ATOM      6  C   UNL     1      -2.349  12.782  20.704  0.00  0.00    +0.000 A 
ATOM      7  C   UNL     1      -1.403  12.141  21.536  0.00  0.00    +0.000 A 
ATOM      8  C   UNL     1      -1.222  12.462  22.994  0.00  0.00    +0.000 C 
ATOM      9  C   UNL     1      -0.572  11.163  20.963  0.00  0.00    +0.000 A 
ATOM     10  O   UNL     1       0.315  10.449  21.804  0.00  0.00    +0.000 OA
ATOM     11  C   UNL     1       1.115   9.418  21.327  0.00  0.00    +0.000 A 
ATOM     12  O   UNL     1       1.826   8.740  22.068  0.00  0.00    +0.000 OA
ENDROOT
BRANCH   1  15
ATOM     13  C   UNL     1       2.539   8.185  18.119  0.00  0.00    +0.000 C 
ATOM     14  O   UNL     1       2.401   9.084  17.292  0.00  0.00    +0.000 OA
ATOM     15  N   UNL     1       1.976   8.198  19.383  0.00  0.00    +0.000 N 
ATOM     16  H   UNL     1       2.284   7.537  20.089  0.00  0.00    +0.000 HD
BRANCH  13  19
ATOM     17  C   UNL     1       3.601   4.591  17.753  0.00  0.00    +0.000 A 
ATOM     18  C   UNL     1       2.926   5.761  18.122  0.00  0.00    +0.000 A 
ATOM     19  C   UNL     1       3.391   7.028  17.739  0.00  0.00    +0.000 A 
ATOM     20  C   UNL     1       4.573   7.131  17.001  0.00  0.00    +0.000 A 
ATOM     21  C   UNL     1       5.273   5.971  16.651  0.00  0.00    +0.000 A 
ATOM     22  C   UNL     1       4.785   4.717  17.026  0.00  0.00    +0.000 A 
BRANCH  22  23
ATOM     23  O   UNL     1       5.459   3.585  16.668  0.00  0.00    +0.000 OA
ATOM     24  H   UNL     1       4.818   2.889  16.452  0.00  0.00    +0.000 HD
ENDBRANCH  22  23
BRANCH  17  25
ATOM     25  C   UNL     1       3.025   3.252  18.146  0.00  0.00    +0.000 C 
BRANCH  25  29
ATOM     26  C   UNL     1       1.487   2.731  21.703  0.00  0.00    +0.000 C 
ATOM     27  C   UNL     1       1.575   2.838  20.206  0.00  0.00    +0.000 C 
ATOM     28  C   UNL     1       0.319   2.578  19.423  0.00  0.00    +0.000 C 
ATOM     29  C   UNL     1       2.751   3.147  19.622  0.00  0.00    +0.000 C 
ENDBRANCH  25  29
ENDBRANCH  17  25
ENDBRANCH  13  19
ENDBRANCH   1  15
BRANCH   6  30
ATOM     30  C   UNL     1      -3.331  13.827  21.203  0.00  0.00    +0.000 C 
BRANCH  30  31
ATOM     31  C   UNL     1      -4.524  13.236  21.918  0.00  0.00    +0.000 A 
ATOM     32  C   UNL     1      -5.567  12.636  21.193  0.00  0.00    +0.000 A 
ATOM     33  C   UNL     1      -6.708  12.167  21.843  0.00  0.00    +0.000 A 
ATOM     34  C   UNL     1      -6.802  12.281  23.224  0.00  0.00    +0.000 A 
ATOM     35  C   UNL     1      -5.762  12.826  23.966  0.00  0.00    +0.000 A 
ATOM     36  C   UNL     1      -4.622  13.300  23.314  0.00  0.00    +0.000 A 
BRANCH  34  37
ATOM     37  O   UNL     1      -7.914  11.868  23.895  0.00  0.00    +0.000 OA
ATOM     38  H   UNL     1      -7.727  11.000  24.289  0.00  0.00    +0.000 HD
ENDBRANCH  34  37
ENDBRANCH  30  31
ENDBRANCH   6  30
TORSDOF 8
ENDMDL
MODEL 5
REMARK VINA RESULT:      -9.2      1.683      3.498
REMARK  Name = 
REMARK  11 active torsions:
REMARK  status: ('A' for Active; 'I' for Inactive)
REMARK    1  A    between atoms: C_1  and  C_2
REMARK    2  A    between atoms: C_2  and  C_3
REMARK    3  A    between atoms: C_4  and  C_5
REMARK    4  A    between atoms: C_5  and  C_6
REMARK    5  A    between atoms: C_8  and  C_9
REMARK    6  A    between atoms: N_11  and  C_12
REMARK    7  A    between atoms: C_17  and  C_18
REMARK    8  A    between atoms: C_18  and  C_19
REMARK    9  A    between atoms: C_22  and  O_23
REMARK   10  A    between atoms: C_26  and  C_27
REMARK   11  A    between atoms: C_34  and  O_35
REMARK                            x       y       z     vdW  Elec       q    Type
REMARK                         _______ _______ _______ _____ _____    ______ ____
ROOT
ATOM      1  C   UNL     1       1.294   9.026  19.610  0.00  0.00    +0.000 A 
ATOM      2  C   UNL     1       0.664   8.910  20.790  0.00  0.00    +0.000 A 
ATOM      3  C   UNL     1      -0.047  10.020  21.372  0.00  0.00    +0.000 A 
ATOM      4  C   UNL     1      -0.651   9.897  22.618  0.00  0.00    +0.000 A 
ATOM      5  C   UNL     1      -1.300  10.993  23.179  0.00  0.00    +0.000 A 
ATOM      6  C   UNL     1      -1.394  12.220  22.488  0.00  0.00    +0.000 A 
ATOM      7  C   UNL     1      -0.831  12.330  21.197  0.00  0.00    +0.000 A 
ATOM      8  C   UNL     1      -0.953  13.557  20.336  0.00  0.00    +0.000 C 
ATOM      9  C   UNL     1      -0.135  11.223  20.681  0.00  0.00    +0.000 A 
ATOM     10  O   UNL     1       0.512  11.352  19.428  0.00  0.00    +0.000 OA
ATOM     11  C   UNL     1       1.280  10.330  18.885  0.00  0.00    +0.000 A 
ATOM     12  O   UNL     1       1.910  10.465  17.837  0.00  0.00    +0.000 OA
ENDROOT
BRANCH   1  15
ATOM     13  C   UNL     1       2.256   6.764  19.604  0.00  0.00    +0.000 C 
ATOM     14  O   UNL     1       1.824   6.423  20.703  0.00  0.00    +0.000 OA
ATOM     15  N   UNL     1       1.993   7.988  19.012  0.00  0.00    +0.000 N 
ATOM     16  H   UNL     1       2.200   8.138  18.030  0.00  0.00    +0.000 HD
BRANCH  13  19
ATOM     17  C   UNL     1       4.840   5.498  17.176  0.00  0.00    +0.000 A 
ATOM     18  C   UNL     1       3.953   6.314  17.888  0.00  0.00    +0.000 A 
ATOM     19  C   UNL     1       3.086   5.785  18.857  0.00  0.00    +0.000 A 
ATOM     20  C   UNL     1       3.082   4.407  19.095  0.00  0.00    +0.000 A 
ATOM     21  C   UNL     1       3.943   3.578  18.369  0.00  0.00    +0.000 A 
ATOM     22  C   UNL     1       4.812   4.125  17.421  0.00  0.00    +0.000 A 
BRANCH  22  23
ATOM     23  O   UNL     1       5.664   3.317  16.727  0.00  0.00    +0.000 OA
ATOM     24  H   UNL     1       5.205   2.493  16.497  0.00  0.00    +0.000 HD
ENDBRANCH  22  23
BRANCH  17  25
ATOM     25  C   UNL     1       5.788   6.129  16.185  0.00  0.00    +0.000 C 
BRANCH  25  29
ATOM     26  C   UNL     1       8.274   8.318  18.262  0.00  0.00    +0.000 C 
ATOM     27  C   UNL     1       7.493   7.116  17.808  0.00  0.00    +0.000 C 
ATOM     28  C   UNL     1       7.751   5.818  18.522  0.00  0.00    +0.000 C 
ATOM     29  C   UNL     1       6.614   7.230  16.791  0.00  0.00    +0.000 C 
ENDBRANCH  25  29
ENDBRANCH  17  25
ENDBRANCH  13  19
ENDBRANCH   1  15
BRANCH   6  30
ATOM     30  C   UNL     1      -2.137  13.350  23.178  0.00  0.00    +0.000 C 
BRANCH  30  31
ATOM     31  C   UNL     1      -3.612  13.073  23.364  0.00  0.00    +0.000 A 
ATOM     32  C   UNL     1      -4.528  13.368  22.341  0.00  0.00    +0.000 A 
ATOM     33  C   UNL     1      -5.898  13.194  22.540  0.00  0.00    +0.000 A 
ATOM     34  C   UNL     1      -6.353  12.707  23.759  0.00  0.00    +0.000 A 
ATOM     35  C   UNL     1      -5.461  12.363  24.766  0.00  0.00    +0.000 A 
ATOM     36  C   UNL     1      -4.091  12.542  24.567  0.00  0.00    +0.000 A 
BRANCH  34  37
ATOM     37  O   UNL     1      -7.684  12.556  24.009  0.00  0.00    +0.000 OA
ATOM     38  H   UNL     1      -8.049  11.943  23.349  0.00  0.00    +0.000 HD
ENDBRANCH  34  37
ENDBRANCH  30  31
ENDBRANCH   6  30
TORSDOF 8
ENDMDL
MODEL 6
REMARK VINA RESULT:      -9.2      1.634      3.377
REMARK  Name = 
REMARK  11 active torsions:
REMARK  status: ('A' for Active; 'I' for Inactive)
REMARK    1  A    between atoms: C_1  and  C_2
REMARK    2  A    between atoms: C_2  and  C_3
REMARK    3  A    between atoms: C_4  and  C_5
REMARK    4  A    between atoms: C_5  and  C_6
REMARK    5  A    between atoms: C_8  and  C_9
REMARK    6  A    between atoms: N_11  and  C_12
REMARK    7  A    between atoms: C_17  and  C_18
REMARK    8  A    between atoms: C_18  and  C_19
REMARK    9  A    between atoms: C_22  and  O_23
REMARK   10  A    between atoms: C_26  and  C_27
REMARK   11  A    between atoms: C_34  and  O_35
REMARK                            x       y       z     vdW  Elec       q    Type
REMARK                         _______ _______ _______ _____ _____    ______ ____
ROOT
ATOM      1  C   UNL     1       1.143   8.495  20.593  0.00  0.00    +0.000 A 
ATOM      2  C   UNL     1       0.491   8.751  21.737  0.00  0.00    +0.000 A 
ATOM      3  C   UNL     1      -0.282   9.955  21.907  0.00  0.00    +0.000 A 
ATOM      4  C   UNL     1      -0.910  10.228  23.117  0.00  0.00    +0.000 A 
ATOM      5  C   UNL     1      -1.619  11.415  23.272  0.00  0.00    +0.000 A 
ATOM      6  C   UNL     1      -1.750  12.334  22.209  0.00  0.00    +0.000 A 
ATOM      7  C   UNL     1      -1.162  12.032  20.960  0.00  0.00    +0.000 A 
ATOM      8  C   UNL     1      -1.316  12.892  19.736  0.00  0.00    +0.000 C 
ATOM      9  C   UNL     1      -0.406  10.852  20.851  0.00  0.00    +0.000 A 
ATOM     10  O   UNL     1       0.265  10.585  19.632  0.00  0.00    +0.000 OA
ATOM     11  C   UNL     1       1.089   9.479  19.471  0.00  0.00    +0.000 A 
ATOM     12  O   UNL     1       1.738   9.286  18.444  0.00  0.00    +0.000 OA
ENDROOT
BRANCH   1  15
ATOM     13  C   UNL     1       1.420   6.057  20.463  0.00  0.00    +0.000 C 
ATOM     14  O   UNL     1       0.239   5.770  20.646  0.00  0.00    +0.000 OA
ATOM     15  N   UNL     1       1.900   7.353  20.383  0.00  0.00    +0.000 N 
ATOM     16  H   UNL     1       2.836   7.532  20.032  0.00  0.00    +0.000 HD
BRANCH  13  19
ATOM     17  C   UNL     1       4.564   4.277  19.404  0.00  0.00    +0.000 A 
ATOM     18  C   UNL     1       3.550   5.229  19.568  0.00  0.00    +0.000 A 
ATOM     19  C   UNL     1       2.380   4.938  20.287  0.00  0.00    +0.000 A 
ATOM     20  C   UNL     1       2.205   3.660  20.824  0.00  0.00    +0.000 A 
ATOM     21  C   UNL     1       3.198   2.691  20.641  0.00  0.00    +0.000 A 
ATOM     22  C   UNL     1       4.364   3.004  19.939  0.00  0.00    +0.000 A 
BRANCH  22  23
ATOM     23  O   UNL     1       5.340   2.064  19.778  0.00  0.00    +0.000 OA
ATOM     24  H   UNL     1       5.541   1.664  20.640  0.00  0.00    +0.000 HD
ENDBRANCH  22  23
BRANCH  17  25
ATOM     25  C   UNL     1       5.825   4.663  18.669  0.00  0.00    +0.000 C 
BRANCH  25  29
ATOM     26  C   UNL     1       5.473   4.696  14.775  0.00  0.00    +0.000 C 
ATOM     27  C   UNL     1       5.437   5.178  16.199  0.00  0.00    +0.000 C 
ATOM     28  C   UNL     1       5.037   6.608  16.432  0.00  0.00    +0.000 C 
ATOM     29  C   UNL     1       5.766   4.337  17.201  0.00  0.00    +0.000 C 
ENDBRANCH  25  29
ENDBRANCH  17  25
ENDBRANCH  13  19
ENDBRANCH   1  15
BRANCH   6  30
ATOM     30  C   UNL     1      -2.558  13.592  22.473  0.00  0.00    +0.000 C 
BRANCH  30  31
ATOM     31  C   UNL     1      -4.001  13.314  22.829  0.00  0.00    +0.000 A 
ATOM     32  C   UNL     1      -4.395  13.199  24.172  0.00  0.00    +0.000 A 
ATOM     33  C   UNL     1      -5.707  12.858  24.502  0.00  0.00    +0.000 A 
ATOM     34  C   UNL     1      -6.632  12.647  23.488  0.00  0.00    +0.000 A 
ATOM     35  C   UNL     1      -6.275  12.802  22.155  0.00  0.00    +0.000 A 
ATOM     36  C   UNL     1      -4.962  13.140  21.826  0.00  0.00    +0.000 A 
BRANCH  34  37
ATOM     37  O   UNL     1      -7.914  12.277  23.765  0.00  0.00    +0.000 OA
ATOM     38  H   UNL     1      -8.488  12.615  23.057  0.00  0.00    +0.000 HD
ENDBRANCH  34  37
ENDBRANCH  30  31
ENDBRANCH   6  30
TORSDOF 8
ENDMDL
MODEL 7
REMARK VINA RESULT:      -9.1      1.098      1.363
REMARK  Name = 
REMARK  11 active torsions:
REMARK  status: ('A' for Active; 'I' for Inactive)
REMARK    1  A    between atoms: C_1  and  C_2
REMARK    2  A    between atoms: C_2  and  C_3
REMARK    3  A    between atoms: C_4  and  C_5
REMARK    4  A    between atoms: C_5  and  C_6
REMARK    5  A    between atoms: C_8  and  C_9
REMARK    6  A    between atoms: N_11  and  C_12
REMARK    7  A    between atoms: C_17  and  C_18
REMARK    8  A    between atoms: C_18  and  C_19
REMARK    9  A    between atoms: C_22  and  O_23
REMARK   10  A    between atoms: C_26  and  C_27
REMARK   11  A    between atoms: C_34  and  O_35
REMARK                            x       y       z     vdW  Elec       q    Type
REMARK                         _______ _______ _______ _____ _____    ______ ____
ROOT
ATOM      1  C   UNL     1       1.422   8.731  19.512  0.00  0.00    +0.000 A 
ATOM      2  C   UNL     1       0.909   9.714  18.756  0.00  0.00    +0.000 A 
ATOM      3  C   UNL     1       0.030  10.709  19.316  0.00  0.00    +0.000 A 
ATOM      4  C   UNL     1      -0.533  11.691  18.508  0.00  0.00    +0.000 A 
ATOM      5  C   UNL     1      -1.409  12.619  19.063  0.00  0.00    +0.000 A 
ATOM      6  C   UNL     1      -1.708  12.610  20.441  0.00  0.00    +0.000 A 
ATOM      7  C   UNL     1      -1.092  11.649  21.275  0.00  0.00    +0.000 A 
ATOM      8  C   UNL     1      -1.267  11.608  22.768  0.00  0.00    +0.000 C 
ATOM      9  C   UNL     1      -0.255  10.692  20.677  0.00  0.00    +0.000 A 
ATOM     10  O   UNL     1       0.293   9.669  21.488  0.00  0.00    +0.000 OA
ATOM     11  C   UNL     1       1.069   8.645  20.959  0.00  0.00    +0.000 A 
ATOM     12  O   UNL     1       1.480   7.709  21.645  0.00  0.00    +0.000 OA
ENDROOT
BRANCH   1  15
ATOM     13  C   UNL     1       2.985   7.841  17.837  0.00  0.00    +0.000 C 
ATOM     14  O   UNL     1       3.019   8.844  17.127  0.00  0.00    +0.000 OA
ATOM     15  N   UNL     1       2.269   7.750  19.018  0.00  0.00    +0.000 N 
ATOM     16  H   UNL     1       2.437   6.982  19.661  0.00  0.00    +0.000 HD
BRANCH  13  19
ATOM     17  C   UNL     1       4.019   4.236  17.512  0.00  0.00    +0.000 A 
ATOM     18  C   UNL     1       3.386   5.421  17.907  0.00  0.00    +0.000 A 
ATOM     19  C   UNL     1       3.791   6.670  17.409  0.00  0.00    +0.000 A 
ATOM     20  C   UNL     1       4.870   6.738  16.524  0.00  0.00    +0.000 A 
ATOM     21  C   UNL     1       5.529   5.564  16.145  0.00  0.00    +0.000 A 
ATOM     22  C   UNL     1       5.101   4.328  16.636  0.00  0.00    +0.000 A 
BRANCH  22  23
ATOM     23  O   UNL     1       5.732   3.182  16.250  0.00  0.00    +0.000 OA
ATOM     24  H   UNL     1       5.089   2.591  15.827  0.00  0.00    +0.000 HD
ENDBRANCH  22  23
BRANCH  17  25
ATOM     25  C   UNL     1       3.506   2.917  18.036  0.00  0.00    +0.000 C 
BRANCH  25  29
ATOM     26  C   UNL     1       1.416   2.854  21.340  0.00  0.00    +0.000 C 
ATOM     27  C   UNL     1       1.744   2.754  19.876  0.00  0.00    +0.000 C 
ATOM     28  C   UNL     1       0.632   2.352  18.948  0.00  0.00    +0.000 C 
ATOM     29  C   UNL     1       2.997   3.011  19.449  0.00  0.00    +0.000 C 
ENDBRANCH  25  29
ENDBRANCH  17  25
ENDBRANCH  13  19
ENDBRANCH   1  15
BRANCH   6  30
ATOM     30  C   UNL     1      -2.663  13.674  20.952  0.00  0.00    +0.000 C 
BRANCH  30  31
ATOM     31  C   UNL     1      -4.088  13.188  21.083  0.00  0.00    +0.000 A 
ATOM     32  C   UNL     1      -4.768  13.290  22.308  0.00  0.00    +0.000 A 
ATOM     33  C   UNL     1      -6.052  12.765  22.455  0.00  0.00    +0.000 A 
ATOM     34  C   UNL     1      -6.666  12.150  21.371  0.00  0.00    +0.000 A 
ATOM     35  C   UNL     1      -6.030  12.081  20.138  0.00  0.00    +0.000 A 
ATOM     36  C   UNL     1      -4.745  12.603  19.993  0.00  0.00    +0.000 A 
BRANCH  34  37
ATOM     37  O   UNL     1      -7.904  11.591  21.482  0.00  0.00    +0.000 OA
ATOM     38  H   UNL     1      -7.797  10.629  21.566  0.00  0.00    +0.000 HD
ENDBRANCH  34  37
ENDBRANCH  30  31
ENDBRANCH   6  30
TORSDOF 8
ENDMDL
MODEL 8
REMARK VINA RESULT:      -9.1      1.431      2.852
REMARK  Name = 
REMARK  11 active torsions:
REMARK  status: ('A' for Active; 'I' for Inactive)
REMARK    1  A    between atoms: C_1  and  C_2
REMARK    2  A    between atoms: C_2  and  C_3
REMARK    3  A    between atoms: C_4  and  C_5
REMARK    4  A    between atoms: C_5  and  C_6
REMARK    5  A    between atoms: C_8  and  C_9
REMARK    6  A    between atoms: N_11  and  C_12
REMARK    7  A    between atoms: C_17  and  C_18
REMARK    8  A    between atoms: C_18  and  C_19
REMARK    9  A    between atoms: C_22  and  O_23
REMARK   10  A    between atoms: C_26  and  C_27
REMARK   11  A    between atoms: C_34  and  O_35
REMARK                            x       y       z     vdW  Elec       q    Type
REMARK                         _______ _______ _______ _____ _____    ______ ____
ROOT
ATOM      1  C   UNL     1       0.881   8.982  20.876  0.00  0.00    +0.000 A 
ATOM      2  C   UNL     1       0.040   9.449  19.940  0.00  0.00    +0.000 A 
ATOM      3  C   UNL     1      -0.702  10.668  20.140  0.00  0.00    +0.000 A 
ATOM      4  C   UNL     1      -1.606  11.111  19.181  0.00  0.00    +0.000 A 
ATOM      5  C   UNL     1      -2.340  12.270  19.412  0.00  0.00    +0.000 A 
ATOM      6  C   UNL     1      -2.155  13.033  20.584  0.00  0.00    +0.000 A 
ATOM      7  C   UNL     1      -1.195  12.616  21.534  0.00  0.00    +0.000 A 
ATOM      8  C   UNL     1      -0.852  13.400  22.771  0.00  0.00    +0.000 C 
ATOM      9  C   UNL     1      -0.509  11.412  21.299  0.00  0.00    +0.000 A 
ATOM     10  O   UNL     1       0.387  10.938  22.287  0.00  0.00    +0.000 OA
ATOM     11  C   UNL     1       1.046   9.721  22.162  0.00  0.00    +0.000 A 
ATOM     12  O   UNL     1       1.763   9.266  23.053  0.00  0.00    +0.000 OA
ENDROOT
BRANCH   1  15
ATOM     13  C   UNL     1       2.191   7.381  19.550  0.00  0.00    +0.000 C 
ATOM     14  O   UNL     1       2.195   8.031  18.506  0.00  0.00    +0.000 OA
ATOM     15  N   UNL     1       1.613   7.813  20.731  0.00  0.00    +0.000 N 
ATOM     16  H   UNL     1       1.814   7.336  21.604  0.00  0.00    +0.000 HD
BRANCH  13  19
ATOM     17  C   UNL     1       4.862   4.834  18.805  0.00  0.00    +0.000 A 
ATOM     18  C   UNL     1       4.083   5.998  18.821  0.00  0.00    +0.000 A 
ATOM     19  C   UNL     1       2.880   6.066  19.542  0.00  0.00    +0.000 A 
ATOM     20  C   UNL     1       2.431   4.938  20.233  0.00  0.00    +0.000 A 
ATOM     21  C   UNL     1       3.185   3.760  20.201  0.00  0.00    +0.000 A 
ATOM     22  C   UNL     1       4.389   3.717  19.493  0.00  0.00    +0.000 A 
BRANCH  22  23
ATOM     23  O   UNL     1       5.133   2.573  19.478  0.00  0.00    +0.000 OA
ATOM     24  H   UNL     1       4.676   1.889  19.995  0.00  0.00    +0.000 HD
ENDBRANCH  22  23
BRANCH  17  25
ATOM     25  C   UNL     1       6.174   4.836  18.059  0.00  0.00    +0.000 C 
BRANCH  25  29
ATOM     26  C   UNL     1       5.666   4.191  14.237  0.00  0.00    +0.000 C 
ATOM     27  C   UNL     1       5.686   4.914  15.555  0.00  0.00    +0.000 C 
ATOM     28  C   UNL     1       5.291   6.364  15.550  0.00  0.00    +0.000 C 
ATOM     29  C   UNL     1       6.057   4.259  16.675  0.00  0.00    +0.000 C 
ENDBRANCH  25  29
ENDBRANCH  17  25
ENDBRANCH  13  19
ENDBRANCH   1  15
BRANCH   6  30
ATOM     30  C   UNL     1      -2.992  14.291  20.735  0.00  0.00    +0.000 C 
BRANCH  30  31
ATOM     31  C   UNL     1      -4.115  14.147  21.737  0.00  0.00    +0.000 A 
ATOM     32  C   UNL     1      -4.279  15.091  22.765  0.00  0.00    +0.000 A 
ATOM     33  C   UNL     1      -5.259  14.916  23.742  0.00  0.00    +0.000 A 
ATOM     34  C   UNL     1      -6.090  13.804  23.682  0.00  0.00    +0.000 A 
ATOM     35  C   UNL     1      -5.976  12.885  22.647  0.00  0.00    +0.000 A 
ATOM     36  C   UNL     1      -4.993  13.058  21.673  0.00  0.00    +0.000 A 
BRANCH  34  37
ATOM     37  O   UNL     1      -7.037  13.575  24.636  0.00  0.00    +0.000 OA
ATOM     38  H   UNL     1      -6.816  14.109  25.417  0.00  0.00    +0.000 HD
ENDBRANCH  34  37
ENDBRANCH  30  31
ENDBRANCH   6  30
TORSDOF 8
ENDMDL
MODEL 9
REMARK VINA RESULT:      -8.9      1.627      3.171
REMARK  Name = 
REMARK  11 active torsions:
REMARK  status: ('A' for Active; 'I' for Inactive)
REMARK    1  A    between atoms: C_1  and  C_2
REMARK    2  A    between atoms: C_2  and  C_3
REMARK    3  A    between atoms: C_4  and  C_5
REMARK    4  A    between atoms: C_5  and  C_6
REMARK    5  A    between atoms: C_8  and  C_9
REMARK    6  A    between atoms: N_11  and  C_12
REMARK    7  A    between atoms: C_17  and  C_18
REMARK    8  A    between atoms: C_18  and  C_19
REMARK    9  A    between atoms: C_22  and  O_23
REMARK   10  A    between atoms: C_26  and  C_27
REMARK   11  A    between atoms: C_34  and  O_35
REMARK                            x       y       z     vdW  Elec       q    Type
REMARK                         _______ _______ _______ _____ _____    ______ ____
ROOT
ATOM      1  C   UNL     1       0.839   8.841  21.002  0.00  0.00    +0.000 A 
ATOM      2  C   UNL     1       0.016   9.321  20.058  0.00  0.00    +0.000 A 
ATOM      3  C   UNL     1      -0.678  10.572  20.233  0.00  0.00    +0.000 A 
ATOM      4  C   UNL     1      -1.566  11.030  19.266  0.00  0.00    +0.000 A 
ATOM      5  C   UNL     1      -2.254  12.222  19.473  0.00  0.00    +0.000 A 
ATOM      6  C   UNL     1      -2.037  13.000  20.630  0.00  0.00    +0.000 A 
ATOM      7  C   UNL     1      -1.092  12.566  21.587  0.00  0.00    +0.000 A 
ATOM      8  C   UNL     1      -0.717  13.361  22.807  0.00  0.00    +0.000 C 
ATOM      9  C   UNL     1      -0.455  11.331  21.376  0.00  0.00    +0.000 A 
ATOM     10  O   UNL     1       0.425  10.843  22.373  0.00  0.00    +0.000 OA
ATOM     11  C   UNL     1       1.036   9.599  22.272  0.00  0.00    +0.000 A 
ATOM     12  O   UNL     1       1.735   9.135  23.172  0.00  0.00    +0.000 OA
ENDROOT
BRANCH   1  15
ATOM     13  C   UNL     1       2.201   7.227  19.746  0.00  0.00    +0.000 C 
ATOM     14  O   UNL     1       2.343   7.915  18.737  0.00  0.00    +0.000 OA
ATOM     15  N   UNL     1       1.525   7.642  20.880  0.00  0.00    +0.000 N 
ATOM     16  H   UNL     1       1.612   7.122  21.748  0.00  0.00    +0.000 HD
BRANCH  13  19
ATOM     17  C   UNL     1       4.808   4.573  19.163  0.00  0.00    +0.000 A 
ATOM     18  C   UNL     1       4.089   5.775  19.151  0.00  0.00    +0.000 A 
ATOM     19  C   UNL     1       2.823   5.878  19.750  0.00  0.00    +0.000 A 
ATOM     20  C   UNL     1       2.251   4.749  20.342  0.00  0.00    +0.000 A 
ATOM     21  C   UNL     1       2.946   3.536  20.335  0.00  0.00    +0.000 A 
ATOM     22  C   UNL     1       4.213   3.456  19.750  0.00  0.00    +0.000 A 
BRANCH  22  23
ATOM     23  O   UNL     1       4.899   2.277  19.760  0.00  0.00    +0.000 OA
ATOM     24  H   UNL     1       4.937   1.924  18.857  0.00  0.00    +0.000 HD
ENDBRANCH  22  23
BRANCH  17  25
ATOM     25  C   UNL     1       6.188   4.535  18.553  0.00  0.00    +0.000 C 
BRANCH  25  29
ATOM     26  C   UNL     1       7.853   7.951  17.635  0.00  0.00    +0.000 C 
ATOM     27  C   UNL     1       7.231   6.593  17.462  0.00  0.00    +0.000 C 
ATOM     28  C   UNL     1       7.046   6.096  16.056  0.00  0.00    +0.000 C 
ATOM     29  C   UNL     1       6.858   5.881  18.545  0.00  0.00    +0.000 C 
ENDBRANCH  25  29
ENDBRANCH  17  25
ENDBRANCH  13  19
ENDBRANCH   1  15
BRANCH   6  30
ATOM     30  C   UNL     1      -2.824  14.292  20.755  0.00  0.00    +0.000 C 
BRANCH  30  31
ATOM     31  C   UNL     1      -3.917  14.230  21.798  0.00  0.00    +0.000 A 
ATOM     32  C   UNL     1      -4.777  13.121  21.866  0.00  0.00    +0.000 A 
ATOM     33  C   UNL     1      -5.839  13.098  22.770  0.00  0.00    +0.000 A 
ATOM     34  C   UNL     1      -6.034  14.180  23.621  0.00  0.00    +0.000 A 
ATOM     35  C   UNL     1      -5.167  15.264  23.603  0.00  0.00    +0.000 A 
ATOM     36  C   UNL     1      -4.107  15.288  22.696  0.00  0.00    +0.000 A 
BRANCH  34  37
ATOM     37  O   UNL     1      -7.080  14.214  24.493  0.00  0.00    +0.000 OA
ATOM     38  H   UNL     1      -7.424  13.311  24.591  0.00  0.00    +0.000 HD
ENDBRANCH  34  37
ENDBRANCH  30  31
ENDBRANCH   6  30
TORSDOF 8
ENDMDL
