MODEL 1
REMARK VINA RESULT:      -9.3      0.000      0.000
REMARK  Name = 
REMARK  5 active torsions:
REMARK  status: ('A' for Active; 'I' for Inactive)
REMARK    1  A    between atoms: O_1  and  C_2
REMARK    2  A    between atoms: C_8  and  C_9
REMARK    3  A    between atoms: C_12  and  C_13
REMARK    4  A    between atoms: C_16  and  C_17
REMARK    5  A    between atoms: C_20  and  C_21
REMARK                            x       y       z     vdW  Elec       q    Type
REMARK                         _______ _______ _______ _____ _____    ______ ____
ROOT
ATOM      1  C   UNL     1      -1.612  12.318  22.063  0.00  0.00    +0.000 A 
ATOM      2  C   UNL     1      -1.087  11.214  22.739  0.00  0.00    +0.000 A 
ATOM      3  C   UNL     1      -0.318  10.263  22.055  0.00  0.00    +0.000 A 
ATOM      4  C   UNL     1      -0.060  10.380  20.679  0.00  0.00    +0.000 A 
ATOM      5  C   UNL     1      -0.630  11.477  20.010  0.00  0.00    +0.000 A 
ATOM      6  C   UNL     1      -1.387  12.433  20.689  0.00  0.00    +0.000 A 
ENDROOT
BRANCH   1  13
ATOM      7  C   UNL     1      -5.200  15.322  23.590  0.00  0.00    +0.000 A 
ATOM      8  C   UNL     1      -5.241  16.384  24.502  0.00  0.00    +0.000 A 
ATOM      9  C   UNL     1      -4.086  16.780  25.185  0.00  0.00    +0.000 A 
ATOM     10  C   UNL     1      -2.861  16.131  24.988  0.00  0.00    +0.000 A 
ATOM     11  C   UNL     1      -2.855  15.071  24.080  0.00  0.00    +0.000 A 
ATOM     12  N   UNL     1      -1.861  14.229  23.656  0.00  0.00    +0.000 N 
ATOM     13  C   UNL     1      -2.389  13.348  22.741  0.00  0.00    +0.000 A 
ATOM     14  N   UNL     1      -3.666  13.606  22.546  0.00  0.00    +0.000 NA
ATOM     15  C   UNL     1      -3.979  14.655  23.375  0.00  0.00    +0.000 A 
ATOM     16  H   UNL     1      -0.896  14.265  23.945  0.00  0.00    +0.000 HD
BRANCH   7  17
ATOM     17  O   UNL     1      -6.333  14.938  22.918  0.00  0.00    +0.000 OA
ATOM     18  H   UNL     1      -6.133  14.877  21.972  0.00  0.00    +0.000 HD
ENDBRANCH   7  17
ENDBRANCH   1  13
BRANCH   4  19
ATOM     19  C   UNL     1       0.802   9.415  19.960  0.00  0.00    +0.000 A 
ATOM     20  C   UNL     1       1.308   8.257  20.568  0.00  0.00    +0.000 A 
ATOM     21  C   UNL     1       2.162   7.377  19.878  0.00  0.00    +0.000 A 
ATOM     22  C   UNL     1       2.518   7.607  18.539  0.00  0.00    +0.000 A 
ATOM     23  C   UNL     1       1.977   8.747  17.926  0.00  0.00    +0.000 A 
ATOM     24  C   UNL     1       1.162   9.637  18.624  0.00  0.00    +0.000 A 
BRANCH  22  25
ATOM     25  C   UNL     1       3.435   6.712  17.797  0.00  0.00    +0.000 A 
ATOM     26  C   UNL     1       3.340   5.313  17.878  0.00  0.00    +0.000 A 
ATOM     27  C   UNL     1       4.214   4.481  17.167  0.00  0.00    +0.000 A 
ATOM     28  C   UNL     1       5.205   5.024  16.341  0.00  0.00    +0.000 A 
ATOM     29  C   UNL     1       5.309   6.414  16.246  0.00  0.00    +0.000 A 
ATOM     30  C   UNL     1       4.446   7.239  16.971  0.00  0.00    +0.000 A 
BRANCH  28  31
ATOM     31  C   UNL     1       6.154   4.150  15.562  0.00  0.00    +0.000 C 
ATOM     32  F   UNL     1       5.846   2.824  15.618  0.00  0.00    +0.000 F 
ATOM     33  F   UNL     1       6.188   4.470  14.239  0.00  0.00    +0.000 F 
ATOM     34  F   UNL     1       7.438   4.255  16.004  0.00  0.00    +0.000 F 
ENDBRANCH  28  31
ENDBRANCH  22  25
ENDBRANCH   4  19
TORSDOF 5
ENDMDL
MODEL 2
REMARK VINA RESULT:      -9.2      0.171      1.109
REMARK  Name = 
REMARK  5 active torsions:
REMARK  status: ('A' for Active; 'I' for Inactive)
REMARK    1  A    between atoms: O_1  and  C_2
REMARK    2  A    between atoms: C_8  and  C_9
REMARK    3  A    between atoms: C_12  and  C_13
REMARK    4  A    between atoms: C_16  and  C_17
REMARK    5  A    between atoms: C_20  and  C_21
REMARK                            x       y       z     vdW  Elec       q    Type
REMARK                         _______ _______ _______ _____ _____    ______ ____
ROOT
ATOM      1  C   UNL     1      -1.690  12.279  22.027  0.00  0.00    +0.000 A 
ATOM      2  C   UNL     1      -0.985  11.303  22.736  0.00  0.00    +0.000 A 
ATOM      3  C   UNL     1      -0.205  10.357  22.058  0.00  0.00    +0.000 A 
ATOM      4  C   UNL     1      -0.115  10.350  20.656  0.00  0.00    +0.000 A 
ATOM      5  C   UNL     1      -0.863  11.315  19.959  0.00  0.00    +0.000 A 
ATOM      6  C   UNL     1      -1.632  12.267  20.632  0.00  0.00    +0.000 A 
ENDROOT
BRANCH   1  13
ATOM      7  C   UNL     1      -5.347  15.191  23.569  0.00  0.00    +0.000 A 
ATOM      8  C   UNL     1      -5.401  16.286  24.440  0.00  0.00    +0.000 A 
ATOM      9  C   UNL     1      -4.241  16.755  25.065  0.00  0.00    +0.000 A 
ATOM     10  C   UNL     1      -2.998  16.150  24.848  0.00  0.00    +0.000 A 
ATOM     11  C   UNL     1      -2.978  15.056  23.981  0.00  0.00    +0.000 A 
ATOM     12  N   UNL     1      -1.965  14.240  23.554  0.00  0.00    +0.000 N 
ATOM     13  C   UNL     1      -2.486  13.302  22.694  0.00  0.00    +0.000 A 
ATOM     14  N   UNL     1      -3.779  13.499  22.535  0.00  0.00    +0.000 NA
ATOM     15  C   UNL     1      -4.108  14.567  23.335  0.00  0.00    +0.000 A 
ATOM     16  H   UNL     1      -0.992  14.327  23.806  0.00  0.00    +0.000 HD
BRANCH   7  17
ATOM     17  O   UNL     1      -6.486  14.734  22.954  0.00  0.00    +0.000 OA
ATOM     18  H   UNL     1      -7.256  15.003  23.476  0.00  0.00    +0.000 HD
ENDBRANCH   7  17
ENDBRANCH   1  13
BRANCH   4  19
ATOM     19  C   UNL     1       0.753   9.394  19.933  0.00  0.00    +0.000 A 
ATOM     20  C   UNL     1       1.300   8.258  20.547  0.00  0.00    +0.000 A 
ATOM     21  C   UNL     1       2.159   7.388  19.852  0.00  0.00    +0.000 A 
ATOM     22  C   UNL     1       2.481   7.605  18.502  0.00  0.00    +0.000 A 
ATOM     23  C   UNL     1       1.900   8.722  17.884  0.00  0.00    +0.000 A 
ATOM     24  C   UNL     1       1.079   9.604  18.586  0.00  0.00    +0.000 A 
BRANCH  22  25
ATOM     25  C   UNL     1       3.403   6.720  17.754  0.00  0.00    +0.000 A 
ATOM     26  C   UNL     1       4.486   7.223  17.016  0.00  0.00    +0.000 A 
ATOM     27  C   UNL     1       5.350   6.372  16.316  0.00  0.00    +0.000 A 
ATOM     28  C   UNL     1       5.164   4.985  16.342  0.00  0.00    +0.000 A 
ATOM     29  C   UNL     1       4.092   4.468  17.076  0.00  0.00    +0.000 A 
ATOM     30  C   UNL     1       3.224   5.323  17.758  0.00  0.00    +0.000 A 
BRANCH  28  31
ATOM     31  C   UNL     1       6.082   4.048  15.602  0.00  0.00    +0.000 C 
ATOM     32  F   UNL     1       7.403   4.257  15.864  0.00  0.00    +0.000 F 
ATOM     33  F   UNL     1       5.844   2.741  15.902  0.00  0.00    +0.000 F 
ATOM     34  F   UNL     1       5.949   4.150  14.250  0.00  0.00    +0.000 F 
ENDBRANCH  28  31
ENDBRANCH  22  25
ENDBRANCH   4  19
TORSDOF 5
ENDMDL
MODEL 3
REMARK VINA RESULT:      -9.2      0.937      1.762
REMARK  Name = 
REMARK  5 active torsions:
REMARK  status: ('A' for Active; 'I' for Inactive)
REMARK    1  A    between atoms: O_1  and  C_2
REMARK    2  A    between atoms: C_8  and  C_9
REMARK    3  A    between atoms: C_12  and  C_13
REMARK    4  A    between atoms: C_16  and  C_17
REMARK    5  A    between atoms: C_20  and  C_21
REMARK                            x       y       z     vdW  Elec       q    Type
REMARK                         _______ _______ _______ _____ _____    ______ ____
ROOT
ATOM      1  C   UNL     1      -1.693  12.315  21.956  0.00  0.00    +0.000 A 
ATOM      2  C   UNL     1      -0.948  11.378  22.677  0.00  0.00    +0.000 A 
ATOM      3  C   UNL     1      -0.162  10.430  22.010  0.00  0.00    +0.000 A 
ATOM      4  C   UNL     1      -0.104  10.382  20.607  0.00  0.00    +0.000 A 
ATOM      5  C   UNL     1      -0.892  11.307  19.900  0.00  0.00    +0.000 A 
ATOM      6  C   UNL     1      -1.667  12.262  20.561  0.00  0.00    +0.000 A 
ENDROOT
BRANCH   1  13
ATOM      7  C   UNL     1      -3.289  15.979  24.830  0.00  0.00    +0.000 A 
ATOM      8  C   UNL     1      -4.527  16.615  24.978  0.00  0.00    +0.000 A 
ATOM      9  C   UNL     1      -5.627  16.215  24.211  0.00  0.00    +0.000 A 
ATOM     10  C   UNL     1      -5.528  15.180  23.274  0.00  0.00    +0.000 A 
ATOM     11  C   UNL     1      -4.278  14.573  23.144  0.00  0.00    +0.000 A 
ATOM     12  N   UNL     1      -3.828  13.558  22.342  0.00  0.00    +0.000 N 
ATOM     13  C   UNL     1      -2.497  13.340  22.610  0.00  0.00    +0.000 A 
ATOM     14  N   UNL     1      -2.086  14.153  23.562  0.00  0.00    +0.000 NA
ATOM     15  C   UNL     1      -3.165  14.935  23.895  0.00  0.00    +0.000 A 
ATOM     16  H   UNL     1      -4.386  13.036  21.683  0.00  0.00    +0.000 HD
BRANCH   7  17
ATOM     17  O   UNL     1      -2.211  16.370  25.586  0.00  0.00    +0.000 OA
ATOM     18  H   UNL     1      -1.710  15.584  25.850  0.00  0.00    +0.000 HD
ENDBRANCH   7  17
ENDBRANCH   1  13
BRANCH   4  19
ATOM     19  C   UNL     1       0.769   9.425  19.892  0.00  0.00    +0.000 A 
ATOM     20  C   UNL     1       1.331   8.303  20.520  0.00  0.00    +0.000 A 
ATOM     21  C   UNL     1       2.195   7.432  19.832  0.00  0.00    +0.000 A 
ATOM     22  C   UNL     1       2.507   7.632  18.478  0.00  0.00    +0.000 A 
ATOM     23  C   UNL     1       1.911   8.735  17.847  0.00  0.00    +0.000 A 
ATOM     24  C   UNL     1       1.086   9.618  18.541  0.00  0.00    +0.000 A 
BRANCH  22  25
ATOM     25  C   UNL     1       3.433   6.746  17.737  0.00  0.00    +0.000 A 
ATOM     26  C   UNL     1       4.480   7.252  16.949  0.00  0.00    +0.000 A 
ATOM     27  C   UNL     1       5.349   6.399  16.256  0.00  0.00    +0.000 A 
ATOM     28  C   UNL     1       5.205   5.009  16.341  0.00  0.00    +0.000 A 
ATOM     29  C   UNL     1       4.171   4.490  17.125  0.00  0.00    +0.000 A 
ATOM     30  C   UNL     1       3.298   5.346  17.799  0.00  0.00    +0.000 A 
BRANCH  28  31
ATOM     31  C   UNL     1       6.130   4.072  15.610  0.00  0.00    +0.000 C 
ATOM     32  F   UNL     1       7.431   4.169  16.005  0.00  0.00    +0.000 F 
ATOM     33  F   UNL     1       5.785   2.765  15.778  0.00  0.00    +0.000 F 
ATOM     34  F   UNL     1       6.132   4.287  14.265  0.00  0.00    +0.000 F 
ENDBRANCH  28  31
ENDBRANCH  22  25
ENDBRANCH   4  19
TORSDOF 5
ENDMDL
MODEL 4
REMARK VINA RESULT:      -9.2      1.045      1.463
REMARK  Name = 
REMARK  5 active torsions:
REMARK  status: ('A' for Active; 'I' for Inactive)
REMARK    1  A    between atoms: O_1  and  C_2
REMARK    2  A    between atoms: C_8  and  C_9
REMARK    3  A    between atoms: C_12  and  C_13
REMARK    4  A    between atoms: C_16  and  C_17
REMARK    5  A    between atoms: C_20  and  C_21
REMARK                            x       y       z     vdW  Elec       q    Type
REMARK                         _______ _______ _______ _____ _____    ______ ____
ROOT
ATOM      1  C   UNL     1      -1.392  12.395  22.108  0.00  0.00    +0.000 A 
ATOM      2  C   UNL     1      -1.018  11.199  22.727  0.00  0.00    +0.000 A 
ATOM      3  C   UNL     1      -0.291  10.232  22.021  0.00  0.00    +0.000 A 
ATOM      4  C   UNL     1       0.073  10.423  20.677  0.00  0.00    +0.000 A 
ATOM      5  C   UNL     1      -0.348  11.615  20.061  0.00  0.00    +0.000 A 
ATOM      6  C   UNL     1      -1.061  12.587  20.765  0.00  0.00    +0.000 A 
ENDROOT
BRANCH   1  13
ATOM      7  C   UNL     1      -2.711  16.024  25.161  0.00  0.00    +0.000 A 
ATOM      8  C   UNL     1      -3.900  16.739  25.346  0.00  0.00    +0.000 A 
ATOM      9  C   UNL     1      -5.029  16.455  24.570  0.00  0.00    +0.000 A 
ATOM     10  C   UNL     1      -5.007  15.461  23.585  0.00  0.00    +0.000 A 
ATOM     11  C   UNL     1      -3.805  14.772  23.418  0.00  0.00    +0.000 A 
ATOM     12  N   UNL     1      -3.432  13.767  22.567  0.00  0.00    +0.000 N 
ATOM     13  C   UNL     1      -2.118  13.442  22.815  0.00  0.00    +0.000 A 
ATOM     14  N   UNL     1      -1.646  14.179  23.800  0.00  0.00    +0.000 NA
ATOM     15  C   UNL     1      -2.666  15.019  24.177  0.00  0.00    +0.000 A 
ATOM     16  H   UNL     1      -4.027  13.318  21.888  0.00  0.00    +0.000 HD
BRANCH   7  17
ATOM     17  O   UNL     1      -1.606  16.302  25.926  0.00  0.00    +0.000 OA
ATOM     18  H   UNL     1      -0.820  15.943  25.486  0.00  0.00    +0.000 HD
ENDBRANCH   7  17
ENDBRANCH   1  13
BRANCH   4  19
ATOM     19  C   UNL     1       0.892   9.435  19.940  0.00  0.00    +0.000 A 
ATOM     20  C   UNL     1       1.418   8.287  20.551  0.00  0.00    +0.000 A 
ATOM     21  C   UNL     1       2.232   7.385  19.841  0.00  0.00    +0.000 A 
ATOM     22  C   UNL     1       2.525   7.581  18.482  0.00  0.00    +0.000 A 
ATOM     23  C   UNL     1       1.964   8.711  17.868  0.00  0.00    +0.000 A 
ATOM     24  C   UNL     1       1.189   9.624  18.584  0.00  0.00    +0.000 A 
BRANCH  22  25
ATOM     25  C   UNL     1       3.400   6.662  17.718  0.00  0.00    +0.000 A 
ATOM     26  C   UNL     1       3.281   5.266  17.815  0.00  0.00    +0.000 A 
ATOM     27  C   UNL     1       4.115   4.411  17.083  0.00  0.00    +0.000 A 
ATOM     28  C   UNL     1       5.088   4.927  16.219  0.00  0.00    +0.000 A 
ATOM     29  C   UNL     1       5.214   6.315  16.108  0.00  0.00    +0.000 A 
ATOM     30  C   UNL     1       4.392   7.162  16.853  0.00  0.00    +0.000 A 
BRANCH  28  31
ATOM     31  C   UNL     1       5.992   4.028  15.417  0.00  0.00    +0.000 C 
ATOM     32  F   UNL     1       5.880   2.710  15.741  0.00  0.00    +0.000 F 
ATOM     33  F   UNL     1       5.749   4.106  14.079  0.00  0.00    +0.000 F 
ATOM     34  F   UNL     1       7.308   4.342  15.575  0.00  0.00    +0.000 F 
ENDBRANCH  28  31
ENDBRANCH  22  25
ENDBRANCH   4  19
TORSDOF 5
ENDMDL
MODEL 5
REMARK VINA RESULT:      -9.1      0.891      1.071
REMARK  Name = 
REMARK  5 active torsions:
REMARK  status: ('A' for Active; 'I' for Inactive)
REMARK    1  A    between atoms: O_1  and  C_2
REMARK    2  A    between atoms: C_8  and  C_9
REMARK    3  A    between atoms: C_12  and  C_13
REMARK    4  A    between atoms: C_16  and  C_17
REMARK    5  A    between atoms: C_20  and  C_21
REMARK                            x       y       z     vdW  Elec       q    Type
REMARK                         _______ _______ _______ _____ _____    ______ ____
ROOT
ATOM      1  C   UNL     1      -2.030  12.382  21.586  0.00  0.00    +0.000 A 
ATOM      2  C   UNL     1      -1.230  11.555  22.379  0.00  0.00    +0.000 A 
ATOM      3  C   UNL     1      -0.384  10.607  21.789  0.00  0.00    +0.000 A 
ATOM      4  C   UNL     1      -0.320  10.447  20.395  0.00  0.00    +0.000 A 
ATOM      5  C   UNL     1      -1.162  11.261  19.616  0.00  0.00    +0.000 A 
ATOM      6  C   UNL     1      -1.997  12.216  20.200  0.00  0.00    +0.000 A 
ENDROOT
BRANCH   1  13
ATOM      7  C   UNL     1      -5.689  14.783  23.839  0.00  0.00    +0.000 A 
ATOM      8  C   UNL     1      -5.956  16.140  24.058  0.00  0.00    +0.000 A 
ATOM      9  C   UNL     1      -5.081  17.122  23.583  0.00  0.00    +0.000 A 
ATOM     10  C   UNL     1      -3.915  16.787  22.883  0.00  0.00    +0.000 A 
ATOM     11  C   UNL     1      -3.673  15.427  22.688  0.00  0.00    +0.000 A 
ATOM     12  N   UNL     1      -2.655  14.755  22.068  0.00  0.00    +0.000 N 
ATOM     13  C   UNL     1      -2.898  13.404  22.157  0.00  0.00    +0.000 A 
ATOM     14  N   UNL     1      -4.036  13.187  22.784  0.00  0.00    +0.000 NA
ATOM     15  C   UNL     1      -4.524  14.423  23.137  0.00  0.00    +0.000 A 
ATOM     16  H   UNL     1      -1.869  15.178  21.598  0.00  0.00    +0.000 HD
BRANCH   7  17
ATOM     17  O   UNL     1      -6.550  13.820  24.303  0.00  0.00    +0.000 OA
ATOM     18  H   UNL     1      -6.328  12.973  23.889  0.00  0.00    +0.000 HD
ENDBRANCH   7  17
ENDBRANCH   1  13
BRANCH   4  19
ATOM     19  C   UNL     1       0.613   9.492  19.758  0.00  0.00    +0.000 A 
ATOM     20  C   UNL     1       1.202   8.430  20.462  0.00  0.00    +0.000 A 
ATOM     21  C   UNL     1       2.121   7.561  19.847  0.00  0.00    +0.000 A 
ATOM     22  C   UNL     1       2.464   7.702  18.493  0.00  0.00    +0.000 A 
ATOM     23  C   UNL     1       1.843   8.742  17.786  0.00  0.00    +0.000 A 
ATOM     24  C   UNL     1       0.961   9.626  18.407  0.00  0.00    +0.000 A 
BRANCH  22  25
ATOM     25  C   UNL     1       3.448   6.818  17.827  0.00  0.00    +0.000 A 
ATOM     26  C   UNL     1       3.385   5.418  17.931  0.00  0.00    +0.000 A 
ATOM     27  C   UNL     1       4.323   4.596  17.293  0.00  0.00    +0.000 A 
ATOM     28  C   UNL     1       5.349   5.150  16.518  0.00  0.00    +0.000 A 
ATOM     29  C   UNL     1       5.422   6.541  16.401  0.00  0.00    +0.000 A 
ATOM     30  C   UNL     1       4.495   7.356  17.054  0.00  0.00    +0.000 A 
BRANCH  28  31
ATOM     31  C   UNL     1       6.365   4.287  15.818  0.00  0.00    +0.000 C 
ATOM     32  F   UNL     1       7.530   4.144  16.509  0.00  0.00    +0.000 F 
ATOM     33  F   UNL     1       5.908   3.025  15.590  0.00  0.00    +0.000 F 
ATOM     34  F   UNL     1       6.714   4.782  14.597  0.00  0.00    +0.000 F 
ENDBRANCH  28  31
ENDBRANCH  22  25
ENDBRANCH   4  19
TORSDOF 5
ENDMDL
MODEL 6
REMARK VINA RESULT:      -9.0      0.628      1.243
REMARK  Name = 
REMARK  5 active torsions:
REMARK  status: ('A' for Active; 'I' for Inactive)
REMARK    1  A    between atoms: O_1  and  C_2
REMARK    2  A    between atoms: C_8  and  C_9
REMARK    3  A    between atoms: C_12  and  C_13
REMARK    4  A    between atoms: C_16  and  C_17
REMARK    5  A    between atoms: C_20  and  C_21
REMARK                            x       y       z     vdW  Elec       q    Type
REMARK                         _______ _______ _______ _____ _____    ______ ____
ROOT
ATOM      1  C   UNL     1      -2.029  12.384  21.550  0.00  0.00    +0.000 A 
ATOM      2  C   UNL     1      -1.969  12.276  20.158  0.00  0.00    +0.000 A 
ATOM      3  C   UNL     1      -1.077  11.382  19.552  0.00  0.00    +0.000 A 
ATOM      4  C   UNL     1      -0.212  10.579  20.315  0.00  0.00    +0.000 A 
ATOM      5  C   UNL     1      -0.260  10.731  21.712  0.00  0.00    +0.000 A 
ATOM      6  C   UNL     1      -1.156  11.612  22.320  0.00  0.00    +0.000 A 
ENDROOT
BRANCH   1  13
ATOM      7  C   UNL     1      -6.073  14.706  23.126  0.00  0.00    +0.000 A 
ATOM      8  C   UNL     1      -6.285  15.786  23.991  0.00  0.00    +0.000 A 
ATOM      9  C   UNL     1      -5.204  16.434  24.597  0.00  0.00    +0.000 A 
ATOM     10  C   UNL     1      -3.884  16.028  24.366  0.00  0.00    +0.000 A 
ATOM     11  C   UNL     1      -3.707  14.944  23.506  0.00  0.00    +0.000 A 
ATOM     12  N   UNL     1      -2.585  14.291  23.069  0.00  0.00    +0.000 N 
ATOM     13  C   UNL     1      -2.965  13.277  22.222  0.00  0.00    +0.000 A 
ATOM     14  N   UNL     1      -4.275  13.269  22.081  0.00  0.00    +0.000 NA
ATOM     15  C   UNL     1      -4.755  14.280  22.879  0.00  0.00    +0.000 A 
ATOM     16  H   UNL     1      -1.634  14.530  23.307  0.00  0.00    +0.000 HD
BRANCH   7  17
ATOM     17  O   UNL     1      -7.135  14.072  22.530  0.00  0.00    +0.000 OA
ATOM     18  H   UNL     1      -6.899  13.147  22.368  0.00  0.00    +0.000 HD
ENDBRANCH   7  17
ENDBRANCH   1  13
BRANCH   4  19
ATOM     19  C   UNL     1       0.690   9.587  19.689  0.00  0.00    +0.000 A 
ATOM     20  C   UNL     1       1.234   8.508  20.400  0.00  0.00    +0.000 A 
ATOM     21  C   UNL     1       2.126   7.604  19.795  0.00  0.00    +0.000 A 
ATOM     22  C   UNL     1       2.484   7.726  18.443  0.00  0.00    +0.000 A 
ATOM     23  C   UNL     1       1.906   8.786  17.728  0.00  0.00    +0.000 A 
ATOM     24  C   UNL     1       1.052   9.704  18.340  0.00  0.00    +0.000 A 
BRANCH  22  25
ATOM     25  C   UNL     1       3.440   6.804  17.788  0.00  0.00    +0.000 A 
ATOM     26  C   UNL     1       3.321   5.409  17.892  0.00  0.00    +0.000 A 
ATOM     27  C   UNL     1       4.233   4.551  17.264  0.00  0.00    +0.000 A 
ATOM     28  C   UNL     1       5.288   5.064  16.499  0.00  0.00    +0.000 A 
ATOM     29  C   UNL     1       5.416   6.451  16.382  0.00  0.00    +0.000 A 
ATOM     30  C   UNL     1       4.515   7.301  17.025  0.00  0.00    +0.000 A 
BRANCH  28  31
ATOM     31  C   UNL     1       6.277   4.162  15.809  0.00  0.00    +0.000 C 
ATOM     32  F   UNL     1       7.469   4.059  16.460  0.00  0.00    +0.000 F 
ATOM     33  F   UNL     1       5.814   2.889  15.674  0.00  0.00    +0.000 F 
ATOM     34  F   UNL     1       6.576   4.586  14.549  0.00  0.00    +0.000 F 
ENDBRANCH  28  31
ENDBRANCH  22  25
ENDBRANCH   4  19
TORSDOF 5
ENDMDL
MODEL 7
REMARK VINA RESULT:      -9.0      0.954      1.646
REMARK  Name = 
REMARK  5 active torsions:
REMARK  status: ('A' for Active; 'I' for Inactive)
REMARK    1  A    between atoms: O_1  and  C_2
REMARK    2  A    between atoms: C_8  and  C_9
REMARK    3  A    between atoms: C_12  and  C_13
REMARK    4  A    between atoms: C_16  and  C_17
REMARK    5  A    between atoms: C_20  and  C_21
REMARK                            x       y       z     vdW  Elec       q    Type
REMARK                         _______ _______ _______ _____ _____    ______ ____
ROOT
ATOM      1  C   UNL     1      -1.920  12.383  21.836  0.00  0.00    +0.000 A 
ATOM      2  C   UNL     1      -1.063  11.561  22.572  0.00  0.00    +0.000 A 
ATOM      3  C   UNL     1      -0.222  10.649  21.921  0.00  0.00    +0.000 A 
ATOM      4  C   UNL     1      -0.220  10.523  20.521  0.00  0.00    +0.000 A 
ATOM      5  C   UNL     1      -1.118  11.331  19.802  0.00  0.00    +0.000 A 
ATOM      6  C   UNL     1      -1.949  12.250  20.446  0.00  0.00    +0.000 A 
ENDROOT
BRANCH   1  13
ATOM      7  C   UNL     1      -3.733  16.020  24.614  0.00  0.00    +0.000 A 
ATOM      8  C   UNL     1      -5.013  16.568  24.763  0.00  0.00    +0.000 A 
ATOM      9  C   UNL     1      -6.093  16.063  24.032  0.00  0.00    +0.000 A 
ATOM     10  C   UNL     1      -5.933  15.005  23.129  0.00  0.00    +0.000 A 
ATOM     11  C   UNL     1      -4.645  14.486  22.997  0.00  0.00    +0.000 A 
ATOM     12  N   UNL     1      -4.135  13.479  22.221  0.00  0.00    +0.000 N 
ATOM     13  C   UNL     1      -2.787  13.369  22.471  0.00  0.00    +0.000 A 
ATOM     14  N   UNL     1      -2.421  14.243  23.386  0.00  0.00    +0.000 NA
ATOM     15  C   UNL     1      -3.549  14.956  23.712  0.00  0.00    +0.000 A 
ATOM     16  H   UNL     1      -4.663  12.895  21.591  0.00  0.00    +0.000 HD
BRANCH   7  17
ATOM     17  O   UNL     1      -2.675  16.516  25.334  0.00  0.00    +0.000 OA
ATOM     18  H   UNL     1      -2.997  17.205  25.934  0.00  0.00    +0.000 HD
ENDBRANCH   7  17
ENDBRANCH   1  13
BRANCH   4  19
ATOM     19  C   UNL     1       0.707   9.607  19.820  0.00  0.00    +0.000 A 
ATOM     20  C   UNL     1       1.081   9.793  18.481  0.00  0.00    +0.000 A 
ATOM     21  C   UNL     1       1.928   8.884  17.821  0.00  0.00    +0.000 A 
ATOM     22  C   UNL     1       2.460   7.768  18.487  0.00  0.00    +0.000 A 
ATOM     23  C   UNL     1       2.113   7.610  19.837  0.00  0.00    +0.000 A 
ATOM     24  C   UNL     1       1.242   8.491  20.478  0.00  0.00    +0.000 A 
BRANCH  22  25
ATOM     25  C   UNL     1       3.333   6.782  17.810  0.00  0.00    +0.000 A 
ATOM     26  C   UNL     1       3.098   5.399  17.888  0.00  0.00    +0.000 A 
ATOM     27  C   UNL     1       3.933   4.480  17.240  0.00  0.00    +0.000 A 
ATOM     28  C   UNL     1       5.025   4.917  16.481  0.00  0.00    +0.000 A 
ATOM     29  C   UNL     1       5.269   6.290  16.389  0.00  0.00    +0.000 A 
ATOM     30  C   UNL     1       4.444   7.201  17.052  0.00  0.00    +0.000 A 
BRANCH  28  31
ATOM     31  C   UNL     1       5.933   3.949  15.769  0.00  0.00    +0.000 C 
ATOM     32  F   UNL     1       5.601   2.642  15.967  0.00  0.00    +0.000 F 
ATOM     33  F   UNL     1       5.937   4.134  14.420  0.00  0.00    +0.000 F 
ATOM     34  F   UNL     1       7.231   4.068  16.165  0.00  0.00    +0.000 F 
ENDBRANCH  28  31
ENDBRANCH  22  25
ENDBRANCH   4  19
TORSDOF 5
ENDMDL
MODEL 8
REMARK VINA RESULT:      -8.9      0.980      1.779
REMARK  Name = 
REMARK  5 active torsions:
REMARK  status: ('A' for Active; 'I' for Inactive)
REMARK    1  A    between atoms: O_1  and  C_2
REMARK    2  A    between atoms: C_8  and  C_9
REMARK    3  A    between atoms: C_12  and  C_13
REMARK    4  A    between atoms: C_16  and  C_17
REMARK    5  A    between atoms: C_20  and  C_21
REMARK                            x       y       z     vdW  Elec       q    Type
REMARK                         _______ _______ _______ _____ _____    ______ ____
ROOT
ATOM      1  C   UNL     1      -1.845  12.639  21.647  0.00  0.00    +0.000 A 
ATOM      2  C   UNL     1      -1.840  12.499  20.257  0.00  0.00    +0.000 A 
ATOM      3  C   UNL     1      -0.997  11.565  19.640  0.00  0.00    +0.000 A 
ATOM      4  C   UNL     1      -0.129  10.753  20.389  0.00  0.00    +0.000 A 
ATOM      5  C   UNL     1      -0.121  10.937  21.783  0.00  0.00    +0.000 A 
ATOM      6  C   UNL     1      -0.968  11.858  22.403  0.00  0.00    +0.000 A 
ENDROOT
BRANCH   1  13
ATOM      7  C   UNL     1      -3.709  16.150  24.549  0.00  0.00    +0.000 A 
ATOM      8  C   UNL     1      -5.005  16.634  24.761  0.00  0.00    +0.000 A 
ATOM      9  C   UNL     1      -6.091  16.085  24.070  0.00  0.00    +0.000 A 
ATOM     10  C   UNL     1      -5.920  15.047  23.146  0.00  0.00    +0.000 A 
ATOM     11  C   UNL     1      -4.615  14.593  22.951  0.00  0.00    +0.000 A 
ATOM     12  N   UNL     1      -4.091  13.621  22.141  0.00  0.00    +0.000 N 
ATOM     13  C   UNL     1      -2.730  13.573  22.331  0.00  0.00    +0.000 A 
ATOM     14  N   UNL     1      -2.367  14.453  23.242  0.00  0.00    +0.000 NA
ATOM     15  C   UNL     1      -3.513  15.107  23.626  0.00  0.00    +0.000 A 
ATOM     16  H   UNL     1      -4.618  13.020  21.526  0.00  0.00    +0.000 HD
BRANCH   7  17
ATOM     17  O   UNL     1      -2.646  16.688  25.231  0.00  0.00    +0.000 OA
ATOM     18  H   UNL     1      -1.894  16.773  24.626  0.00  0.00    +0.000 HD
ENDBRANCH   7  17
ENDBRANCH   1  13
BRANCH   4  19
ATOM     19  C   UNL     1       0.721   9.722  19.754  0.00  0.00    +0.000 A 
ATOM     20  C   UNL     1       1.212   8.612  20.457  0.00  0.00    +0.000 A 
ATOM     21  C   UNL     1       2.056   7.668  19.844  0.00  0.00    +0.000 A 
ATOM     22  C   UNL     1       2.416   7.781  18.491  0.00  0.00    +0.000 A 
ATOM     23  C   UNL     1       1.890   8.873  17.785  0.00  0.00    +0.000 A 
ATOM     24  C   UNL     1       1.085   9.828  18.405  0.00  0.00    +0.000 A 
BRANCH  22  25
ATOM     25  C   UNL     1       3.322   6.816  17.828  0.00  0.00    +0.000 A 
ATOM     26  C   UNL     1       3.145   5.427  17.939  0.00  0.00    +0.000 A 
ATOM     27  C   UNL     1       4.011   4.529  17.302  0.00  0.00    +0.000 A 
ATOM     28  C   UNL     1       5.076   4.993  16.522  0.00  0.00    +0.000 A 
ATOM     29  C   UNL     1       5.262   6.373  16.397  0.00  0.00    +0.000 A 
ATOM     30  C   UNL     1       4.407   7.263  17.049  0.00  0.00    +0.000 A 
BRANCH  28  31
ATOM     31  C   UNL     1       6.017   4.047  15.823  0.00  0.00    +0.000 C 
ATOM     32  F   UNL     1       6.124   4.273  14.484  0.00  0.00    +0.000 F 
ATOM     33  F   UNL     1       7.284   4.114  16.317  0.00  0.00    +0.000 F 
ATOM     34  F   UNL     1       5.635   2.745  15.952  0.00  0.00    +0.000 F 
ENDBRANCH  28  31
ENDBRANCH  22  25
ENDBRANCH   4  19
TORSDOF 5
ENDMDL
MODEL 9
REMARK VINA RESULT:      -8.8      1.127      1.985
REMARK  Name = 
REMARK  5 active torsions:
REMARK  status: ('A' for Active; 'I' for Inactive)
REMARK    1  A    between atoms: O_1  and  C_2
REMARK    2  A    between atoms: C_8  and  C_9
REMARK    3  A    between atoms: C_12  and  C_13
REMARK    4  A    between atoms: C_16  and  C_17
REMARK    5  A    between atoms: C_20  and  C_21
REMARK                            x       y       z     vdW  Elec       q    Type
REMARK                         _______ _______ _______ _____ _____    ______ ____
ROOT
ATOM      1  C   UNL     1      -2.368  12.224  21.323  0.00  0.00    +0.000 A 
ATOM      2  C   UNL     1      -2.251  12.150  19.932  0.00  0.00    +0.000 A 
ATOM      3  C   UNL     1      -1.263  11.351  19.344  0.00  0.00    +0.000 A 
ATOM      4  C   UNL     1      -0.356  10.612  20.124  0.00  0.00    +0.000 A 
ATOM      5  C   UNL     1      -0.465  10.732  21.521  0.00  0.00    +0.000 A 
ATOM      6  C   UNL     1      -1.457  11.518  22.111  0.00  0.00    +0.000 A 
ENDROOT
BRANCH   1  13
ATOM      7  C   UNL     1      -4.931  15.831  23.480  0.00  0.00    +0.000 A 
ATOM      8  C   UNL     1      -6.217  15.901  24.028  0.00  0.00    +0.000 A 
ATOM      9  C   UNL     1      -7.049  14.777  24.033  0.00  0.00    +0.000 A 
ATOM     10  C   UNL     1      -6.632  13.556  23.489  0.00  0.00    +0.000 A 
ATOM     11  C   UNL     1      -5.349  13.521  22.944  0.00  0.00    +0.000 A 
ATOM     12  N   UNL     1      -4.634  12.522  22.337  0.00  0.00    +0.000 N 
ATOM     13  C   UNL     1      -3.403  13.016  21.975  0.00  0.00    +0.000 A 
ATOM     14  N   UNL     1      -3.292  14.277  22.344  0.00  0.00    +0.000 NA
ATOM     15  C   UNL     1      -4.489  14.614  22.929  0.00  0.00    +0.000 A 
ATOM     16  H   UNL     1      -4.947  11.573  22.202  0.00  0.00    +0.000 HD
BRANCH   7  17
ATOM     17  O   UNL     1      -4.114  16.934  23.480  0.00  0.00    +0.000 OA
ATOM     18  H   UNL     1      -3.530  16.894  22.707  0.00  0.00    +0.000 HD
ENDBRANCH   7  17
ENDBRANCH   1  13
BRANCH   4  19
ATOM     19  C   UNL     1       0.652   9.718  19.514  0.00  0.00    +0.000 A 
ATOM     20  C   UNL     1       1.145   9.911  18.215  0.00  0.00    +0.000 A 
ATOM     21  C   UNL     1       2.070   9.021  17.640  0.00  0.00    +0.000 A 
ATOM     22  C   UNL     1       2.563   7.918  18.355  0.00  0.00    +0.000 A 
ATOM     23  C   UNL     1       2.095   7.753  19.668  0.00  0.00    +0.000 A 
ATOM     24  C   UNL     1       1.149   8.615  20.222  0.00  0.00    +0.000 A 
BRANCH  22  25
ATOM     25  C   UNL     1       3.518   6.952  17.766  0.00  0.00    +0.000 A 
ATOM     26  C   UNL     1       3.413   5.569  17.988  0.00  0.00    +0.000 A 
ATOM     27  C   UNL     1       4.323   4.668  17.421  0.00  0.00    +0.000 A 
ATOM     28  C   UNL     1       5.362   5.123  16.600  0.00  0.00    +0.000 A 
ATOM     29  C   UNL     1       5.476   6.496  16.365  0.00  0.00    +0.000 A 
ATOM     30  C   UNL     1       4.577   7.390  16.947  0.00  0.00    +0.000 A 
BRANCH  28  31
ATOM     31  C   UNL     1       6.350   4.174  15.973  0.00  0.00    +0.000 C 
ATOM     32  F   UNL     1       5.852   2.922  15.772  0.00  0.00    +0.000 F 
ATOM     33  F   UNL     1       6.784   4.604  14.756  0.00  0.00    +0.000 F 
ATOM     34  F   UNL     1       7.469   4.013  16.733  0.00  0.00    +0.000 F 
ENDBRANCH  28  31
ENDBRANCH  22  25
ENDBRANCH   4  19
TORSDOF 5
ENDMDL
