MODEL 1
REMARK VINA RESULT:      -6.0      0.000      0.000
REMARK  Name = 
REMARK  2 active torsions:
REMARK  status: ('A' for Active; 'I' for Inactive)
REMARK    1  A    between atoms: N_7  and  C_8
REMARK    2  A    between atoms: C_8  and  C_9
REMARK                            x       y       z     vdW  Elec       q    Type
REMARK                         _______ _______ _______ _____ _____    ______ ____
ROOT
ATOM      1  C   UNL     1       5.039   5.195  19.271  0.00  0.00    +0.000 C 
ENDROOT
BRANCH   1   8
ATOM      2  S   UNL     1       2.328   6.969  19.360  0.00  0.00    +0.000 S 
ATOM      3  C   UNL     1       2.566   5.338  19.650  0.00  0.00    +0.000 C 
ATOM      4  S   UNL     1       1.394   4.428  20.594  0.00  0.00    +0.000 S 
ATOM      5  C   UNL     1       1.314   2.880  19.682  0.00  0.00    +0.000 C 
ATOM      6  C   UNL     1       2.691   2.333  19.368  0.00  0.00    +0.000 C 
ATOM      7  C   UNL     1       3.512   3.340  18.586  0.00  0.00    +0.000 C 
ATOM      8  N   UNL     1       3.693   4.605  19.289  0.00  0.00    +0.000 N 
ENDBRANCH   1   8
BRANCH   1   9
ATOM      9  C   UNL     1       5.605   5.187  17.863  0.00  0.00    +0.000 A 
ATOM     10  C   UNL     1       4.914   5.792  16.804  0.00  0.00    +0.000 A 
ATOM     11  C   UNL     1       5.417   5.731  15.499  0.00  0.00    +0.000 A 
ATOM     12  C   UNL     1       6.621   5.070  15.253  0.00  0.00    +0.000 A 
ATOM     13 CL   UNL     1       7.229   4.987  13.645  0.00  0.00    +0.000 Cl
ATOM     14  C   UNL     1       7.325   4.475  16.295  0.00  0.00    +0.000 A 
ATOM     15  C   UNL     1       6.816   4.528  17.596  0.00  0.00    +0.000 A 
ENDBRANCH   1   9
TORSDOF 2
ENDMDL
MODEL 2
REMARK VINA RESULT:      -5.9      0.101      1.253
REMARK  Name = 
REMARK  2 active torsions:
REMARK  status: ('A' for Active; 'I' for Inactive)
REMARK    1  A    between atoms: N_7  and  C_8
REMARK    2  A    between atoms: C_8  and  C_9
REMARK                            x       y       z     vdW  Elec       q    Type
REMARK                         _______ _______ _______ _____ _____    ______ ____
ROOT
ATOM      1  C   UNL     1       5.044   5.218  19.206  0.00  0.00    +0.000 C 
ENDROOT
BRANCH   1   8
ATOM      2  S   UNL     1       2.354   7.026  19.233  0.00  0.00    +0.000 S 
ATOM      3  C   UNL     1       2.579   5.411  19.613  0.00  0.00    +0.000 C 
ATOM      4  S   UNL     1       1.412   4.570  20.624  0.00  0.00    +0.000 S 
ATOM      5  C   UNL     1       1.301   2.974  19.803  0.00  0.00    +0.000 C 
ATOM      6  C   UNL     1       2.668   2.395  19.501  0.00  0.00    +0.000 C 
ATOM      7  C   UNL     1       3.488   3.346  18.651  0.00  0.00    +0.000 C 
ATOM      8  N   UNL     1       3.692   4.646  19.278  0.00  0.00    +0.000 N 
ENDBRANCH   1   8
BRANCH   1   9
ATOM      9  C   UNL     1       5.589   5.123  17.793  0.00  0.00    +0.000 A 
ATOM     10  C   UNL     1       6.796   4.463  17.528  0.00  0.00    +0.000 A 
ATOM     11  C   UNL     1       7.319   4.429  16.230  0.00  0.00    +0.000 A 
ATOM     12  C   UNL     1       6.627   5.052  15.191  0.00  0.00    +0.000 A 
ATOM     13 CL   UNL     1       7.280   5.019  13.599  0.00  0.00    +0.000 Cl
ATOM     14  C   UNL     1       5.422   5.702  15.435  0.00  0.00    +0.000 A 
ATOM     15  C   UNL     1       4.906   5.743  16.734  0.00  0.00    +0.000 A 
ENDBRANCH   1   9
TORSDOF 2
ENDMDL
MODEL 3
REMARK VINA RESULT:      -5.9      2.089      2.637
REMARK  Name = 
REMARK  2 active torsions:
REMARK  status: ('A' for Active; 'I' for Inactive)
REMARK    1  A    between atoms: N_7  and  C_8
REMARK    2  A    between atoms: C_8  and  C_9
REMARK                            x       y       z     vdW  Elec       q    Type
REMARK                         _______ _______ _______ _____ _____    ______ ____
ROOT
ATOM      1  C   UNL     1       4.423   3.433  17.135  0.00  0.00    +0.000 C 
ENDROOT
BRANCH   1   8
ATOM      2  S   UNL     1       1.425   4.528  17.701  0.00  0.00    +0.000 S 
ATOM      3  C   UNL     1       2.578   3.930  18.756  0.00  0.00    +0.000 C 
ATOM      4  S   UNL     1       2.494   4.320  20.469  0.00  0.00    +0.000 S 
ATOM      5  C   UNL     1       2.932   2.747  21.223  0.00  0.00    +0.000 C 
ATOM      6  C   UNL     1       4.171   2.142  20.596  0.00  0.00    +0.000 C 
ATOM      7  C   UNL     1       3.991   1.955  19.102  0.00  0.00    +0.000 C 
ATOM      8  N   UNL     1       3.707   3.200  18.398  0.00  0.00    +0.000 N 
ENDBRANCH   1   8
BRANCH   1   9
ATOM      9  C   UNL     1       5.343   4.633  17.258  0.00  0.00    +0.000 A 
ATOM     10  C   UNL     1       6.511   4.572  18.030  0.00  0.00    +0.000 A 
ATOM     11  C   UNL     1       7.323   5.701  18.182  0.00  0.00    +0.000 A 
ATOM     12  C   UNL     1       6.971   6.895  17.552  0.00  0.00    +0.000 A 
ATOM     13 CL   UNL     1       7.967   8.285  17.752  0.00  0.00    +0.000 Cl
ATOM     14  C   UNL     1       5.821   6.970  16.773  0.00  0.00    +0.000 A 
ATOM     15  C   UNL     1       5.005   5.843  16.630  0.00  0.00    +0.000 A 
ENDBRANCH   1   9
TORSDOF 2
ENDMDL
MODEL 4
REMARK VINA RESULT:      -5.9      3.883      5.779
REMARK  Name = 
REMARK  2 active torsions:
REMARK  status: ('A' for Active; 'I' for Inactive)
REMARK    1  A    between atoms: N_7  and  C_8
REMARK    2  A    between atoms: C_8  and  C_9
REMARK                            x       y       z     vdW  Elec       q    Type
REMARK                         _______ _______ _______ _____ _____    ______ ____
ROOT
ATOM      1  C   UNL     1       3.701   3.919  16.653  0.00  0.00    +0.000 C 
ENDROOT
BRANCH   1   8
ATOM      2  S   UNL     1       6.161   4.032  14.546  0.00  0.00    +0.000 S 
ATOM      3  C   UNL     1       6.093   4.475  16.159  0.00  0.00    +0.000 C 
ATOM      4  S   UNL     1       7.570   4.586  17.107  0.00  0.00    +0.000 S 
ATOM      5  C   UNL     1       7.271   6.071  18.076  0.00  0.00    +0.000 C 
ATOM      6  C   UNL     1       5.901   6.062  18.721  0.00  0.00    +0.000 C 
ATOM      7  C   UNL     1       4.809   5.908  17.680  0.00  0.00    +0.000 C 
ATOM      8  N   UNL     1       4.932   4.685  16.895  0.00  0.00    +0.000 N 
ENDBRANCH   1   8
BRANCH   1   9
ATOM      9  C   UNL     1       3.049   3.529  17.967  0.00  0.00    +0.000 A 
ATOM     10  C   UNL     1       1.724   3.887  18.250  0.00  0.00    +0.000 A 
ATOM     11  C   UNL     1       1.150   3.570  19.487  0.00  0.00    +0.000 A 
ATOM     12  C   UNL     1       1.902   2.885  20.442  0.00  0.00    +0.000 A 
ATOM     13 CL   UNL     1       1.196   2.510  21.967  0.00  0.00    +0.000 Cl
ATOM     14  C   UNL     1       3.215   2.513  20.173  0.00  0.00    +0.000 A 
ATOM     15  C   UNL     1       3.789   2.838  18.940  0.00  0.00    +0.000 A 
ENDBRANCH   1   9
TORSDOF 2
ENDMDL
MODEL 5
REMARK VINA RESULT:      -5.9      2.109      2.357
REMARK  Name = 
REMARK  2 active torsions:
REMARK  status: ('A' for Active; 'I' for Inactive)
REMARK    1  A    between atoms: N_7  and  C_8
REMARK    2  A    between atoms: C_8  and  C_9
REMARK                            x       y       z     vdW  Elec       q    Type
REMARK                         _______ _______ _______ _____ _____    ______ ____
ROOT
ATOM      1  C   UNL     1       4.494   3.531  17.200  0.00  0.00    +0.000 C 
ENDROOT
BRANCH   1   8
ATOM      2  S   UNL     1       1.441   4.494  17.710  0.00  0.00    +0.000 S 
ATOM      3  C   UNL     1       2.592   3.925  18.783  0.00  0.00    +0.000 C 
ATOM      4  S   UNL     1       2.451   4.282  20.500  0.00  0.00    +0.000 S 
ATOM      5  C   UNL     1       2.935   2.714  21.238  0.00  0.00    +0.000 C 
ATOM      6  C   UNL     1       4.213   2.172  20.632  0.00  0.00    +0.000 C 
ATOM      7  C   UNL     1       4.076   2.004  19.131  0.00  0.00    +0.000 C 
ATOM      8  N   UNL     1       3.758   3.248  18.441  0.00  0.00    +0.000 N 
ENDBRANCH   1   8
BRANCH   1   9
ATOM      9  C   UNL     1       5.369   4.759  17.368  0.00  0.00    +0.000 A 
ATOM     10  C   UNL     1       5.033   5.974  16.754  0.00  0.00    +0.000 A 
ATOM     11  C   UNL     1       5.876   7.085  16.868  0.00  0.00    +0.000 A 
ATOM     12  C   UNL     1       7.055   6.985  17.607  0.00  0.00    +0.000 A 
ATOM     13 CL   UNL     1       8.095   8.351  17.734  0.00  0.00    +0.000 Cl
ATOM     14  C   UNL     1       7.397   5.790  18.232  0.00  0.00    +0.000 A 
ATOM     15  C   UNL     1       6.559   4.678  18.108  0.00  0.00    +0.000 A 
ENDBRANCH   1   9
TORSDOF 2
ENDMDL
MODEL 6
REMARK VINA RESULT:      -5.9      1.747      2.079
REMARK  Name = 
REMARK  2 active torsions:
REMARK  status: ('A' for Active; 'I' for Inactive)
REMARK    1  A    between atoms: N_7  and  C_8
REMARK    2  A    between atoms: C_8  and  C_9
REMARK                            x       y       z     vdW  Elec       q    Type
REMARK                         _______ _______ _______ _____ _____    ______ ____
ROOT
ATOM      1  C   UNL     1       4.707   5.086  19.259  0.00  0.00    +0.000 C 
ENDROOT
BRANCH   1   8
ATOM      2  S   UNL     1       4.794   2.092  20.497  0.00  0.00    +0.000 S 
ATOM      3  C   UNL     1       3.695   2.803  19.454  0.00  0.00    +0.000 C 
ATOM      4  S   UNL     1       2.670   1.801  18.434  0.00  0.00    +0.000 S 
ATOM      5  C   UNL     1       1.097   2.668  18.533  0.00  0.00    +0.000 C 
ATOM      6  C   UNL     1       1.254   4.156  18.300  0.00  0.00    +0.000 C 
ATOM      7  C   UNL     1       2.230   4.764  19.289  0.00  0.00    +0.000 C 
ATOM      8  N   UNL     1       3.560   4.168  19.223  0.00  0.00    +0.000 N 
ENDBRANCH   1   8
BRANCH   1   9
ATOM      9  C   UNL     1       5.399   5.129  17.909  0.00  0.00    +0.000 A 
ATOM     10  C   UNL     1       4.768   5.695  16.793  0.00  0.00    +0.000 A 
ATOM     11  C   UNL     1       5.391   5.679  15.540  0.00  0.00    +0.000 A 
ATOM     12  C   UNL     1       6.655   5.103  15.404  0.00  0.00    +0.000 A 
ATOM     13 CL   UNL     1       7.412   5.075  13.858  0.00  0.00    +0.000 Cl
ATOM     14  C   UNL     1       7.299   4.548  16.504  0.00  0.00    +0.000 A 
ATOM     15  C   UNL     1       6.671   4.556  17.754  0.00  0.00    +0.000 A 
ENDBRANCH   1   9
TORSDOF 2
ENDMDL
MODEL 7
REMARK VINA RESULT:      -5.9      1.725      2.418
REMARK  Name = 
REMARK  2 active torsions:
REMARK  status: ('A' for Active; 'I' for Inactive)
REMARK    1  A    between atoms: N_7  and  C_8
REMARK    2  A    between atoms: C_8  and  C_9
REMARK                            x       y       z     vdW  Elec       q    Type
REMARK                         _______ _______ _______ _____ _____    ______ ____
ROOT
ATOM      1  C   UNL     1       4.831   5.005  19.174  0.00  0.00    +0.000 C 
ENDROOT
BRANCH   1   8
ATOM      2  S   UNL     1       4.746   2.046  20.493  0.00  0.00    +0.000 S 
ATOM      3  C   UNL     1       3.679   2.797  19.445  0.00  0.00    +0.000 C 
ATOM      4  S   UNL     1       2.578   1.836  18.466  0.00  0.00    +0.000 S 
ATOM      5  C   UNL     1       1.065   2.804  18.562  0.00  0.00    +0.000 C 
ATOM      6  C   UNL     1       1.312   4.273  18.285  0.00  0.00    +0.000 C 
ATOM      7  C   UNL     1       2.340   4.843  19.244  0.00  0.00    +0.000 C 
ATOM      8  N   UNL     1       3.627   4.161  19.178  0.00  0.00    +0.000 N 
ENDBRANCH   1   8
BRANCH   1   9
ATOM      9  C   UNL     1       5.492   4.986  17.807  0.00  0.00    +0.000 A 
ATOM     10  C   UNL     1       6.820   4.567  17.654  0.00  0.00    +0.000 A 
ATOM     11  C   UNL     1       7.438   4.606  16.398  0.00  0.00    +0.000 A 
ATOM     12  C   UNL     1       6.721   5.057  15.290  0.00  0.00    +0.000 A 
ATOM     13 CL   UNL     1       7.489   5.116  13.750  0.00  0.00    +0.000 Cl
ATOM     14  C   UNL     1       5.398   5.466  15.423  0.00  0.00    +0.000 A 
ATOM     15  C   UNL     1       4.786   5.435  16.680  0.00  0.00    +0.000 A 
ENDBRANCH   1   9
TORSDOF 2
ENDMDL
MODEL 8
REMARK VINA RESULT:      -5.8      3.898      5.942
REMARK  Name = 
REMARK  2 active torsions:
REMARK  status: ('A' for Active; 'I' for Inactive)
REMARK    1  A    between atoms: N_7  and  C_8
REMARK    2  A    between atoms: C_8  and  C_9
REMARK                            x       y       z     vdW  Elec       q    Type
REMARK                         _______ _______ _______ _____ _____    ______ ____
ROOT
ATOM      1  C   UNL     1       3.608   3.953  16.616  0.00  0.00    +0.000 C 
ENDROOT
BRANCH   1   8
ATOM      2  S   UNL     1       5.985   3.919  14.412  0.00  0.00    +0.000 S 
ATOM      3  C   UNL     1       5.978   4.475  15.991  0.00  0.00    +0.000 C 
ATOM      4  S   UNL     1       7.490   4.655  16.871  0.00  0.00    +0.000 S 
ATOM      5  C   UNL     1       7.223   6.205  17.743  0.00  0.00    +0.000 C 
ATOM      6  C   UNL     1       5.878   6.240  18.440  0.00  0.00    +0.000 C 
ATOM      7  C   UNL     1       4.748   6.011  17.455  0.00  0.00    +0.000 C 
ATOM      8  N   UNL     1       4.845   4.736  16.755  0.00  0.00    +0.000 N 
ENDBRANCH   1   8
BRANCH   1   9
ATOM      9  C   UNL     1       3.031   3.622  17.980  0.00  0.00    +0.000 A 
ATOM     10  C   UNL     1       3.788   2.931  18.936  0.00  0.00    +0.000 A 
ATOM     11  C   UNL     1       3.227   2.581  20.170  0.00  0.00    +0.000 A 
ATOM     12  C   UNL     1       1.906   2.931  20.452  0.00  0.00    +0.000 A 
ATOM     13 CL   UNL     1       1.217   2.487  21.966  0.00  0.00    +0.000 Cl
ATOM     14  C   UNL     1       1.145   3.626  19.519  0.00  0.00    +0.000 A 
ATOM     15  C   UNL     1       1.704   3.967  18.283  0.00  0.00    +0.000 A 
ENDBRANCH   1   9
TORSDOF 2
ENDMDL
MODEL 9
REMARK VINA RESULT:      -5.7      3.872      5.893
REMARK  Name = 
REMARK  2 active torsions:
REMARK  status: ('A' for Active; 'I' for Inactive)
REMARK    1  A    between atoms: N_7  and  C_8
REMARK    2  A    between atoms: C_8  and  C_9
REMARK                            x       y       z     vdW  Elec       q    Type
REMARK                         _______ _______ _______ _____ _____    ______ ____
ROOT
ATOM      1  C   UNL     1       2.877   5.582  17.801  0.00  0.00    +0.000 C 
ENDROOT
BRANCH   1   8
ATOM      2  S   UNL     1       4.551   3.235  19.282  0.00  0.00    +0.000 S 
ATOM      3  C   UNL     1       5.053   4.720  18.694  0.00  0.00    +0.000 C 
ATOM      4  S   UNL     1       6.533   5.453  19.298  0.00  0.00    +0.000 S 
ATOM      5  C   UNL     1       7.249   6.124  17.790  0.00  0.00    +0.000 C 
ATOM      6  C   UNL     1       6.236   6.907  16.980  0.00  0.00    +0.000 C 
ATOM      7  C   UNL     1       5.035   6.048  16.633  0.00  0.00    +0.000 C 
ATOM      8  N   UNL     1       4.346   5.523  17.805  0.00  0.00    +0.000 N 
ENDBRANCH   1   8
BRANCH   1   9
ATOM      9  C   UNL     1       2.392   6.834  18.510  0.00  0.00    +0.000 A 
ATOM     10  C   UNL     1       2.134   6.828  19.887  0.00  0.00    +0.000 A 
ATOM     11  C   UNL     1       1.634   7.971  20.521  0.00  0.00    +0.000 A 
ATOM     12  C   UNL     1       1.399   9.127  19.777  0.00  0.00    +0.000 A 
ATOM     13 CL   UNL     1       0.771  10.527  20.559  0.00  0.00    +0.000 Cl
ATOM     14  C   UNL     1       1.661   9.153  18.411  0.00  0.00    +0.000 A 
ATOM     15  C   UNL     1       2.151   8.007  17.777  0.00  0.00    +0.000 A 
ENDBRANCH   1   9
TORSDOF 2
ENDMDL
