MODEL 1
REMARK VINA RESULT:      -6.7      0.000      0.000
REMARK  Name = 
REMARK  4 active torsions:
REMARK  status: ('A' for Active; 'I' for Inactive)
REMARK    1  A    between atoms: C_2  and  O_3
REMARK    2  A    between atoms: C_2  and  C_4
REMARK    3  A    between atoms: C_4  and  C_5
REMARK    4  A    between atoms: C_8  and  O_9
REMARK                            x       y       z     vdW  Elec       q    Type
REMARK                         _______ _______ _______ _____ _____    ______ ____
ROOT
ATOM      1  C   UNL     1       4.773   4.873  16.710  0.00  0.00    +0.000 A 
ATOM      2  N   UNL     1       5.009   6.209  16.794  0.00  0.00    +0.000 NA
ATOM      3  N   UNL     1       4.143   7.014  17.458  0.00  0.00    +0.000 NA
ATOM      4  C   UNL     1       3.059   6.467  18.036  0.00  0.00    +0.000 A 
ATOM      5  C   UNL     1       2.769   5.106  18.026  0.00  0.00    +0.000 A 
ATOM      6  C   UNL     1       1.631   4.559  18.657  0.00  0.00    +0.000 A 
ATOM      7  C   UNL     1       1.386   3.188  18.627  0.00  0.00    +0.000 A 
ATOM      8  C   UNL     1       2.271   2.346  17.969  0.00  0.00    +0.000 A 
ATOM      9  C   UNL     1       3.393   2.873  17.326  0.00  0.00    +0.000 A 
ATOM     10  C   UNL     1       3.667   4.263  17.340  0.00  0.00    +0.000 A 
ENDROOT
BRANCH   4  11
ATOM     11  O   UNL     1       2.235   7.366  18.645  0.00  0.00    +0.000 OA
ATOM     12  H   UNL     1       1.403   7.227  18.158  0.00  0.00    +0.000 HD
ENDBRANCH   4  11
BRANCH   1  13
ATOM     13  C   UNL     1       5.761   4.122  15.862  0.00  0.00    +0.000 C 
BRANCH  13  15
ATOM     14  O   UNL     1       7.943   4.344  16.839  0.00  0.00    +0.000 OA
ATOM     15  C   UNL     1       7.165   4.653  15.949  0.00  0.00    +0.000 C 
BRANCH  15  16
ATOM     16  O   UNL     1       7.521   5.477  14.938  0.00  0.00    +0.000 OA
ATOM     17  H   UNL     1       7.303   6.418  15.088  0.00  0.00    +0.000 HD
ENDBRANCH  15  16
ENDBRANCH  13  15
ENDBRANCH   1  13
TORSDOF 4
ENDMDL
MODEL 2
REMARK VINA RESULT:      -6.6      2.542      3.173
REMARK  Name = 
REMARK  4 active torsions:
REMARK  status: ('A' for Active; 'I' for Inactive)
REMARK    1  A    between atoms: C_2  and  O_3
REMARK    2  A    between atoms: C_2  and  C_4
REMARK    3  A    between atoms: C_4  and  C_5
REMARK    4  A    between atoms: C_8  and  O_9
REMARK                            x       y       z     vdW  Elec       q    Type
REMARK                         _______ _______ _______ _____ _____    ______ ____
ROOT
ATOM      1  C   UNL     1       6.330   4.181  16.346  0.00  0.00    +0.000 A 
ATOM      2  N   UNL     1       7.635   4.177  16.728  0.00  0.00    +0.000 NA
ATOM      3  N   UNL     1       7.984   4.603  17.967  0.00  0.00    +0.000 NA
ATOM      4  C   UNL     1       7.020   5.016  18.808  0.00  0.00    +0.000 A 
ATOM      5  C   UNL     1       5.662   5.014  18.505  0.00  0.00    +0.000 A 
ATOM      6  C   UNL     1       4.672   5.440  19.416  0.00  0.00    +0.000 A 
ATOM      7  C   UNL     1       3.322   5.412  19.071  0.00  0.00    +0.000 A 
ATOM      8  C   UNL     1       2.944   4.961  17.814  0.00  0.00    +0.000 A 
ATOM      9  C   UNL     1       3.913   4.552  16.895  0.00  0.00    +0.000 A 
ATOM     10  C   UNL     1       5.292   4.570  17.219  0.00  0.00    +0.000 A 
ENDROOT
BRANCH   4  11
ATOM     11  O   UNL     1       7.480   5.458  20.013  0.00  0.00    +0.000 OA
ATOM     12  H   UNL     1       6.648   5.591  20.501  0.00  0.00    +0.000 HD
ENDBRANCH   4  11
BRANCH   1  13
ATOM     13  C   UNL     1       6.102   3.777  14.916  0.00  0.00    +0.000 C 
BRANCH  13  15
ATOM     14  O   UNL     1       6.983   4.273  12.738  0.00  0.00    +0.000 OA
ATOM     15  C   UNL     1       6.930   4.549  13.927  0.00  0.00    +0.000 C 
BRANCH  15  16
ATOM     16  O   UNL     1       7.591   5.608  14.448  0.00  0.00    +0.000 OA
ATOM     17  H   UNL     1       7.053   6.420  14.528  0.00  0.00    +0.000 HD
ENDBRANCH  15  16
ENDBRANCH  13  15
ENDBRANCH   1  13
TORSDOF 4
ENDMDL
MODEL 3
REMARK VINA RESULT:      -6.5      2.321      3.117
REMARK  Name = 
REMARK  4 active torsions:
REMARK  status: ('A' for Active; 'I' for Inactive)
REMARK    1  A    between atoms: C_2  and  O_3
REMARK    2  A    between atoms: C_2  and  C_4
REMARK    3  A    between atoms: C_4  and  C_5
REMARK    4  A    between atoms: C_8  and  O_9
REMARK                            x       y       z     vdW  Elec       q    Type
REMARK                         _______ _______ _______ _____ _____    ______ ____
ROOT
ATOM      1  C   UNL     1       4.274   5.230  18.060  0.00  0.00    +0.000 A 
ATOM      2  N   UNL     1       5.522   4.958  18.525  0.00  0.00    +0.000 NA
ATOM      3  N   UNL     1       5.748   3.837  19.254  0.00  0.00    +0.000 NA
ATOM      4  C   UNL     1       4.723   3.003  19.499  0.00  0.00    +0.000 A 
ATOM      5  C   UNL     1       3.428   3.193  19.027  0.00  0.00    +0.000 A 
ATOM      6  C   UNL     1       2.376   2.289  19.287  0.00  0.00    +0.000 A 
ATOM      7  C   UNL     1       1.096   2.517  18.786  0.00  0.00    +0.000 A 
ATOM      8  C   UNL     1       0.850   3.649  18.021  0.00  0.00    +0.000 A 
ATOM      9  C   UNL     1       1.877   4.561  17.768  0.00  0.00    +0.000 A 
ATOM     10  C   UNL     1       3.187   4.355  18.265  0.00  0.00    +0.000 A 
ENDROOT
BRANCH   4  11
ATOM     11  O   UNL     1       5.049   1.927  20.271  0.00  0.00    +0.000 OA
ATOM     12  H   UNL     1       4.589   2.140  21.103  0.00  0.00    +0.000 HD
ENDBRANCH   4  11
BRANCH   1  13
ATOM     13  C   UNL     1       4.151   6.552  17.354  0.00  0.00    +0.000 C 
BRANCH  13  15
ATOM     14  O   UNL     1       5.166   6.660  15.180  0.00  0.00    +0.000 OA
ATOM     15  C   UNL     1       5.267   6.831  16.386  0.00  0.00    +0.000 C 
BRANCH  15  16
ATOM     16  O   UNL     1       6.393   7.326  16.948  0.00  0.00    +0.000 OA
ATOM     17  H   UNL     1       6.921   7.899  16.358  0.00  0.00    +0.000 HD
ENDBRANCH  15  16
ENDBRANCH  13  15
ENDBRANCH   1  13
TORSDOF 4
ENDMDL
MODEL 4
REMARK VINA RESULT:      -6.4      2.600      4.952
REMARK  Name = 
REMARK  4 active torsions:
REMARK  status: ('A' for Active; 'I' for Inactive)
REMARK    1  A    between atoms: C_2  and  O_3
REMARK    2  A    between atoms: C_2  and  C_4
REMARK    3  A    between atoms: C_4  and  C_5
REMARK    4  A    between atoms: C_8  and  O_9
REMARK                            x       y       z     vdW  Elec       q    Type
REMARK                         _______ _______ _______ _____ _____    ______ ____
ROOT
ATOM      1  C   UNL     1       4.087   3.961  17.631  0.00  0.00    +0.000 A 
ATOM      2  N   UNL     1       4.380   4.079  18.953  0.00  0.00    +0.000 NA
ATOM      3  N   UNL     1       5.634   4.416  19.345  0.00  0.00    +0.000 NA
ATOM      4  C   UNL     1       6.571   4.640  18.407  0.00  0.00    +0.000 A 
ATOM      5  C   UNL     1       6.339   4.576  17.037  0.00  0.00    +0.000 A 
ATOM      6  C   UNL     1       7.341   4.832  16.076  0.00  0.00    +0.000 A 
ATOM      7  C   UNL     1       7.059   4.764  14.713  0.00  0.00    +0.000 A 
ATOM      8  C   UNL     1       5.777   4.439  14.292  0.00  0.00    +0.000 A 
ATOM      9  C   UNL     1       4.779   4.167  15.230  0.00  0.00    +0.000 A 
ATOM     10  C   UNL     1       5.037   4.228  16.622  0.00  0.00    +0.000 A 
ENDROOT
BRANCH   4  11
ATOM     11  O   UNL     1       7.804   4.936  18.908  0.00  0.00    +0.000 OA
ATOM     12  H   UNL     1       8.345   4.222  18.525  0.00  0.00    +0.000 HD
ENDBRANCH   4  11
BRANCH   1  13
ATOM     13  C   UNL     1       2.689   3.486  17.347  0.00  0.00    +0.000 C 
BRANCH  13  15
ATOM     14  O   UNL     1       1.171   2.140  18.631  0.00  0.00    +0.000 OA
ATOM     15  C   UNL     1       2.283   2.278  18.145  0.00  0.00    +0.000 C 
BRANCH  15  16
ATOM     16  O   UNL     1       3.238   1.327  18.254  0.00  0.00    +0.000 OA
ATOM     17  H   UNL     1       3.153   0.759  19.046  0.00  0.00    +0.000 HD
ENDBRANCH  15  16
ENDBRANCH  13  15
ENDBRANCH   1  13
TORSDOF 4
ENDMDL
MODEL 5
REMARK VINA RESULT:      -6.4      1.215      1.504
REMARK  Name = 
REMARK  4 active torsions:
REMARK  status: ('A' for Active; 'I' for Inactive)
REMARK    1  A    between atoms: C_2  and  O_3
REMARK    2  A    between atoms: C_2  and  C_4
REMARK    3  A    between atoms: C_4  and  C_5
REMARK    4  A    between atoms: C_8  and  O_9
REMARK                            x       y       z     vdW  Elec       q    Type
REMARK                         _______ _______ _______ _____ _____    ______ ____
ROOT
ATOM      1  C   UNL     1       4.182   4.833  17.616  0.00  0.00    +0.000 A 
ATOM      2  N   UNL     1       4.495   6.078  18.061  0.00  0.00    +0.000 NA
ATOM      3  N   UNL     1       3.746   6.666  19.026  0.00  0.00    +0.000 NA
ATOM      4  C   UNL     1       2.700   5.992  19.538  0.00  0.00    +0.000 A 
ATOM      5  C   UNL     1       2.340   4.702  19.162  0.00  0.00    +0.000 A 
ATOM      6  C   UNL     1       1.246   4.015  19.731  0.00  0.00    +0.000 A 
ATOM      7  C   UNL     1       0.927   2.719  19.329  0.00  0.00    +0.000 A 
ATOM      8  C   UNL     1       1.694   2.094  18.355  0.00  0.00    +0.000 A 
ATOM      9  C   UNL     1       2.770   2.767  17.772  0.00  0.00    +0.000 A 
ATOM     10  C   UNL     1       3.117   4.084  18.161  0.00  0.00    +0.000 A 
ENDROOT
BRANCH   4  11
ATOM     11  O   UNL     1       1.992   6.686  20.475  0.00  0.00    +0.000 OA
ATOM     12  H   UNL     1       2.271   6.243  21.295  0.00  0.00    +0.000 HD
ENDBRANCH   4  11
BRANCH   1  13
ATOM     13  C   UNL     1       5.036   4.348  16.478  0.00  0.00    +0.000 C 
BRANCH  13  15
ATOM     14  O   UNL     1       7.348   4.680  15.919  0.00  0.00    +0.000 OA
ATOM     15  C   UNL     1       6.511   4.394  16.762  0.00  0.00    +0.000 C 
BRANCH  15  16
ATOM     16  O   UNL     1       6.847   4.130  18.045  0.00  0.00    +0.000 OA
ATOM     17  H   UNL     1       6.315   4.611  18.709  0.00  0.00    +0.000 HD
ENDBRANCH  15  16
ENDBRANCH  13  15
ENDBRANCH   1  13
TORSDOF 4
ENDMDL
MODEL 6
REMARK VINA RESULT:      -6.3      2.871      4.865
REMARK  Name = 
REMARK  4 active torsions:
REMARK  status: ('A' for Active; 'I' for Inactive)
REMARK    1  A    between atoms: C_2  and  O_3
REMARK    2  A    between atoms: C_2  and  C_4
REMARK    3  A    between atoms: C_4  and  C_5
REMARK    4  A    between atoms: C_8  and  O_9
REMARK                            x       y       z     vdW  Elec       q    Type
REMARK                         _______ _______ _______ _____ _____    ______ ____
ROOT
ATOM      1  C   UNL     1       5.076   4.052  18.621  0.00  0.00    +0.000 A 
ATOM      2  N   UNL     1       5.602   4.591  19.752  0.00  0.00    +0.000 NA
ATOM      3  N   UNL     1       6.644   5.455  19.675  0.00  0.00    +0.000 NA
ATOM      4  C   UNL     1       7.136   5.774  18.466  0.00  0.00    +0.000 A 
ATOM      5  C   UNL     1       6.629   5.294  17.262  0.00  0.00    +0.000 A 
ATOM      6  C   UNL     1       7.158   5.662  16.006  0.00  0.00    +0.000 A 
ATOM      7  C   UNL     1       6.611   5.162  14.826  0.00  0.00    +0.000 A 
ATOM      8  C   UNL     1       5.532   4.291  14.883  0.00  0.00    +0.000 A 
ATOM      9  C   UNL     1       5.008   3.906  16.119  0.00  0.00    +0.000 A 
ATOM     10  C   UNL     1       5.544   4.398  17.334  0.00  0.00    +0.000 A 
ENDROOT
BRANCH   4  11
ATOM     11  O   UNL     1       8.205   6.621  18.502  0.00  0.00    +0.000 OA
ATOM     12  H   UNL     1       8.371   6.762  17.553  0.00  0.00    +0.000 HD
ENDBRANCH   4  11
BRANCH   1  13
ATOM     13  C   UNL     1       3.994   3.037  18.863  0.00  0.00    +0.000 C 
BRANCH  13  15
ATOM     14  O   UNL     1       3.246   2.399  21.054  0.00  0.00    +0.000 OA
ATOM     15  C   UNL     1       4.105   2.334  20.187  0.00  0.00    +0.000 C 
BRANCH  15  16
ATOM     16  O   UNL     1       5.220   1.584  20.337  0.00  0.00    +0.000 OA
ATOM     17  H   UNL     1       5.210   0.742  19.839  0.00  0.00    +0.000 HD
ENDBRANCH  15  16
ENDBRANCH  13  15
ENDBRANCH   1  13
TORSDOF 4
ENDMDL
MODEL 7
REMARK VINA RESULT:      -6.3      2.587      3.944
REMARK  Name = 
REMARK  4 active torsions:
REMARK  status: ('A' for Active; 'I' for Inactive)
REMARK    1  A    between atoms: C_2  and  O_3
REMARK    2  A    between atoms: C_2  and  C_4
REMARK    3  A    between atoms: C_4  and  C_5
REMARK    4  A    between atoms: C_8  and  O_9
REMARK                            x       y       z     vdW  Elec       q    Type
REMARK                         _______ _______ _______ _____ _____    ______ ____
ROOT
ATOM      1  C   UNL     1       6.586   6.674  16.910  0.00  0.00    +0.000 A 
ATOM      2  N   UNL     1       7.542   5.994  16.224  0.00  0.00    +0.000 NA
ATOM      3  N   UNL     1       7.316   4.719  15.822  0.00  0.00    +0.000 NA
ATOM      4  C   UNL     1       6.132   4.148  16.105  0.00  0.00    +0.000 A 
ATOM      5  C   UNL     1       5.091   4.791  16.770  0.00  0.00    +0.000 A 
ATOM      6  C   UNL     1       3.853   4.169  17.038  0.00  0.00    +0.000 A 
ATOM      7  C   UNL     1       2.837   4.855  17.699  0.00  0.00    +0.000 A 
ATOM      8  C   UNL     1       3.042   6.168  18.101  0.00  0.00    +0.000 A 
ATOM      9  C   UNL     1       4.268   6.791  17.857  0.00  0.00    +0.000 A 
ATOM     10  C   UNL     1       5.319   6.118  17.187  0.00  0.00    +0.000 A 
ENDROOT
BRANCH   4  11
ATOM     11  O   UNL     1       6.021   2.854  15.690  0.00  0.00    +0.000 OA
ATOM     12  H   UNL     1       6.692   2.416  16.243  0.00  0.00    +0.000 HD
ENDBRANCH   4  11
BRANCH   1  13
ATOM     13  C   UNL     1       7.011   8.039  17.377  0.00  0.00    +0.000 C 
BRANCH  13  15
ATOM     14  O   UNL     1       8.804   9.008  18.646  0.00  0.00    +0.000 OA
ATOM     15  C   UNL     1       8.145   8.019  18.363  0.00  0.00    +0.000 C 
BRANCH  15  16
ATOM     16  O   UNL     1       8.360   6.820  18.951  0.00  0.00    +0.000 OA
ATOM     17  H   UNL     1       9.263   6.465  18.825  0.00  0.00    +0.000 HD
ENDBRANCH  15  16
ENDBRANCH  13  15
ENDBRANCH   1  13
TORSDOF 4
ENDMDL
MODEL 8
REMARK VINA RESULT:      -6.3      0.791      1.062
REMARK  Name = 
REMARK  4 active torsions:
REMARK  status: ('A' for Active; 'I' for Inactive)
REMARK    1  A    between atoms: C_2  and  O_3
REMARK    2  A    between atoms: C_2  and  C_4
REMARK    3  A    between atoms: C_4  and  C_5
REMARK    4  A    between atoms: C_8  and  O_9
REMARK                            x       y       z     vdW  Elec       q    Type
REMARK                         _______ _______ _______ _____ _____    ______ ____
ROOT
ATOM      1  C   UNL     1       5.212   4.841  16.805  0.00  0.00    +0.000 A 
ATOM      2  N   UNL     1       5.501   6.167  16.862  0.00  0.00    +0.000 NA
ATOM      3  N   UNL     1       4.590   7.043  17.355  0.00  0.00    +0.000 NA
ATOM      4  C   UNL     1       3.407   6.574  17.791  0.00  0.00    +0.000 A 
ATOM      5  C   UNL     1       3.053   5.228  17.800  0.00  0.00    +0.000 A 
ATOM      6  C   UNL     1       1.809   4.766  18.281  0.00  0.00    +0.000 A 
ATOM      7  C   UNL     1       1.502   3.407  18.278  0.00  0.00    +0.000 A 
ATOM      8  C   UNL     1       2.429   2.494  17.795  0.00  0.00    +0.000 A 
ATOM      9  C   UNL     1       3.658   2.938  17.302  0.00  0.00    +0.000 A 
ATOM     10  C   UNL     1       3.997   4.312  17.292  0.00  0.00    +0.000 A 
ENDROOT
BRANCH   4  11
ATOM     11  O   UNL     1       2.551   7.539  18.231  0.00  0.00    +0.000 OA
ATOM     12  H   UNL     1       1.840   7.002  18.624  0.00  0.00    +0.000 HD
ENDBRANCH   4  11
BRANCH   1  13
ATOM     13  C   UNL     1       6.273   4.003  16.146  0.00  0.00    +0.000 C 
BRANCH  13  15
ATOM     14  O   UNL     1       6.148   4.045  13.748  0.00  0.00    +0.000 OA
ATOM     15  C   UNL     1       6.656   4.478  14.772  0.00  0.00    +0.000 C 
BRANCH  15  16
ATOM     16  O   UNL     1       7.587   5.458  14.752  0.00  0.00    +0.000 OA
ATOM     17  H   UNL     1       8.267   5.355  14.057  0.00  0.00    +0.000 HD
ENDBRANCH  15  16
ENDBRANCH  13  15
ENDBRANCH   1  13
TORSDOF 4
ENDMDL
MODEL 9
REMARK VINA RESULT:      -6.3      2.607      3.356
REMARK  Name = 
REMARK  4 active torsions:
REMARK  status: ('A' for Active; 'I' for Inactive)
REMARK    1  A    between atoms: C_2  and  O_3
REMARK    2  A    between atoms: C_2  and  C_4
REMARK    3  A    between atoms: C_4  and  C_5
REMARK    4  A    between atoms: C_8  and  O_9
REMARK                            x       y       z     vdW  Elec       q    Type
REMARK                         _______ _______ _______ _____ _____    ______ ____
ROOT
ATOM      1  C   UNL     1       4.457   4.565  18.120  0.00  0.00    +0.000 A 
ATOM      2  N   UNL     1       4.627   3.440  17.377  0.00  0.00    +0.000 NA
ATOM      3  N   UNL     1       3.721   2.433  17.447  0.00  0.00    +0.000 NA
ATOM      4  C   UNL     1       2.654   2.574  18.252  0.00  0.00    +0.000 A 
ATOM      5  C   UNL     1       2.391   3.709  19.013  0.00  0.00    +0.000 A 
ATOM      6  C   UNL     1       1.251   3.833  19.837  0.00  0.00    +0.000 A 
ATOM      7  C   UNL     1       1.025   4.992  20.575  0.00  0.00    +0.000 A 
ATOM      8  C   UNL     1       1.932   6.041  20.502  0.00  0.00    +0.000 A 
ATOM      9  C   UNL     1       3.072   5.927  19.704  0.00  0.00    +0.000 A 
ATOM     10  C   UNL     1       3.327   4.760  18.943  0.00  0.00    +0.000 A 
ENDROOT
BRANCH   4  11
ATOM     11  O   UNL     1       1.825   1.491  18.277  0.00  0.00    +0.000 OA
ATOM     12  H   UNL     1       1.510   1.467  17.357  0.00  0.00    +0.000 HD
ENDBRANCH   4  11
BRANCH   1  13
ATOM     13  C   UNL     1       5.587   5.551  18.018  0.00  0.00    +0.000 C 
BRANCH  13  15
ATOM     14  O   UNL     1       7.111   5.450  19.871  0.00  0.00    +0.000 OA
ATOM     15  C   UNL     1       6.840   5.117  18.727  0.00  0.00    +0.000 C 
BRANCH  15  16
ATOM     16  O   UNL     1       7.635   4.289  18.012  0.00  0.00    +0.000 OA
ATOM     17  H   UNL     1       7.704   3.383  18.374  0.00  0.00    +0.000 HD
ENDBRANCH  15  16
ENDBRANCH  13  15
ENDBRANCH   1  13
TORSDOF 4
ENDMDL
