MODEL 1
REMARK VINA RESULT:      -6.6      0.000      0.000
REMARK  Name = 
REMARK  3 active torsions:
REMARK  status: ('A' for Active; 'I' for Inactive)
REMARK    1  A    between atoms: C_1  and  C_2
REMARK    2  A    between atoms: C_2  and  C_3
REMARK    3  A    between atoms: C_3  and  N_4
REMARK                            x       y       z     vdW  Elec       q    Type
REMARK                         _______ _______ _______ _____ _____    ______ ____
ROOT
ATOM      1  N   UNL     1       3.527   4.179  19.695  0.00  0.00    +0.000 N 
ATOM      2  C   UNL     1       3.560   5.314  18.914  0.00  0.00    +0.000 A 
ATOM      3  C   UNL     1       4.534   5.564  18.036  0.00  0.00    +0.000 A 
ATOM      4  C   UNL     1       5.634   4.606  17.872  0.00  0.00    +0.000 A 
ATOM      5  S   UNL     1       6.939   4.753  16.836  0.00  0.00    +0.000 S 
ATOM      6  N   UNL     1       5.534   3.497  18.679  0.00  0.00    +0.000 N 
ATOM      7  C   UNL     1       4.543   3.223  19.599  0.00  0.00    +0.000 A 
ATOM      8  O   UNL     1       4.601   2.195  20.270  0.00  0.00    +0.000 OA
ATOM      9  C   UNL     1       4.373   6.865  17.337  0.00  0.00    +0.000 C 
ATOM     10  C   UNL     1       3.067   7.419  17.916  0.00  0.00    +0.000 C 
ATOM     11  C   UNL     1       2.561   6.420  18.964  0.00  0.00    +0.000 C 
ATOM     12  H   UNL     1       6.265   2.804  18.620  0.00  0.00    +0.000 HD
ENDROOT
BRANCH   1  13
ATOM     13  C   UNL     1       2.463   3.963  20.679  0.00  0.00    +0.000 C 
BRANCH  13  15
ATOM     14  C   UNL     1       1.082   2.510  19.085  0.00  0.00    +0.000 C 
ATOM     15  C   UNL     1       1.087   3.666  20.073  0.00  0.00    +0.000 C 
ENDBRANCH  13  15
ENDBRANCH   1  13
TORSDOF 2
ENDMDL
MODEL 2
REMARK VINA RESULT:      -6.5      1.305      1.448
REMARK  Name = 
REMARK  3 active torsions:
REMARK  status: ('A' for Active; 'I' for Inactive)
REMARK    1  A    between atoms: C_1  and  C_2
REMARK    2  A    between atoms: C_2  and  C_3
REMARK    3  A    between atoms: C_3  and  N_4
REMARK                            x       y       z     vdW  Elec       q    Type
REMARK                         _______ _______ _______ _____ _____    ______ ____
ROOT
ATOM      1  N   UNL     1       2.631   3.903  18.264  0.00  0.00    +0.000 N 
ATOM      2  C   UNL     1       3.058   5.179  17.962  0.00  0.00    +0.000 A 
ATOM      3  C   UNL     1       4.242   5.434  17.402  0.00  0.00    +0.000 A 
ATOM      4  C   UNL     1       5.153   4.328  17.081  0.00  0.00    +0.000 A 
ATOM      5  S   UNL     1       6.672   4.455  16.392  0.00  0.00    +0.000 S 
ATOM      6  N   UNL     1       4.661   3.087  17.406  0.00  0.00    +0.000 N 
ATOM      7  C   UNL     1       3.446   2.799  17.993  0.00  0.00    +0.000 A 
ATOM      8  O   UNL     1       3.151   1.634  18.248  0.00  0.00    +0.000 OA
ATOM      9  C   UNL     1       4.496   6.884  17.204  0.00  0.00    +0.000 C 
ATOM     10  C   UNL     1       3.215   7.542  17.727  0.00  0.00    +0.000 C 
ATOM     11  C   UNL     1       2.298   6.429  18.247  0.00  0.00    +0.000 C 
ATOM     12  H   UNL     1       5.244   2.285  17.219  0.00  0.00    +0.000 HD
ENDROOT
BRANCH   1  13
ATOM     13  C   UNL     1       1.341   3.668  18.920  0.00  0.00    +0.000 C 
BRANCH  13  15
ATOM     14  C   UNL     1       1.494   2.694  21.284  0.00  0.00    +0.000 C 
ATOM     15  C   UNL     1       1.335   3.941  20.427  0.00  0.00    +0.000 C 
ENDBRANCH  13  15
ENDBRANCH   1  13
TORSDOF 2
ENDMDL
MODEL 3
REMARK VINA RESULT:      -6.4      2.580      4.499
REMARK  Name = 
REMARK  3 active torsions:
REMARK  status: ('A' for Active; 'I' for Inactive)
REMARK    1  A    between atoms: C_1  and  C_2
REMARK    2  A    between atoms: C_2  and  C_3
REMARK    3  A    between atoms: C_3  and  N_4
REMARK                            x       y       z     vdW  Elec       q    Type
REMARK                         _______ _______ _______ _____ _____    ______ ____
ROOT
ATOM      1  N   UNL     1       6.084   5.827  17.790  0.00  0.00    +0.000 N 
ATOM      2  C   UNL     1       4.737   6.029  18.005  0.00  0.00    +0.000 A 
ATOM      3  C   UNL     1       3.947   5.115  18.572  0.00  0.00    +0.000 A 
ATOM      4  C   UNL     1       4.508   3.826  18.997  0.00  0.00    +0.000 A 
ATOM      5  S   UNL     1       3.676   2.563  19.710  0.00  0.00    +0.000 S 
ATOM      6  N   UNL     1       5.855   3.697  18.755  0.00  0.00    +0.000 N 
ATOM      7  C   UNL     1       6.688   4.622  18.162  0.00  0.00    +0.000 A 
ATOM      8  O   UNL     1       7.875   4.354  17.989  0.00  0.00    +0.000 OA
ATOM      9  C   UNL     1       2.528   5.545  18.666  0.00  0.00    +0.000 C 
ATOM     10  C   UNL     1       2.544   6.954  18.065  0.00  0.00    +0.000 C 
ATOM     11  C   UNL     1       3.978   7.250  17.609  0.00  0.00    +0.000 C 
ATOM     12  H   UNL     1       6.299   2.829  19.016  0.00  0.00    +0.000 HD
ENDROOT
BRANCH   1  13
ATOM     13  C   UNL     1       6.908   6.839  17.123  0.00  0.00    +0.000 C 
BRANCH  13  15
ATOM     14  C   UNL     1       7.998   9.064  17.775  0.00  0.00    +0.000 C 
ATOM     15  C   UNL     1       7.886   7.572  18.048  0.00  0.00    +0.000 C 
ENDBRANCH  13  15
ENDBRANCH   1  13
TORSDOF 2
ENDMDL
MODEL 4
REMARK VINA RESULT:      -5.9      3.243      4.883
REMARK  Name = 
REMARK  3 active torsions:
REMARK  status: ('A' for Active; 'I' for Inactive)
REMARK    1  A    between atoms: C_1  and  C_2
REMARK    2  A    between atoms: C_2  and  C_3
REMARK    3  A    between atoms: C_3  and  N_4
REMARK                            x       y       z     vdW  Elec       q    Type
REMARK                         _______ _______ _______ _____ _____    ______ ____
ROOT
ATOM      1  N   UNL     1       5.496   5.294  16.895  0.00  0.00    +0.000 N 
ATOM      2  C   UNL     1       4.269   4.758  17.224  0.00  0.00    +0.000 A 
ATOM      3  C   UNL     1       3.250   5.495  17.669  0.00  0.00    +0.000 A 
ATOM      4  C   UNL     1       3.411   6.946  17.826  0.00  0.00    +0.000 A 
ATOM      5  S   UNL     1       2.257   8.024  18.378  0.00  0.00    +0.000 S 
ATOM      6  N   UNL     1       4.657   7.411  17.476  0.00  0.00    +0.000 N 
ATOM      7  C   UNL     1       5.727   6.668  17.023  0.00  0.00    +0.000 A 
ATOM      8  O   UNL     1       6.793   7.223  16.771  0.00  0.00    +0.000 OA
ATOM      9  C   UNL     1       2.043   4.692  17.992  0.00  0.00    +0.000 C 
ATOM     10  C   UNL     1       2.465   3.262  17.641  0.00  0.00    +0.000 C 
ATOM     11  C   UNL     1       3.924   3.308  17.172  0.00  0.00    +0.000 C 
ATOM     12  H   UNL     1       4.834   8.400  17.570  0.00  0.00    +0.000 HD
ENDROOT
BRANCH   1  13
ATOM     13  C   UNL     1       6.604   4.444  16.451  0.00  0.00    +0.000 C 
BRANCH  13  15
ATOM     14  C   UNL     1       5.859   4.048  14.032  0.00  0.00    +0.000 C 
ATOM     15  C   UNL     1       6.945   4.568  14.962  0.00  0.00    +0.000 C 
ENDBRANCH  13  15
ENDBRANCH   1  13
TORSDOF 2
ENDMDL
MODEL 5
REMARK VINA RESULT:      -5.8      2.714      4.310
REMARK  Name = 
REMARK  3 active torsions:
REMARK  status: ('A' for Active; 'I' for Inactive)
REMARK    1  A    between atoms: C_1  and  C_2
REMARK    2  A    between atoms: C_2  and  C_3
REMARK    3  A    between atoms: C_3  and  N_4
REMARK                            x       y       z     vdW  Elec       q    Type
REMARK                         _______ _______ _______ _____ _____    ______ ____
ROOT
ATOM      1  N   UNL     1       5.551   5.621  16.831  0.00  0.00    +0.000 N 
ATOM      2  C   UNL     1       4.322   5.906  17.387  0.00  0.00    +0.000 A 
ATOM      3  C   UNL     1       3.438   4.962  17.718  0.00  0.00    +0.000 A 
ATOM      4  C   UNL     1       3.760   3.547  17.492  0.00  0.00    +0.000 A 
ATOM      5  S   UNL     1       2.780   2.235  17.830  0.00  0.00    +0.000 S 
ATOM      6  N   UNL     1       5.001   3.338  16.940  0.00  0.00    +0.000 N 
ATOM      7  C   UNL     1       5.926   4.297  16.581  0.00  0.00    +0.000 A 
ATOM      8  O   UNL     1       6.992   3.958  16.073  0.00  0.00    +0.000 OA
ATOM      9  C   UNL     1       2.172   5.511  18.266  0.00  0.00    +0.000 C 
ATOM     10  C   UNL     1       2.409   7.025  18.256  0.00  0.00    +0.000 C 
ATOM     11  C   UNL     1       3.797   7.275  17.654  0.00  0.00    +0.000 C 
ATOM     12  H   UNL     1       5.279   2.387  16.751  0.00  0.00    +0.000 HD
ENDROOT
BRANCH   1  13
ATOM     13  C   UNL     1       6.476   6.689  16.442  0.00  0.00    +0.000 C 
BRANCH  13  15
ATOM     14  C   UNL     1       7.709   6.229  18.639  0.00  0.00    +0.000 C 
ATOM     15  C   UNL     1       7.311   7.259  17.593  0.00  0.00    +0.000 C 
ENDBRANCH  13  15
ENDBRANCH   1  13
TORSDOF 2
ENDMDL
MODEL 6
REMARK VINA RESULT:      -5.8      2.094      2.976
REMARK  Name = 
REMARK  3 active torsions:
REMARK  status: ('A' for Active; 'I' for Inactive)
REMARK    1  A    between atoms: C_1  and  C_2
REMARK    2  A    between atoms: C_2  and  C_3
REMARK    3  A    between atoms: C_3  and  N_4
REMARK                            x       y       z     vdW  Elec       q    Type
REMARK                         _______ _______ _______ _____ _____    ______ ____
ROOT
ATOM      1  N   UNL     1       3.930   4.407  17.902  0.00  0.00    +0.000 N 
ATOM      2  C   UNL     1       4.974   4.392  17.002  0.00  0.00    +0.000 A 
ATOM      3  C   UNL     1       6.206   4.804  17.311  0.00  0.00    +0.000 A 
ATOM      4  C   UNL     1       6.493   5.300  18.663  0.00  0.00    +0.000 A 
ATOM      5  S   UNL     1       7.963   5.864  19.227  0.00  0.00    +0.000 S 
ATOM      6  N   UNL     1       5.408   5.282  19.506  0.00  0.00    +0.000 N 
ATOM      7  C   UNL     1       4.126   4.871  19.207  0.00  0.00    +0.000 A 
ATOM      8  O   UNL     1       3.247   4.936  20.063  0.00  0.00    +0.000 OA
ATOM      9  C   UNL     1       7.153   4.728  16.169  0.00  0.00    +0.000 C 
ATOM     10  C   UNL     1       6.297   4.151  15.037  0.00  0.00    +0.000 C 
ATOM     11  C   UNL     1       4.873   3.965  15.577  0.00  0.00    +0.000 C 
ATOM     12  H   UNL     1       5.537   5.619  20.448  0.00  0.00    +0.000 HD
ENDROOT
BRANCH   1  13
ATOM     13  C   UNL     1       2.581   3.988  17.510  0.00  0.00    +0.000 C 
BRANCH  13  15
ATOM     14  C   UNL     1       1.061   2.315  18.715  0.00  0.00    +0.000 C 
ATOM     15  C   UNL     1       2.262   2.518  17.804  0.00  0.00    +0.000 C 
ENDBRANCH  13  15
ENDBRANCH   1  13
TORSDOF 2
ENDMDL
MODEL 7
REMARK VINA RESULT:      -5.7      1.241      1.437
REMARK  Name = 
REMARK  3 active torsions:
REMARK  status: ('A' for Active; 'I' for Inactive)
REMARK    1  A    between atoms: C_1  and  C_2
REMARK    2  A    between atoms: C_2  and  C_3
REMARK    3  A    between atoms: C_3  and  N_4
REMARK                            x       y       z     vdW  Elec       q    Type
REMARK                         _______ _______ _______ _____ _____    ______ ____
ROOT
ATOM      1  N   UNL     1       3.163   5.009  19.776  0.00  0.00    +0.000 N 
ATOM      2  C   UNL     1       2.941   6.211  19.136  0.00  0.00    +0.000 A 
ATOM      3  C   UNL     1       3.561   6.558  18.007  0.00  0.00    +0.000 A 
ATOM      4  C   UNL     1       4.529   5.640  17.392  0.00  0.00    +0.000 A 
ATOM      5  S   UNL     1       5.405   5.906  15.993  0.00  0.00    +0.000 S 
ATOM      6  N   UNL     1       4.696   4.463  18.080  0.00  0.00    +0.000 N 
ATOM      7  C   UNL     1       4.075   4.087  19.253  0.00  0.00    +0.000 A 
ATOM      8  O   UNL     1       4.346   3.005  19.768  0.00  0.00    +0.000 OA
ATOM      9  C   UNL     1       3.186   7.912  17.525  0.00  0.00    +0.000 C 
ATOM     10  C   UNL     1       2.162   8.385  18.562  0.00  0.00    +0.000 C 
ATOM     11  C   UNL     1       2.031   7.286  19.623  0.00  0.00    +0.000 C 
ATOM     12  H   UNL     1       5.356   3.793  17.714  0.00  0.00    +0.000 HD
ENDROOT
BRANCH   1  13
ATOM     13  C   UNL     1       2.495   4.684  21.039  0.00  0.00    +0.000 C 
BRANCH  13  15
ATOM     14  C   UNL     1       1.402   2.435  21.595  0.00  0.00    +0.000 C 
ATOM     15  C   UNL     1       1.268   3.778  20.894  0.00  0.00    +0.000 C 
ENDBRANCH  13  15
ENDBRANCH   1  13
TORSDOF 2
ENDMDL
MODEL 8
REMARK VINA RESULT:      -5.7      2.036      2.782
REMARK  Name = 
REMARK  3 active torsions:
REMARK  status: ('A' for Active; 'I' for Inactive)
REMARK    1  A    between atoms: C_1  and  C_2
REMARK    2  A    between atoms: C_2  and  C_3
REMARK    3  A    between atoms: C_3  and  N_4
REMARK                            x       y       z     vdW  Elec       q    Type
REMARK                         _______ _______ _______ _____ _____    ______ ____
ROOT
ATOM      1  N   UNL     1       4.293   4.083  18.461  0.00  0.00    +0.000 N 
ATOM      2  C   UNL     1       5.498   4.738  18.325  0.00  0.00    +0.000 A 
ATOM      3  C   UNL     1       6.134   4.854  17.158  0.00  0.00    +0.000 A 
ATOM      4  C   UNL     1       5.550   4.269  15.945  0.00  0.00    +0.000 A 
ATOM      5  S   UNL     1       6.203   4.303  14.406  0.00  0.00    +0.000 S 
ATOM      6  N   UNL     1       4.348   3.636  16.154  0.00  0.00    +0.000 N 
ATOM      7  C   UNL     1       3.677   3.495  17.351  0.00  0.00    +0.000 A 
ATOM      8  O   UNL     1       2.616   2.878  17.388  0.00  0.00    +0.000 OA
ATOM      9  C   UNL     1       7.432   5.570  17.266  0.00  0.00    +0.000 C 
ATOM     10  C   UNL     1       7.513   5.932  18.753  0.00  0.00    +0.000 C 
ATOM     11  C   UNL     1       6.267   5.360  19.440  0.00  0.00    +0.000 C 
ATOM     12  H   UNL     1       3.898   3.204  15.361  0.00  0.00    +0.000 HD
ENDROOT
BRANCH   1  13
ATOM     13  C   UNL     1       3.647   3.939  19.769  0.00  0.00    +0.000 C 
BRANCH  13  15
ATOM     14  C   UNL     1       1.256   4.466  20.522  0.00  0.00    +0.000 C 
ATOM     15  C   UNL     1       2.605   5.017  20.085  0.00  0.00    +0.000 C 
ENDBRANCH  13  15
ENDBRANCH   1  13
TORSDOF 2
ENDMDL
MODEL 9
REMARK VINA RESULT:      -5.6      3.526      5.099
REMARK  Name = 
REMARK  3 active torsions:
REMARK  status: ('A' for Active; 'I' for Inactive)
REMARK    1  A    between atoms: C_1  and  C_2
REMARK    2  A    between atoms: C_2  and  C_3
REMARK    3  A    between atoms: C_3  and  N_4
REMARK                            x       y       z     vdW  Elec       q    Type
REMARK                         _______ _______ _______ _____ _____    ______ ____
ROOT
ATOM      1  N   UNL     1       5.819   4.680  15.615  0.00  0.00    +0.000 N 
ATOM      2  C   UNL     1       5.177   4.324  16.782  0.00  0.00    +0.000 A 
ATOM      3  C   UNL     1       5.689   4.553  17.992  0.00  0.00    +0.000 A 
ATOM      4  C   UNL     1       6.995   5.212  18.121  0.00  0.00    +0.000 A 
ATOM      5  S   UNL     1       7.796   5.569  19.544  0.00  0.00    +0.000 S 
ATOM      6  N   UNL     1       7.575   5.541  16.919  0.00  0.00    +0.000 N 
ATOM      7  C   UNL     1       7.069   5.306  15.657  0.00  0.00    +0.000 A 
ATOM      8  O   UNL     1       7.717   5.638  14.667  0.00  0.00    +0.000 OA
ATOM      9  C   UNL     1       4.833   4.049  19.096  0.00  0.00    +0.000 C 
ATOM     10  C   UNL     1       3.623   3.458  18.364  0.00  0.00    +0.000 C 
ATOM     11  C   UNL     1       3.869   3.612  16.859  0.00  0.00    +0.000 C 
ATOM     12  H   UNL     1       8.479   5.989  16.938  0.00  0.00    +0.000 HD
ENDROOT
BRANCH   1  13
ATOM     13  C   UNL     1       5.243   4.371  14.304  0.00  0.00    +0.000 C 
BRANCH  13  15
ATOM     14  C   UNL     1       5.519   3.179  12.053  0.00  0.00    +0.000 C 
ATOM     15  C   UNL     1       6.137   3.515  13.401  0.00  0.00    +0.000 C 
ENDBRANCH  13  15
ENDBRANCH   1  13
TORSDOF 2
ENDMDL
