MODEL 1
REMARK VINA RESULT:      -8.1      0.000      0.000
REMARK  Name = 
REMARK  10 active torsions:
REMARK  status: ('A' for Active; 'I' for Inactive)
REMARK    1  A    between atoms: S_2  and  O_4
REMARK    2  A    between atoms: S_2  and  O_5
REMARK    3  A    between atoms: O_5  and  C_6
REMARK    4  A    between atoms: C_6  and  C_7
REMARK    5  A    between atoms: C_11  and  O_12
REMARK    6  A    between atoms: O_12  and  C_13
REMARK    7  A    between atoms: C_13  and  C_14
REMARK    8  A    between atoms: C_20  and  O_21
REMARK    9  A    between atoms: O_21  and  S_22
REMARK   10  A    between atoms: S_22  and  O_25
REMARK                            x       y       z     vdW  Elec       q    Type
REMARK                         _______ _______ _______ _____ _____    ______ ____
ROOT
ATOM      1  C   UNL     1       3.944   4.647  18.638  0.00  0.00    +0.000 C 
ATOM      2  O   UNL     1       3.251   5.835  19.065  0.00  0.00    +0.000 OA
ATOM      3  C   UNL     1       2.930   6.717  17.987  0.00  0.00    +0.000 C 
ATOM      4  C   UNL     1       4.167   7.124  17.195  0.00  0.00    +0.000 C 
ATOM      5  C   UNL     1       4.941   5.880  16.746  0.00  0.00    +0.000 C 
ATOM      6  C   UNL     1       5.287   5.037  17.989  0.00  0.00    +0.000 C 
ENDROOT
BRANCH   1   7
ATOM      7  C   UNL     1       4.157   3.734  19.848  0.00  0.00    +0.000 C 
BRANCH   7   8
ATOM      8  O   UNL     1       3.017   2.898  20.012  0.00  0.00    +0.000 OA
BRANCH   8  10
ATOM      9  O   UNL     1       1.709   2.549  22.117  0.00  0.00    +0.000 OA
ATOM     10  S   UNL     1       1.844   3.443  20.988  0.00  0.00    +0.000 S 
ATOM     11  O   UNL     1       0.706   3.797  20.176  0.00  0.00    +0.000 OA
BRANCH  10  12
ATOM     12  O   UNL     1       2.454   4.812  21.574  0.00  0.00    +0.000 OA
ATOM     13  H   UNL     1       1.703   5.375  21.850  0.00  0.00    +0.000 HD
ENDBRANCH  10  12
ENDBRANCH   8  10
ENDBRANCH   7   8
ENDBRANCH   1   7
BRANCH   5  14
ATOM     14  O   UNL     1       6.088   6.287  16.007  0.00  0.00    +0.000 OA
BRANCH  14  15
ATOM     15  C   UNL     1       7.037   5.254  15.725  0.00  0.00    +0.000 C 
BRANCH  15  16
ATOM     16  C   UNL     1       6.830   4.752  14.319  0.00  0.00    +0.000 A 
ATOM     17  C   UNL     1       7.675   5.175  13.281  0.00  0.00    +0.000 A 
ATOM     18  C   UNL     1       7.493   4.701  11.979  0.00  0.00    +0.000 A 
ATOM     19  C   UNL     1       6.470   3.796  11.703  0.00  0.00    +0.000 A 
ATOM     20  C   UNL     1       5.629   3.364  12.725  0.00  0.00    +0.000 A 
ATOM     21  C   UNL     1       5.811   3.835  14.026  0.00  0.00    +0.000 A 
ENDBRANCH  15  16
ENDBRANCH  14  15
ENDBRANCH   5  14
BRANCH   6  22
ATOM     22  O   UNL     1       6.038   5.763  18.968  0.00  0.00    +0.000 OA
BRANCH  22  23
ATOM     23  S   UNL     1       7.660   5.674  19.031  0.00  0.00    +0.000 S 
ATOM     24  O   UNL     1       8.063   4.412  18.451  0.00  0.00    +0.000 OA
ATOM     25  O   UNL     1       8.236   6.946  18.674  0.00  0.00    +0.000 OA
BRANCH  23  26
ATOM     26  O   UNL     1       7.915   5.486  20.605  0.00  0.00    +0.000 OA
ATOM     27  H   UNL     1       8.327   6.311  20.931  0.00  0.00    +0.000 HD
ENDBRANCH  23  26
ENDBRANCH  22  23
ENDBRANCH   6  22
TORSDOF 10
ENDMDL
MODEL 2
REMARK VINA RESULT:      -8.0      0.292      1.008
REMARK  Name = 
REMARK  10 active torsions:
REMARK  status: ('A' for Active; 'I' for Inactive)
REMARK    1  A    between atoms: S_2  and  O_4
REMARK    2  A    between atoms: S_2  and  O_5
REMARK    3  A    between atoms: O_5  and  C_6
REMARK    4  A    between atoms: C_6  and  C_7
REMARK    5  A    between atoms: C_11  and  O_12
REMARK    6  A    between atoms: O_12  and  C_13
REMARK    7  A    between atoms: C_13  and  C_14
REMARK    8  A    between atoms: C_20  and  O_21
REMARK    9  A    between atoms: O_21  and  S_22
REMARK   10  A    between atoms: S_22  and  O_25
REMARK                            x       y       z     vdW  Elec       q    Type
REMARK                         _______ _______ _______ _____ _____    ______ ____
ROOT
ATOM      1  C   UNL     1       4.005   4.512  18.491  0.00  0.00    +0.000 C 
ATOM      2  O   UNL     1       3.267   5.671  18.923  0.00  0.00    +0.000 OA
ATOM      3  C   UNL     1       2.971   6.578  17.859  0.00  0.00    +0.000 C 
ATOM      4  C   UNL     1       4.230   7.036  17.132  0.00  0.00    +0.000 C 
ATOM      5  C   UNL     1       5.051   5.824  16.680  0.00  0.00    +0.000 C 
ATOM      6  C   UNL     1       5.365   4.952  17.911  0.00  0.00    +0.000 C 
ENDROOT
BRANCH   1   7
ATOM      7  C   UNL     1       4.188   3.568  19.681  0.00  0.00    +0.000 C 
BRANCH   7   8
ATOM      8  O   UNL     1       3.002   2.804  19.863  0.00  0.00    +0.000 OA
BRANCH   8  10
ATOM      9  O   UNL     1       2.559   2.426  22.297  0.00  0.00    +0.000 OA
ATOM     10  S   UNL     1       2.086   3.168  21.149  0.00  0.00    +0.000 S 
ATOM     11  O   UNL     1       0.701   3.122  20.748  0.00  0.00    +0.000 OA
BRANCH  10  12
ATOM     12  O   UNL     1       2.446   4.711  21.437  0.00  0.00    +0.000 OA
ATOM     13  H   UNL     1       1.672   5.116  21.876  0.00  0.00    +0.000 HD
ENDBRANCH  10  12
ENDBRANCH   8  10
ENDBRANCH   7   8
ENDBRANCH   1   7
BRANCH   5  14
ATOM     14  O   UNL     1       6.218   6.278  16.003  0.00  0.00    +0.000 OA
BRANCH  14  15
ATOM     15  C   UNL     1       7.184   5.268  15.696  0.00  0.00    +0.000 C 
BRANCH  15  16
ATOM     16  C   UNL     1       6.949   4.755  14.299  0.00  0.00    +0.000 A 
ATOM     17  C   UNL     1       5.935   3.818  14.045  0.00  0.00    +0.000 A 
ATOM     18  C   UNL     1       5.708   3.351  12.748  0.00  0.00    +0.000 A 
ATOM     19  C   UNL     1       6.485   3.820  11.691  0.00  0.00    +0.000 A 
ATOM     20  C   UNL     1       7.490   4.755  11.928  0.00  0.00    +0.000 A 
ATOM     21  C   UNL     1       7.717   5.223  13.223  0.00  0.00    +0.000 A 
ENDBRANCH  15  16
ENDBRANCH  14  15
ENDBRANCH   5  14
BRANCH   6  22
ATOM     22  O   UNL     1       6.057   5.663  18.941  0.00  0.00    +0.000 OA
BRANCH  22  23
ATOM     23  S   UNL     1       7.679   5.646  19.043  0.00  0.00    +0.000 S 
ATOM     24  O   UNL     1       8.150   4.397  18.487  0.00  0.00    +0.000 OA
ATOM     25  O   UNL     1       8.208   6.939  18.684  0.00  0.00    +0.000 OA
BRANCH  23  26
ATOM     26  O   UNL     1       7.905   5.487  20.625  0.00  0.00    +0.000 OA
ATOM     27  H   UNL     1       7.825   4.535  20.833  0.00  0.00    +0.000 HD
ENDBRANCH  23  26
ENDBRANCH  22  23
ENDBRANCH   6  22
TORSDOF 10
ENDMDL
MODEL 3
REMARK VINA RESULT:      -7.7      0.454      1.125
REMARK  Name = 
REMARK  10 active torsions:
REMARK  status: ('A' for Active; 'I' for Inactive)
REMARK    1  A    between atoms: S_2  and  O_4
REMARK    2  A    between atoms: S_2  and  O_5
REMARK    3  A    between atoms: O_5  and  C_6
REMARK    4  A    between atoms: C_6  and  C_7
REMARK    5  A    between atoms: C_11  and  O_12
REMARK    6  A    between atoms: O_12  and  C_13
REMARK    7  A    between atoms: C_13  and  C_14
REMARK    8  A    between atoms: C_20  and  O_21
REMARK    9  A    between atoms: O_21  and  S_22
REMARK   10  A    between atoms: S_22  and  O_25
REMARK                            x       y       z     vdW  Elec       q    Type
REMARK                         _______ _______ _______ _____ _____    ______ ____
ROOT
ATOM      1  C   UNL     1       3.945   4.505  18.392  0.00  0.00    +0.000 C 
ATOM      2  O   UNL     1       3.219   5.664  18.840  0.00  0.00    +0.000 OA
ATOM      3  C   UNL     1       3.000   6.626  17.805  0.00  0.00    +0.000 C 
ATOM      4  C   UNL     1       4.305   7.078  17.161  0.00  0.00    +0.000 C 
ATOM      5  C   UNL     1       5.114   5.863  16.694  0.00  0.00    +0.000 C 
ATOM      6  C   UNL     1       5.343   4.929  17.897  0.00  0.00    +0.000 C 
ENDROOT
BRANCH   1   7
ATOM      7  C   UNL     1       4.044   3.504  19.546  0.00  0.00    +0.000 C 
BRANCH   7   8
ATOM      8  O   UNL     1       3.083   3.837  20.540  0.00  0.00    +0.000 OA
BRANCH   8  10
ATOM      9  O   UNL     1       1.629   2.445  22.027  0.00  0.00    +0.000 OA
ATOM     10  S   UNL     1       1.785   2.874  20.655  0.00  0.00    +0.000 S 
ATOM     11  O   UNL     1       1.829   1.920  19.575  0.00  0.00    +0.000 OA
BRANCH  10  12
ATOM     12  O   UNL     1       0.556   3.871  20.358  0.00  0.00    +0.000 OA
ATOM     13  H   UNL     1       0.162   4.117  21.218  0.00  0.00    +0.000 HD
ENDBRANCH  10  12
ENDBRANCH   8  10
ENDBRANCH   7   8
ENDBRANCH   1   7
BRANCH   5  14
ATOM     14  O   UNL     1       6.324   6.312  16.094  0.00  0.00    +0.000 OA
BRANCH  14  15
ATOM     15  C   UNL     1       7.258   5.284  15.750  0.00  0.00    +0.000 C 
BRANCH  15  16
ATOM     16  C   UNL     1       6.950   4.766  14.368  0.00  0.00    +0.000 A 
ATOM     17  C   UNL     1       7.726   5.165  13.268  0.00  0.00    +0.000 A 
ATOM     18  C   UNL     1       7.449   4.676  11.989  0.00  0.00    +0.000 A 
ATOM     19  C   UNL     1       6.399   3.779  11.797  0.00  0.00    +0.000 A 
ATOM     20  C   UNL     1       5.626   3.372  12.881  0.00  0.00    +0.000 A 
ATOM     21  C   UNL     1       5.902   3.858  14.159  0.00  0.00    +0.000 A 
ENDBRANCH  15  16
ENDBRANCH  14  15
ENDBRANCH   5  14
BRANCH   6  22
ATOM     22  O   UNL     1       6.004   5.574  18.991  0.00  0.00    +0.000 OA
BRANCH  22  23
ATOM     23  S   UNL     1       7.592   5.367  19.264  0.00  0.00    +0.000 S 
ATOM     24  O   UNL     1       7.809   5.394  20.694  0.00  0.00    +0.000 OA
ATOM     25  O   UNL     1       8.113   4.348  18.388  0.00  0.00    +0.000 OA
BRANCH  23  26
ATOM     26  O   UNL     1       8.196   6.762  18.745  0.00  0.00    +0.000 OA
ATOM     27  H   UNL     1       8.855   7.055  19.405  0.00  0.00    +0.000 HD
ENDBRANCH  23  26
ENDBRANCH  22  23
ENDBRANCH   6  22
TORSDOF 10
ENDMDL
MODEL 4
REMARK VINA RESULT:      -7.4      0.462      1.512
REMARK  Name = 
REMARK  10 active torsions:
REMARK  status: ('A' for Active; 'I' for Inactive)
REMARK    1  A    between atoms: S_2  and  O_4
REMARK    2  A    between atoms: S_2  and  O_5
REMARK    3  A    between atoms: O_5  and  C_6
REMARK    4  A    between atoms: C_6  and  C_7
REMARK    5  A    between atoms: C_11  and  O_12
REMARK    6  A    between atoms: O_12  and  C_13
REMARK    7  A    between atoms: C_13  and  C_14
REMARK    8  A    between atoms: C_20  and  O_21
REMARK    9  A    between atoms: O_21  and  S_22
REMARK   10  A    between atoms: S_22  and  O_25
REMARK                            x       y       z     vdW  Elec       q    Type
REMARK                         _______ _______ _______ _____ _____    ______ ____
ROOT
ATOM      1  C   UNL     1       3.927   4.540  18.528  0.00  0.00    +0.000 C 
ATOM      2  O   UNL     1       3.148   5.673  18.953  0.00  0.00    +0.000 OA
ATOM      3  C   UNL     1       2.828   6.569  17.886  0.00  0.00    +0.000 C 
ATOM      4  C   UNL     1       4.075   7.069  17.167  0.00  0.00    +0.000 C 
ATOM      5  C   UNL     1       4.940   5.885  16.722  0.00  0.00    +0.000 C 
ATOM      6  C   UNL     1       5.275   5.025  17.956  0.00  0.00    +0.000 C 
ENDROOT
BRANCH   1   7
ATOM      7  C   UNL     1       4.134   3.604  19.720  0.00  0.00    +0.000 C 
BRANCH   7   8
ATOM      8  O   UNL     1       3.150   3.878  20.710  0.00  0.00    +0.000 OA
BRANCH   8  10
ATOM      9  O   UNL     1       1.944   1.908  19.746  0.00  0.00    +0.000 OA
ATOM     10  S   UNL     1       1.758   3.056  20.607  0.00  0.00    +0.000 S 
ATOM     11  O   UNL     1       0.690   3.997  20.376  0.00  0.00    +0.000 OA
BRANCH  10  12
ATOM     12  O   UNL     1       1.561   2.470  22.093  0.00  0.00    +0.000 OA
ATOM     13  H   UNL     1       0.603   2.328  22.229  0.00  0.00    +0.000 HD
ENDBRANCH  10  12
ENDBRANCH   8  10
ENDBRANCH   7   8
ENDBRANCH   1   7
BRANCH   5  14
ATOM     14  O   UNL     1       6.095   6.377  16.052  0.00  0.00    +0.000 OA
BRANCH  14  15
ATOM     15  C   UNL     1       7.080   5.395  15.719  0.00  0.00    +0.000 C 
BRANCH  15  16
ATOM     16  C   UNL     1       6.748   4.785  14.381  0.00  0.00    +0.000 A 
ATOM     17  C   UNL     1       5.561   4.056  14.205  0.00  0.00    +0.000 A 
ATOM     18  C   UNL     1       5.246   3.501  12.963  0.00  0.00    +0.000 A 
ATOM     19  C   UNL     1       6.109   3.673  11.882  0.00  0.00    +0.000 A 
ATOM     20  C   UNL     1       7.286   4.399  12.042  0.00  0.00    +0.000 A 
ATOM     21  C   UNL     1       7.602   4.955  13.282  0.00  0.00    +0.000 A 
ENDBRANCH  15  16
ENDBRANCH  14  15
ENDBRANCH   5  14
BRANCH   6  22
ATOM     22  O   UNL     1       5.936   5.761  18.991  0.00  0.00    +0.000 OA
BRANCH  22  23
ATOM     23  S   UNL     1       7.529   5.596  19.265  0.00  0.00    +0.000 S 
ATOM     24  O   UNL     1       8.211   6.700  18.626  0.00  0.00    +0.000 OA
ATOM     25  O   UNL     1       7.753   5.190  20.630  0.00  0.00    +0.000 OA
BRANCH  23  26
ATOM     26  O   UNL     1       7.887   4.326  18.350  0.00  0.00    +0.000 OA
ATOM     27  H   UNL     1       8.707   3.933  18.710  0.00  0.00    +0.000 HD
ENDBRANCH  23  26
ENDBRANCH  22  23
ENDBRANCH   6  22
TORSDOF 10
ENDMDL
MODEL 5
REMARK VINA RESULT:      -7.3      0.578      1.079
REMARK  Name = 
REMARK  10 active torsions:
REMARK  status: ('A' for Active; 'I' for Inactive)
REMARK    1  A    between atoms: S_2  and  O_4
REMARK    2  A    between atoms: S_2  and  O_5
REMARK    3  A    between atoms: O_5  and  C_6
REMARK    4  A    between atoms: C_6  and  C_7
REMARK    5  A    between atoms: C_11  and  O_12
REMARK    6  A    between atoms: O_12  and  C_13
REMARK    7  A    between atoms: C_13  and  C_14
REMARK    8  A    between atoms: C_20  and  O_21
REMARK    9  A    between atoms: O_21  and  S_22
REMARK   10  A    between atoms: S_22  and  O_25
REMARK                            x       y       z     vdW  Elec       q    Type
REMARK                         _______ _______ _______ _____ _____    ______ ____
ROOT
ATOM      1  C   UNL     1       3.786   4.864  19.019  0.00  0.00    +0.000 C 
ATOM      2  O   UNL     1       3.253   6.186  19.219  0.00  0.00    +0.000 OA
ATOM      3  C   UNL     1       3.039   6.897  17.997  0.00  0.00    +0.000 C 
ATOM      4  C   UNL     1       4.312   6.998  17.165  0.00  0.00    +0.000 C 
ATOM      5  C   UNL     1       4.919   5.607  16.955  0.00  0.00    +0.000 C 
ATOM      6  C   UNL     1       5.164   4.960  18.332  0.00  0.00    +0.000 C 
ENDROOT
BRANCH   1   7
ATOM      7  C   UNL     1       3.890   4.160  20.374  0.00  0.00    +0.000 C 
BRANCH   7   8
ATOM      8  O   UNL     1       3.040   3.019  20.377  0.00  0.00    +0.000 OA
BRANCH   8  10
ATOM      9  O   UNL     1       1.239   4.618  21.057  0.00  0.00    +0.000 OA
ATOM     10  S   UNL     1       1.561   3.209  21.010  0.00  0.00    +0.000 S 
ATOM     11  O   UNL     1       1.460   2.381  22.186  0.00  0.00    +0.000 OA
BRANCH  10  12
ATOM     12  O   UNL     1       0.594   2.568  19.894  0.00  0.00    +0.000 OA
ATOM     13  H   UNL     1       0.448   3.248  19.206  0.00  0.00    +0.000 HD
ENDBRANCH  10  12
ENDBRANCH   8  10
ENDBRANCH   7   8
ENDBRANCH   1   7
BRANCH   5  14
ATOM     14  O   UNL     1       6.102   5.728  16.173  0.00  0.00    +0.000 OA
BRANCH  14  15
ATOM     15  C   UNL     1       6.706   4.494  15.775  0.00  0.00    +0.000 C 
BRANCH  15  16
ATOM     16  C   UNL     1       6.845   4.465  14.274  0.00  0.00    +0.000 A 
ATOM     17  C   UNL     1       7.725   5.343  13.623  0.00  0.00    +0.000 A 
ATOM     18  C   UNL     1       7.865   5.308  12.233  0.00  0.00    +0.000 A 
ATOM     19  C   UNL     1       7.132   4.392  11.481  0.00  0.00    +0.000 A 
ATOM     20  C   UNL     1       6.260   3.511  12.116  0.00  0.00    +0.000 A 
ATOM     21  C   UNL     1       6.121   3.543  13.503  0.00  0.00    +0.000 A 
ENDBRANCH  15  16
ENDBRANCH  14  15
ENDBRANCH   5  14
BRANCH   6  22
ATOM     22  O   UNL     1       6.008   5.747  19.179  0.00  0.00    +0.000 OA
BRANCH  22  23
ATOM     23  S   UNL     1       7.627   5.645  19.094  0.00  0.00    +0.000 S 
ATOM     24  O   UNL     1       7.967   4.376  18.489  0.00  0.00    +0.000 OA
ATOM     25  O   UNL     1       8.178   6.910  18.676  0.00  0.00    +0.000 OA
BRANCH  23  26
ATOM     26  O   UNL     1       8.024   5.467  20.640  0.00  0.00    +0.000 OA
ATOM     27  H   UNL     1       8.887   5.909  20.769  0.00  0.00    +0.000 HD
ENDBRANCH  23  26
ENDBRANCH  22  23
ENDBRANCH   6  22
TORSDOF 10
ENDMDL
MODEL 6
REMARK VINA RESULT:      -7.3      1.092      1.625
REMARK  Name = 
REMARK  10 active torsions:
REMARK  status: ('A' for Active; 'I' for Inactive)
REMARK    1  A    between atoms: S_2  and  O_4
REMARK    2  A    between atoms: S_2  and  O_5
REMARK    3  A    between atoms: O_5  and  C_6
REMARK    4  A    between atoms: C_6  and  C_7
REMARK    5  A    between atoms: C_11  and  O_12
REMARK    6  A    between atoms: O_12  and  C_13
REMARK    7  A    between atoms: C_13  and  C_14
REMARK    8  A    between atoms: C_20  and  O_21
REMARK    9  A    between atoms: O_21  and  S_22
REMARK   10  A    between atoms: S_22  and  O_25
REMARK                            x       y       z     vdW  Elec       q    Type
REMARK                         _______ _______ _______ _____ _____    ______ ____
ROOT
ATOM      1  C   UNL     1       2.804   5.799  19.190  0.00  0.00    +0.000 C 
ATOM      2  O   UNL     1       2.770   7.231  19.330  0.00  0.00    +0.000 OA
ATOM      3  C   UNL     1       2.769   7.919  18.076  0.00  0.00    +0.000 C 
ATOM      4  C   UNL     1       3.965   7.534  17.213  0.00  0.00    +0.000 C 
ATOM      5  C   UNL     1       4.043   6.010  17.065  0.00  0.00    +0.000 C 
ATOM      6  C   UNL     1       4.102   5.379  18.470  0.00  0.00    +0.000 C 
ENDROOT
BRANCH   1   7
ATOM      7  C   UNL     1       2.709   5.162  20.579  0.00  0.00    +0.000 C 
BRANCH   7   8
ATOM      8  O   UNL     1       3.024   3.778  20.483  0.00  0.00    +0.000 OA
BRANCH   8  10
ATOM      9  O   UNL     1       1.788   2.293  22.074  0.00  0.00    +0.000 OA
ATOM     10  S   UNL     1       1.805   2.733  20.696  0.00  0.00    +0.000 S 
ATOM     11  O   UNL     1       1.824   1.784  19.610  0.00  0.00    +0.000 OA
BRANCH  10  12
ATOM     12  O   UNL     1       0.494   3.647  20.505  0.00  0.00    +0.000 OA
ATOM     13  H   UNL     1       0.783   4.581  20.506  0.00  0.00    +0.000 HD
ENDBRANCH  10  12
ENDBRANCH   8  10
ENDBRANCH   7   8
ENDBRANCH   1   7
BRANCH   5  14
ATOM     14  O   UNL     1       5.164   5.678  16.254  0.00  0.00    +0.000 OA
BRANCH  14  15
ATOM     15  C   UNL     1       5.164   4.352  15.717  0.00  0.00    +0.000 C 
BRANCH  15  16
ATOM     16  C   UNL     1       5.924   4.337  14.416  0.00  0.00    +0.000 A 
ATOM     17  C   UNL     1       7.093   5.099  14.264  0.00  0.00    +0.000 A 
ATOM     18  C   UNL     1       7.805   5.076  13.063  0.00  0.00    +0.000 A 
ATOM     19  C   UNL     1       7.362   4.287  12.003  0.00  0.00    +0.000 A 
ATOM     20  C   UNL     1       6.207   3.521  12.143  0.00  0.00    +0.000 A 
ATOM     21  C   UNL     1       5.496   3.542  13.342  0.00  0.00    +0.000 A 
ENDBRANCH  15  16
ENDBRANCH  14  15
ENDBRANCH   5  14
BRANCH   6  22
ATOM     22  O   UNL     1       5.198   5.858  19.255  0.00  0.00    +0.000 OA
BRANCH  22  23
ATOM     23  S   UNL     1       6.694   5.248  19.085  0.00  0.00    +0.000 S 
ATOM     24  O   UNL     1       7.439   5.541  20.290  0.00  0.00    +0.000 OA
ATOM     25  O   UNL     1       6.627   3.943  18.476  0.00  0.00    +0.000 OA
BRANCH  23  26
ATOM     26  O   UNL     1       7.324   6.231  17.982  0.00  0.00    +0.000 OA
ATOM     27  H   UNL     1       8.086   5.766  17.582  0.00  0.00    +0.000 HD
ENDBRANCH  23  26
ENDBRANCH  22  23
ENDBRANCH   6  22
TORSDOF 10
ENDMDL
MODEL 7
REMARK VINA RESULT:      -7.3      2.871      6.826
REMARK  Name = 
REMARK  10 active torsions:
REMARK  status: ('A' for Active; 'I' for Inactive)
REMARK    1  A    between atoms: S_2  and  O_4
REMARK    2  A    between atoms: S_2  and  O_5
REMARK    3  A    between atoms: O_5  and  C_6
REMARK    4  A    between atoms: C_6  and  C_7
REMARK    5  A    between atoms: C_11  and  O_12
REMARK    6  A    between atoms: O_12  and  C_13
REMARK    7  A    between atoms: C_13  and  C_14
REMARK    8  A    between atoms: C_20  and  O_21
REMARK    9  A    between atoms: O_21  and  S_22
REMARK   10  A    between atoms: S_22  and  O_25
REMARK                            x       y       z     vdW  Elec       q    Type
REMARK                         _______ _______ _______ _____ _____    ______ ____
ROOT
ATOM      1  C   UNL     1       4.216   3.780  16.799  0.00  0.00    +0.000 C 
ATOM      2  O   UNL     1       3.636   2.786  17.662  0.00  0.00    +0.000 OA
ATOM      3  C   UNL     1       2.382   3.187  18.219  0.00  0.00    +0.000 C 
ATOM      4  C   UNL     1       2.491   4.501  18.983  0.00  0.00    +0.000 C 
ATOM      5  C   UNL     1       3.130   5.577  18.098  0.00  0.00    +0.000 C 
ATOM      6  C   UNL     1       4.497   5.065  17.606  0.00  0.00    +0.000 C 
ENDROOT
BRANCH   1   7
ATOM      7  C   UNL     1       5.501   3.218  16.186  0.00  0.00    +0.000 C 
BRANCH   7   8
ATOM      8  O   UNL     1       5.622   3.676  14.845  0.00  0.00    +0.000 OA
BRANCH   8  10
ATOM      9  O   UNL     1       7.017   4.849  13.130  0.00  0.00    +0.000 OA
ATOM     10  S   UNL     1       6.759   4.793  14.552  0.00  0.00    +0.000 S 
ATOM     11  O   UNL     1       7.830   4.611  15.499  0.00  0.00    +0.000 OA
BRANCH  10  12
ATOM     12  O   UNL     1       6.025   6.177  14.925  0.00  0.00    +0.000 OA
ATOM     13  H   UNL     1       5.066   5.997  14.977  0.00  0.00    +0.000 HD
ENDBRANCH  10  12
ENDBRANCH   8  10
ENDBRANCH   7   8
ENDBRANCH   1   7
BRANCH   5  14
ATOM     14  O   UNL     1       3.217   6.792  18.833  0.00  0.00    +0.000 OA
BRANCH  14  15
ATOM     15  C   UNL     1       2.593   7.926  18.224  0.00  0.00    +0.000 C 
BRANCH  15  16
ATOM     16  C   UNL     1       1.651   8.570  19.209  0.00  0.00    +0.000 A 
ATOM     17  C   UNL     1       0.844   9.651  18.820  0.00  0.00    +0.000 A 
ATOM     18  C   UNL     1      -0.039  10.241  19.728  0.00  0.00    +0.000 A 
ATOM     19  C   UNL     1      -0.130   9.753  21.031  0.00  0.00    +0.000 A 
ATOM     20  C   UNL     1       0.661   8.678  21.427  0.00  0.00    +0.000 A 
ATOM     21  C   UNL     1       1.541   8.086  20.520  0.00  0.00    +0.000 A 
ENDBRANCH  15  16
ENDBRANCH  14  15
ENDBRANCH   5  14
BRANCH   6  22
ATOM     22  O   UNL     1       5.382   4.712  18.673  0.00  0.00    +0.000 OA
BRANCH  22  23
ATOM     23  S   UNL     1       6.842   5.407  18.831  0.00  0.00    +0.000 S 
ATOM     24  O   UNL     1       6.911   6.521  17.911  0.00  0.00    +0.000 OA
ATOM     25  O   UNL     1       7.200   5.489  20.225  0.00  0.00    +0.000 OA
BRANCH  23  26
ATOM     26  O   UNL     1       7.804   4.297  18.182  0.00  0.00    +0.000 OA
ATOM     27  H   UNL     1       7.244   3.717  17.629  0.00  0.00    +0.000 HD
ENDBRANCH  23  26
ENDBRANCH  22  23
ENDBRANCH   6  22
TORSDOF 10
ENDMDL
MODEL 8
REMARK VINA RESULT:      -7.3      1.012      1.631
REMARK  Name = 
REMARK  10 active torsions:
REMARK  status: ('A' for Active; 'I' for Inactive)
REMARK    1  A    between atoms: S_2  and  O_4
REMARK    2  A    between atoms: S_2  and  O_5
REMARK    3  A    between atoms: O_5  and  C_6
REMARK    4  A    between atoms: C_6  and  C_7
REMARK    5  A    between atoms: C_11  and  O_12
REMARK    6  A    between atoms: O_12  and  C_13
REMARK    7  A    between atoms: C_13  and  C_14
REMARK    8  A    between atoms: C_20  and  O_21
REMARK    9  A    between atoms: O_21  and  S_22
REMARK   10  A    between atoms: S_22  and  O_25
REMARK                            x       y       z     vdW  Elec       q    Type
REMARK                         _______ _______ _______ _____ _____    ______ ____
ROOT
ATOM      1  C   UNL     1       3.023   5.545  19.324  0.00  0.00    +0.000 C 
ATOM      2  O   UNL     1       2.853   6.974  19.382  0.00  0.00    +0.000 OA
ATOM      3  C   UNL     1       2.741   7.580  18.092  0.00  0.00    +0.000 C 
ATOM      4  C   UNL     1       3.939   7.260  17.205  0.00  0.00    +0.000 C 
ATOM      5  C   UNL     1       4.162   5.746  17.142  0.00  0.00    +0.000 C 
ATOM      6  C   UNL     1       4.331   5.210  18.577  0.00  0.00    +0.000 C 
ENDROOT
BRANCH   1   7
ATOM      7  C   UNL     1       3.039   4.988  20.749  0.00  0.00    +0.000 C 
BRANCH   7   8
ATOM      8  O   UNL     1       1.809   4.322  21.007  0.00  0.00    +0.000 OA
BRANCH   8  10
ATOM      9  O   UNL     1       1.535   2.081  19.927  0.00  0.00    +0.000 OA
ATOM     10  S   UNL     1       1.871   2.713  21.184  0.00  0.00    +0.000 S 
ATOM     11  O   UNL     1       1.185   2.363  22.403  0.00  0.00    +0.000 OA
BRANCH  10  12
ATOM     12  O   UNL     1       3.437   2.425  21.422  0.00  0.00    +0.000 OA
ATOM     13  H   UNL     1       3.718   1.760  20.763  0.00  0.00    +0.000 HD
ENDBRANCH  10  12
ENDBRANCH   8  10
ENDBRANCH   7   8
ENDBRANCH   1   7
BRANCH   5  14
ATOM     14  O   UNL     1       5.282   5.474  16.307  0.00  0.00    +0.000 OA
BRANCH  14  15
ATOM     15  C   UNL     1       5.295   4.182  15.694  0.00  0.00    +0.000 C 
BRANCH  15  16
ATOM     16  C   UNL     1       6.034   4.255  14.383  0.00  0.00    +0.000 A 
ATOM     17  C   UNL     1       5.613   3.488  13.285  0.00  0.00    +0.000 A 
ATOM     18  C   UNL     1       6.289   3.564  12.064  0.00  0.00    +0.000 A 
ATOM     19  C   UNL     1       7.387   4.411  11.926  0.00  0.00    +0.000 A 
ATOM     20  C   UNL     1       7.810   5.182  13.006  0.00  0.00    +0.000 A 
ATOM     21  C   UNL     1       7.135   5.108  14.225  0.00  0.00    +0.000 A 
ENDBRANCH  15  16
ENDBRANCH  14  15
ENDBRANCH   5  14
BRANCH   6  22
ATOM     22  O   UNL     1       5.400   5.840  19.289  0.00  0.00    +0.000 OA
BRANCH  22  23
ATOM     23  S   UNL     1       6.955   5.530  18.934  0.00  0.00    +0.000 S 
ATOM     24  O   UNL     1       7.053   4.150  18.512  0.00  0.00    +0.000 OA
ATOM     25  O   UNL     1       7.524   6.638  18.208  0.00  0.00    +0.000 OA
BRANCH  23  26
ATOM     26  O   UNL     1       7.632   5.548  20.390  0.00  0.00    +0.000 OA
ATOM     27  H   UNL     1       8.335   6.228  20.374  0.00  0.00    +0.000 HD
ENDBRANCH  23  26
ENDBRANCH  22  23
ENDBRANCH   6  22
TORSDOF 10
ENDMDL
MODEL 9
REMARK VINA RESULT:      -7.2      3.440      8.023
REMARK  Name = 
REMARK  10 active torsions:
REMARK  status: ('A' for Active; 'I' for Inactive)
REMARK    1  A    between atoms: S_2  and  O_4
REMARK    2  A    between atoms: S_2  and  O_5
REMARK    3  A    between atoms: O_5  and  C_6
REMARK    4  A    between atoms: C_6  and  C_7
REMARK    5  A    between atoms: C_11  and  O_12
REMARK    6  A    between atoms: O_12  and  C_13
REMARK    7  A    between atoms: C_13  and  C_14
REMARK    8  A    between atoms: C_20  and  O_21
REMARK    9  A    between atoms: O_21  and  S_22
REMARK   10  A    between atoms: S_22  and  O_25
REMARK                            x       y       z     vdW  Elec       q    Type
REMARK                         _______ _______ _______ _____ _____    ______ ____
ROOT
ATOM      1  C   UNL     1       4.380   5.782  18.923  0.00  0.00    +0.000 C 
ATOM      2  O   UNL     1       4.184   6.220  17.566  0.00  0.00    +0.000 OA
ATOM      3  C   UNL     1       3.605   7.524  17.474  0.00  0.00    +0.000 C 
ATOM      4  C   UNL     1       2.279   7.614  18.218  0.00  0.00    +0.000 C 
ATOM      5  C   UNL     1       2.448   7.130  19.662  0.00  0.00    +0.000 C 
ATOM      6  C   UNL     1       3.017   5.698  19.641  0.00  0.00    +0.000 C 
ENDROOT
BRANCH   1   7
ATOM      7  C   UNL     1       5.084   4.424  18.911  0.00  0.00    +0.000 C 
BRANCH   7   8
ATOM      8  O   UNL     1       5.883   4.320  17.738  0.00  0.00    +0.000 OA
BRANCH   8  10
ATOM      9  O   UNL     1       8.245   4.163  16.926  0.00  0.00    +0.000 OA
ATOM     10  S   UNL     1       7.390   4.908  17.824  0.00  0.00    +0.000 S 
ATOM     11  O   UNL     1       7.734   5.077  19.214  0.00  0.00    +0.000 OA
BRANCH  10  12
ATOM     12  O   UNL     1       7.252   6.380  17.188  0.00  0.00    +0.000 OA
ATOM     13  H   UNL     1       6.674   6.903  17.778  0.00  0.00    +0.000 HD
ENDBRANCH  10  12
ENDBRANCH   8  10
ENDBRANCH   7   8
ENDBRANCH   1   7
BRANCH   5  14
ATOM     14  O   UNL     1       1.197   7.227  20.335  0.00  0.00    +0.000 OA
BRANCH  14  15
ATOM     15  C   UNL     1       1.248   7.781  21.653  0.00  0.00    +0.000 C 
BRANCH  15  16
ATOM     16  C   UNL     1       0.399   9.026  21.707  0.00  0.00    +0.000 A 
ATOM     17  C   UNL     1      -0.123   9.479  22.929  0.00  0.00    +0.000 A 
ATOM     18  C   UNL     1      -0.899  10.639  22.983  0.00  0.00    +0.000 A 
ATOM     19  C   UNL     1      -1.157  11.362  21.820  0.00  0.00    +0.000 A 
ATOM     20  C   UNL     1      -0.639  10.926  20.602  0.00  0.00    +0.000 A 
ATOM     21  C   UNL     1       0.138   9.769  20.547  0.00  0.00    +0.000 A 
ENDBRANCH  15  16
ENDBRANCH  14  15
ENDBRANCH   5  14
BRANCH   6  22
ATOM     22  O   UNL     1       2.203   4.782  18.903  0.00  0.00    +0.000 OA
BRANCH  22  23
ATOM     23  S   UNL     1       1.527   3.485  19.612  0.00  0.00    +0.000 S 
ATOM     24  O   UNL     1       0.793   2.753  18.605  0.00  0.00    +0.000 OA
ATOM     25  O   UNL     1       2.465   2.880  20.526  0.00  0.00    +0.000 OA
BRANCH  23  26
ATOM     26  O   UNL     1       0.388   4.165  20.518  0.00  0.00    +0.000 OA
ATOM     27  H   UNL     1      -0.041   4.854  19.973  0.00  0.00    +0.000 HD
ENDBRANCH  23  26
ENDBRANCH  22  23
ENDBRANCH   6  22
TORSDOF 10
ENDMDL
