MODEL 1
REMARK VINA RESULT:      -7.5      0.000      0.000
REMARK  Name = 
REMARK  6 active torsions:
REMARK  status: ('A' for Active; 'I' for Inactive)
REMARK    1  A    between atoms: C_1  and  O_2
REMARK    2  A    between atoms: O_2  and  C_3
REMARK    3  A    between atoms: C_7  and  O_8
REMARK    4  A    between atoms: O_8  and  C_9
REMARK    5  A    between atoms: C_12  and  C_13
REMARK    6  A    between atoms: N_19  and  C_20
REMARK                            x       y       z     vdW  Elec       q    Type
REMARK                         _______ _______ _______ _____ _____    ______ ____
ROOT
ATOM      1  C   UNL     1       0.722   8.846  19.328  0.00  0.00    +0.000 C 
ATOM      2  C   UNL     1       1.130   8.574  20.767  0.00  0.00    +0.000 C 
ATOM      3  N   UNL     1       2.069   7.450  20.709  0.00  0.00    +0.000 NA
ATOM      4  C   UNL     1       2.770   7.514  19.389  0.00  0.00    +0.000 C 
ATOM      5  C   UNL     1       1.986   8.524  18.553  0.00  0.00    +0.000 C 
ATOM      6  H   UNL     1       1.553   6.560  20.724  0.00  0.00    +0.000 HD
ENDROOT
BRANCH   4   7
ATOM      7  C   UNL     1       2.840   6.079  18.774  0.00  0.00    +0.000 C 
ATOM      8  O   UNL     1       1.892   5.307  18.970  0.00  0.00    +0.000 OA
ATOM      9  N   UNL     1       3.952   5.682  17.997  0.00  0.00    +0.000 N 
ATOM     10  C   UNL     1       4.989   6.625  17.593  0.00  0.00    +0.000 C 
ATOM     11  C   UNL     1       6.449   6.188  17.536  0.00  0.00    +0.000 C 
ATOM     12  C   UNL     1       6.852   4.786  17.103  0.00  0.00    +0.000 C 
ATOM     13  N   UNL     1       6.031   4.053  16.151  0.00  0.00    +0.000 NA
ATOM     14  C   UNL     1       4.797   3.572  16.772  0.00  0.00    +0.000 C 
ATOM     15  C   UNL     1       3.670   4.562  17.085  0.00  0.00    +0.000 C 
BRANCH  13  16
ATOM     16  C   UNL     1       5.875   4.717  14.853  0.00  0.00    +0.000 C 
ATOM     17  C   UNL     1       7.281   4.871  14.204  0.00  0.00    +0.000 C 
ATOM     18  C   UNL     1       6.672   4.366  12.886  0.00  0.00    +0.000 C 
ATOM     19  C   UNL     1       5.571   3.690  13.729  0.00  0.00    +0.000 C 
ENDBRANCH  13  16
ENDBRANCH   4   7
BRANCH   1  20
ATOM     20  O   UNL     1       0.346  10.221  19.150  0.00  0.00    +0.000 OA
BRANCH  20  25
ATOM     21  C   UNL     1      -2.561  10.073  16.850  0.00  0.00    +0.000 A 
ATOM     22  C   UNL     1      -3.379  11.029  17.461  0.00  0.00    +0.000 A 
ATOM     23  C   UNL     1      -2.933  11.700  18.597  0.00  0.00    +0.000 A 
ATOM     24  C   UNL     1      -1.678  11.419  19.136  0.00  0.00    +0.000 A 
ATOM     25  C   UNL     1      -0.844  10.468  18.518  0.00  0.00    +0.000 A 
ATOM     26  C   UNL     1      -1.284   9.851  17.357  0.00  0.00    +0.000 A 
BRANCH  21  28
ATOM     27  C   UNL     1      -3.365  10.341  14.656  0.00  0.00    +0.000 C 
ATOM     28  O   UNL     1      -3.066   9.445  15.736  0.00  0.00    +0.000 OA
ENDBRANCH  21  28
ENDBRANCH  20  25
ENDBRANCH   1  20
TORSDOF 5
ENDMDL
MODEL 2
REMARK VINA RESULT:      -7.4      1.140      1.864
REMARK  Name = 
REMARK  6 active torsions:
REMARK  status: ('A' for Active; 'I' for Inactive)
REMARK    1  A    between atoms: C_1  and  O_2
REMARK    2  A    between atoms: O_2  and  C_3
REMARK    3  A    between atoms: C_7  and  O_8
REMARK    4  A    between atoms: O_8  and  C_9
REMARK    5  A    between atoms: C_12  and  C_13
REMARK    6  A    between atoms: N_19  and  C_20
REMARK                            x       y       z     vdW  Elec       q    Type
REMARK                         _______ _______ _______ _____ _____    ______ ____
ROOT
ATOM      1  C   UNL     1       0.932   8.931  18.620  0.00  0.00    +0.000 C 
ATOM      2  C   UNL     1       1.228   8.727  20.097  0.00  0.00    +0.000 C 
ATOM      3  N   UNL     1       2.163   7.600  20.163  0.00  0.00    +0.000 NA
ATOM      4  C   UNL     1       2.962   7.599  18.899  0.00  0.00    +0.000 C 
ATOM      5  C   UNL     1       2.249   8.570  17.959  0.00  0.00    +0.000 C 
ATOM      6  H   UNL     1       1.641   6.712  20.181  0.00  0.00    +0.000 HD
ENDROOT
BRANCH   4   7
ATOM      7  C   UNL     1       3.070   6.136  18.360  0.00  0.00    +0.000 C 
ATOM      8  O   UNL     1       2.153   5.344  18.617  0.00  0.00    +0.000 OA
ATOM      9  N   UNL     1       4.179   5.736  17.581  0.00  0.00    +0.000 N 
ATOM     10  C   UNL     1       5.175   6.691  17.105  0.00  0.00    +0.000 C 
ATOM     11  C   UNL     1       6.648   6.301  17.040  0.00  0.00    +0.000 C 
ATOM     12  C   UNL     1       7.090   4.892  16.673  0.00  0.00    +0.000 C 
ATOM     13  N   UNL     1       6.277   4.081  15.779  0.00  0.00    +0.000 NA
ATOM     14  C   UNL     1       5.073   3.593  16.451  0.00  0.00    +0.000 C 
ATOM     15  C   UNL     1       3.919   4.560  16.735  0.00  0.00    +0.000 C 
BRANCH  13  16
ATOM     16  C   UNL     1       6.073   4.669  14.451  0.00  0.00    +0.000 C 
ATOM     17  C   UNL     1       7.463   4.895  13.791  0.00  0.00    +0.000 C 
ATOM     18  C   UNL     1       6.893   4.285  12.500  0.00  0.00    +0.000 C 
ATOM     19  C   UNL     1       5.845   3.570  13.379  0.00  0.00    +0.000 C 
ENDBRANCH  13  16
ENDBRANCH   4   7
BRANCH   1  20
ATOM     20  O   UNL     1       0.578  10.297  18.349  0.00  0.00    +0.000 OA
BRANCH  20  25
ATOM     21  C   UNL     1      -2.700  11.847  19.132  0.00  0.00    +0.000 A 
ATOM     22  C   UNL     1      -3.481  11.227  18.152  0.00  0.00    +0.000 A 
ATOM     23  C   UNL     1      -2.902  10.307  17.281  0.00  0.00    +0.000 A 
ATOM     24  C   UNL     1      -1.543  10.005  17.375  0.00  0.00    +0.000 A 
ATOM     25  C   UNL     1      -0.754  10.615  18.369  0.00  0.00    +0.000 A 
ATOM     26  C   UNL     1      -1.362  11.486  19.260  0.00  0.00    +0.000 A 
BRANCH  21  28
ATOM     27  C   UNL     1      -4.761  12.594  19.983  0.00  0.00    +0.000 C 
ATOM     28  O   UNL     1      -3.336  12.749  19.953  0.00  0.00    +0.000 OA
ENDBRANCH  21  28
ENDBRANCH  20  25
ENDBRANCH   1  20
TORSDOF 5
ENDMDL
MODEL 3
REMARK VINA RESULT:      -7.1      3.635      9.854
REMARK  Name = 
REMARK  6 active torsions:
REMARK  status: ('A' for Active; 'I' for Inactive)
REMARK    1  A    between atoms: C_1  and  O_2
REMARK    2  A    between atoms: O_2  and  C_3
REMARK    3  A    between atoms: C_7  and  O_8
REMARK    4  A    between atoms: O_8  and  C_9
REMARK    5  A    between atoms: C_12  and  C_13
REMARK    6  A    between atoms: N_19  and  C_20
REMARK                            x       y       z     vdW  Elec       q    Type
REMARK                         _______ _______ _______ _____ _____    ______ ____
ROOT
ATOM      1  C   UNL     1       1.913   7.688  18.692  0.00  0.00    +0.000 C 
ATOM      2  C   UNL     1       2.612   8.491  17.607  0.00  0.00    +0.000 C 
ATOM      3  N   UNL     1       1.933   9.789  17.573  0.00  0.00    +0.000 NA
ATOM      4  C   UNL     1       1.418  10.068  18.949  0.00  0.00    +0.000 C 
ATOM      5  C   UNL     1       1.543   8.750  19.711  0.00  0.00    +0.000 C 
ATOM      6  H   UNL     1       1.110   9.739  16.956  0.00  0.00    +0.000 HD
ENDROOT
BRANCH   4   7
ATOM      7  C   UNL     1      -0.039  10.623  18.850  0.00  0.00    +0.000 C 
ATOM      8  O   UNL     1      -0.778  10.186  17.957  0.00  0.00    +0.000 OA
ATOM      9  N   UNL     1      -0.507  11.587  19.772  0.00  0.00    +0.000 N 
ATOM     10  C   UNL     1       0.272  11.979  20.942  0.00  0.00    +0.000 C 
ATOM     11  C   UNL     1       0.267  13.426  21.423  0.00  0.00    +0.000 C 
ATOM     12  C   UNL     1      -0.979  14.297  21.336  0.00  0.00    +0.000 C 
ATOM     13  N   UNL     1      -2.300  13.693  21.427  0.00  0.00    +0.000 NA
ATOM     14  C   UNL     1      -2.642  12.976  20.199  0.00  0.00    +0.000 C 
ATOM     15  C   UNL     1      -1.973  11.631  19.895  0.00  0.00    +0.000 C 
BRANCH  13  16
ATOM     16  C   UNL     1      -2.546  12.970  22.678  0.00  0.00    +0.000 C 
ATOM     17  C   UNL     1      -2.496  13.986  23.855  0.00  0.00    +0.000 C 
ATOM     18  C   UNL     1      -3.778  13.338  24.403  0.00  0.00    +0.000 C 
ATOM     19  C   UNL     1      -4.067  12.850  22.968  0.00  0.00    +0.000 C 
ENDBRANCH  13  16
ENDBRANCH   4   7
BRANCH   1  20
ATOM     20  O   UNL     1       2.798   6.713  19.264  0.00  0.00    +0.000 OA
BRANCH  20  25
ATOM     21  C   UNL     1       2.144   3.098  18.745  0.00  0.00    +0.000 A 
ATOM     22  C   UNL     1       1.374   2.844  19.885  0.00  0.00    +0.000 A 
ATOM     23  C   UNL     1       1.085   3.878  20.772  0.00  0.00    +0.000 A 
ATOM     24  C   UNL     1       1.564   5.166  20.536  0.00  0.00    +0.000 A 
ATOM     25  C   UNL     1       2.327   5.432  19.383  0.00  0.00    +0.000 A 
ATOM     26  C   UNL     1       2.558   4.402  18.485  0.00  0.00    +0.000 A 
BRANCH  21  28
ATOM     27  C   UNL     1       3.735   1.526  18.018  0.00  0.00    +0.000 C 
ATOM     28  O   UNL     1       2.396   2.031  17.917  0.00  0.00    +0.000 OA
ENDBRANCH  21  28
ENDBRANCH  20  25
ENDBRANCH   1  20
TORSDOF 5
ENDMDL
MODEL 4
REMARK VINA RESULT:      -7.1      3.748      9.960
REMARK  Name = 
REMARK  6 active torsions:
REMARK  status: ('A' for Active; 'I' for Inactive)
REMARK    1  A    between atoms: C_1  and  O_2
REMARK    2  A    between atoms: O_2  and  C_3
REMARK    3  A    between atoms: C_7  and  O_8
REMARK    4  A    between atoms: O_8  and  C_9
REMARK    5  A    between atoms: C_12  and  C_13
REMARK    6  A    between atoms: N_19  and  C_20
REMARK                            x       y       z     vdW  Elec       q    Type
REMARK                         _______ _______ _______ _____ _____    ______ ____
ROOT
ATOM      1  C   UNL     1       1.819   8.054  18.669  0.00  0.00    +0.000 C 
ATOM      2  C   UNL     1       2.491   8.873  17.578  0.00  0.00    +0.000 C 
ATOM      3  N   UNL     1       1.829  10.181  17.599  0.00  0.00    +0.000 NA
ATOM      4  C   UNL     1       1.368  10.434  18.999  0.00  0.00    +0.000 C 
ATOM      5  C   UNL     1       1.502   9.097  19.725  0.00  0.00    +0.000 C 
ATOM      6  H   UNL     1       0.985  10.157  17.011  0.00  0.00    +0.000 HD
ENDROOT
BRANCH   4   7
ATOM      7  C   UNL     1      -0.084  11.011  18.965  0.00  0.00    +0.000 C 
ATOM      8  O   UNL     1      -0.849  10.632  18.066  0.00  0.00    +0.000 OA
ATOM      9  N   UNL     1      -0.518  11.928  19.949  0.00  0.00    +0.000 N 
ATOM     10  C   UNL     1       0.293  12.245  21.120  0.00  0.00    +0.000 C 
ATOM     11  C   UNL     1       0.317  13.664  21.680  0.00  0.00    +0.000 C 
ATOM     12  C   UNL     1      -0.918  14.553  21.670  0.00  0.00    +0.000 C 
ATOM     13  N   UNL     1      -2.245  13.960  21.759  0.00  0.00    +0.000 NA
ATOM     14  C   UNL     1      -2.625  13.315  20.502  0.00  0.00    +0.000 C 
ATOM     15  C   UNL     1      -1.980  11.982  20.109  0.00  0.00    +0.000 C 
BRANCH  13  16
ATOM     16  C   UNL     1      -2.472  13.172  22.974  0.00  0.00    +0.000 C 
ATOM     17  C   UNL     1      -2.848  14.142  24.130  0.00  0.00    +0.000 C 
ATOM     18  C   UNL     1      -3.986  13.177  24.502  0.00  0.00    +0.000 C 
ATOM     19  C   UNL     1      -3.936  12.662  23.049  0.00  0.00    +0.000 C 
ENDBRANCH  13  16
ENDBRANCH   4   7
BRANCH   1  20
ATOM     20  O   UNL     1       2.711   7.054  19.186  0.00  0.00    +0.000 OA
BRANCH  20  25
ATOM     21  C   UNL     1       1.364   3.694  19.995  0.00  0.00    +0.000 A 
ATOM     22  C   UNL     1       1.377   3.133  18.714  0.00  0.00    +0.000 A 
ATOM     23  C   UNL     1       1.847   3.877  17.635  0.00  0.00    +0.000 A 
ATOM     24  C   UNL     1       2.298   5.184  17.821  0.00  0.00    +0.000 A 
ATOM     25  C   UNL     1       2.301   5.750  19.110  0.00  0.00    +0.000 A 
ATOM     26  C   UNL     1       1.880   4.973  20.179  0.00  0.00    +0.000 A 
BRANCH  21  28
ATOM     27  C   UNL     1       1.886   2.496  21.950  0.00  0.00    +0.000 C 
ATOM     28  O   UNL     1       0.881   2.905  21.012  0.00  0.00    +0.000 OA
ENDBRANCH  21  28
ENDBRANCH  20  25
ENDBRANCH   1  20
TORSDOF 5
ENDMDL
MODEL 5
REMARK VINA RESULT:      -7.1      1.113      1.228
REMARK  Name = 
REMARK  6 active torsions:
REMARK  status: ('A' for Active; 'I' for Inactive)
REMARK    1  A    between atoms: C_1  and  O_2
REMARK    2  A    between atoms: O_2  and  C_3
REMARK    3  A    between atoms: C_7  and  O_8
REMARK    4  A    between atoms: O_8  and  C_9
REMARK    5  A    between atoms: C_12  and  C_13
REMARK    6  A    between atoms: N_19  and  C_20
REMARK                            x       y       z     vdW  Elec       q    Type
REMARK                         _______ _______ _______ _____ _____    ______ ____
ROOT
ATOM      1  C   UNL     1       1.315   8.852  18.474  0.00  0.00    +0.000 C 
ATOM      2  C   UNL     1       1.375   8.540  19.961  0.00  0.00    +0.000 C 
ATOM      3  N   UNL     1       2.196   7.331  20.080  0.00  0.00    +0.000 NA
ATOM      4  C   UNL     1       3.169   7.330  18.944  0.00  0.00    +0.000 C 
ATOM      5  C   UNL     1       2.681   8.412  17.982  0.00  0.00    +0.000 C 
ATOM      6  H   UNL     1       1.608   6.495  19.964  0.00  0.00    +0.000 HD
ENDROOT
BRANCH   4   7
ATOM      7  C   UNL     1       3.236   5.896  18.327  0.00  0.00    +0.000 C 
ATOM      8  O   UNL     1       2.307   5.110  18.559  0.00  0.00    +0.000 OA
ATOM      9  N   UNL     1       4.322   5.515  17.508  0.00  0.00    +0.000 N 
ATOM     10  C   UNL     1       5.331   6.473  17.065  0.00  0.00    +0.000 C 
ATOM     11  C   UNL     1       6.793   6.057  16.953  0.00  0.00    +0.000 C 
ATOM     12  C   UNL     1       7.199   4.661  16.504  0.00  0.00    +0.000 C 
ATOM     13  N   UNL     1       6.354   3.915  15.583  0.00  0.00    +0.000 NA
ATOM     14  C   UNL     1       5.151   3.417  16.250  0.00  0.00    +0.000 C 
ATOM     15  C   UNL     1       4.023   4.391  16.607  0.00  0.00    +0.000 C 
BRANCH  13  16
ATOM     16  C   UNL     1       6.139   4.577  14.293  0.00  0.00    +0.000 C 
ATOM     17  C   UNL     1       7.524   4.968  13.701  0.00  0.00    +0.000 C 
ATOM     18  C   UNL     1       7.049   4.405  12.351  0.00  0.00    +0.000 C 
ATOM     19  C   UNL     1       6.042   3.542  13.140  0.00  0.00    +0.000 C 
ENDBRANCH  13  16
ENDBRANCH   4   7
BRANCH   1  20
ATOM     20  O   UNL     1       1.116  10.257  18.250  0.00  0.00    +0.000 OA
BRANCH  20  25
ATOM     21  C   UNL     1      -2.567  10.691  18.165  0.00  0.00    +0.000 A 
ATOM     22  C   UNL     1      -2.678  11.823  18.979  0.00  0.00    +0.000 A 
ATOM     23  C   UNL     1      -1.533  12.411  19.511  0.00  0.00    +0.000 A 
ATOM     24  C   UNL     1      -0.274  11.874  19.243  0.00  0.00    +0.000 A 
ATOM     25  C   UNL     1      -0.153  10.744  18.412  0.00  0.00    +0.000 A 
ATOM     26  C   UNL     1      -1.301  10.207  17.849  0.00  0.00    +0.000 A 
BRANCH  21  28
ATOM     27  C   UNL     1      -4.894  10.961  17.959  0.00  0.00    +0.000 C 
ATOM     28  O   UNL     1      -3.738  10.160  17.679  0.00  0.00    +0.000 OA
ENDBRANCH  21  28
ENDBRANCH  20  25
ENDBRANCH   1  20
TORSDOF 5
ENDMDL
MODEL 6
REMARK VINA RESULT:      -7.0      2.589      4.202
REMARK  Name = 
REMARK  6 active torsions:
REMARK  status: ('A' for Active; 'I' for Inactive)
REMARK    1  A    between atoms: C_1  and  O_2
REMARK    2  A    between atoms: O_2  and  C_3
REMARK    3  A    between atoms: C_7  and  O_8
REMARK    4  A    between atoms: O_8  and  C_9
REMARK    5  A    between atoms: C_12  and  C_13
REMARK    6  A    between atoms: N_19  and  C_20
REMARK                            x       y       z     vdW  Elec       q    Type
REMARK                         _______ _______ _______ _____ _____    ______ ____
ROOT
ATOM      1  C   UNL     1      -1.126  11.021  18.886  0.00  0.00    +0.000 C 
ATOM      2  C   UNL     1      -0.168  12.035  19.491  0.00  0.00    +0.000 C 
ATOM      3  N   UNL     1       0.993  11.265  19.944  0.00  0.00    +0.000 NA
ATOM      4  C   UNL     1       1.119  10.068  19.056  0.00  0.00    +0.000 C 
ATOM      5  C   UNL     1      -0.189   9.999  18.269  0.00  0.00    +0.000 C 
ATOM      6  H   UNL     1       0.827  10.908  20.895  0.00  0.00    +0.000 HD
ENDROOT
BRANCH   4   7
ATOM      7  C   UNL     1       1.416   8.808  19.930  0.00  0.00    +0.000 C 
ATOM      8  O   UNL     1       0.973   8.773  21.086  0.00  0.00    +0.000 OA
ATOM      9  N   UNL     1       2.158   7.725  19.405  0.00  0.00    +0.000 N 
ATOM     10  C   UNL     1       2.530   7.655  17.995  0.00  0.00    +0.000 C 
ATOM     11  C   UNL     1       3.880   7.081  17.581  0.00  0.00    +0.000 C 
ATOM     12  C   UNL     1       4.522   5.919  18.327  0.00  0.00    +0.000 C 
ATOM     13  N   UNL     1       3.688   4.921  18.979  0.00  0.00    +0.000 NA
ATOM     14  C   UNL     1       3.082   5.449  20.201  0.00  0.00    +0.000 C 
ATOM     15  C   UNL     1       1.927   6.451  20.103  0.00  0.00    +0.000 C 
BRANCH  13  16
ATOM     16  C   UNL     1       2.780   4.210  18.074  0.00  0.00    +0.000 C 
ATOM     17  C   UNL     1       3.593   3.129  17.305  0.00  0.00    +0.000 C 
ATOM     18  C   UNL     1       2.456   2.137  17.600  0.00  0.00    +0.000 C 
ATOM     19  C   UNL     1       2.073   3.032  18.796  0.00  0.00    +0.000 C 
ENDBRANCH  13  16
ENDBRANCH   4   7
BRANCH   1  20
ATOM     20  O   UNL     1      -1.956  11.628  17.884  0.00  0.00    +0.000 OA
BRANCH  20  25
ATOM     21  C   UNL     1      -5.207  12.284  19.547  0.00  0.00    +0.000 A 
ATOM     22  C   UNL     1      -6.064  12.024  18.473  0.00  0.00    +0.000 A 
ATOM     23  C   UNL     1      -5.540  11.624  17.247  0.00  0.00    +0.000 A 
ATOM     24  C   UNL     1      -4.161  11.488  17.078  0.00  0.00    +0.000 A 
ATOM     25  C   UNL     1      -3.293  11.735  18.159  0.00  0.00    +0.000 A 
ATOM     26  C   UNL     1      -3.839  12.079  19.386  0.00  0.00    +0.000 A 
BRANCH  21  28
ATOM     27  C   UNL     1      -4.851  12.964  21.770  0.00  0.00    +0.000 C 
ATOM     28  O   UNL     1      -5.792  12.680  20.726  0.00  0.00    +0.000 OA
ENDBRANCH  21  28
ENDBRANCH  20  25
ENDBRANCH   1  20
TORSDOF 5
ENDMDL
MODEL 7
REMARK VINA RESULT:      -6.9      3.320     10.004
REMARK  Name = 
REMARK  6 active torsions:
REMARK  status: ('A' for Active; 'I' for Inactive)
REMARK    1  A    between atoms: C_1  and  O_2
REMARK    2  A    between atoms: O_2  and  C_3
REMARK    3  A    between atoms: C_7  and  O_8
REMARK    4  A    between atoms: O_8  and  C_9
REMARK    5  A    between atoms: C_12  and  C_13
REMARK    6  A    between atoms: N_19  and  C_20
REMARK                            x       y       z     vdW  Elec       q    Type
REMARK                         _______ _______ _______ _____ _____    ______ ____
ROOT
ATOM      1  C   UNL     1       1.820   7.871  18.682  0.00  0.00    +0.000 C 
ATOM      2  C   UNL     1       2.527   8.697  17.620  0.00  0.00    +0.000 C 
ATOM      3  N   UNL     1       1.857  10.000  17.619  0.00  0.00    +0.000 NA
ATOM      4  C   UNL     1       1.341  10.246  19.001  0.00  0.00    +0.000 C 
ATOM      5  C   UNL     1       1.456   8.908  19.728  0.00  0.00    +0.000 C 
ATOM      6  H   UNL     1       1.036   9.972  16.999  0.00  0.00    +0.000 HD
ENDROOT
BRANCH   4   7
ATOM      7  C   UNL     1      -0.113  10.813  18.913  0.00  0.00    +0.000 C 
ATOM      8  O   UNL     1      -0.847  10.417  17.997  0.00  0.00    +0.000 OA
ATOM      9  N   UNL     1      -0.582  11.742  19.869  0.00  0.00    +0.000 N 
ATOM     10  C   UNL     1       0.190  12.082  21.061  0.00  0.00    +0.000 C 
ATOM     11  C   UNL     1       0.189  13.509  21.599  0.00  0.00    +0.000 C 
ATOM     12  C   UNL     1      -1.051  14.390  21.538  0.00  0.00    +0.000 C 
ATOM     13  N   UNL     1      -2.376  13.790  21.594  0.00  0.00    +0.000 NA
ATOM     14  C   UNL     1      -2.713  13.125  20.336  0.00  0.00    +0.000 C 
ATOM     15  C   UNL     1      -2.049  11.790  19.983  0.00  0.00    +0.000 C 
BRANCH  13  16
ATOM     16  C   UNL     1      -2.636  13.019  22.814  0.00  0.00    +0.000 C 
ATOM     17  C   UNL     1      -2.683  14.001  24.020  0.00  0.00    +0.000 C 
ATOM     18  C   UNL     1      -3.952  13.275  24.496  0.00  0.00    +0.000 C 
ATOM     19  C   UNL     1      -4.159  12.818  23.037  0.00  0.00    +0.000 C 
ENDBRANCH  13  16
ENDBRANCH   4   7
BRANCH   1  20
ATOM     20  O   UNL     1       2.698   6.875  19.230  0.00  0.00    +0.000 OA
BRANCH  20  25
ATOM     21  C   UNL     1       4.072   4.138  17.137  0.00  0.00    +0.000 A 
ATOM     22  C   UNL     1       3.021   3.222  17.247  0.00  0.00    +0.000 A 
ATOM     23  C   UNL     1       1.891   3.548  17.992  0.00  0.00    +0.000 A 
ATOM     24  C   UNL     1       1.803   4.782  18.638  0.00  0.00    +0.000 A 
ATOM     25  C   UNL     1       2.851   5.714  18.519  0.00  0.00    +0.000 A 
ATOM     26  C   UNL     1       3.943   5.391  17.728  0.00  0.00    +0.000 A 
BRANCH  21  28
ATOM     27  C   UNL     1       6.341   4.516  16.649  0.00  0.00    +0.000 C 
ATOM     28  O   UNL     1       5.159   3.747  16.391  0.00  0.00    +0.000 OA
ENDBRANCH  21  28
ENDBRANCH  20  25
ENDBRANCH   1  20
TORSDOF 5
ENDMDL
MODEL 8
REMARK VINA RESULT:      -6.8      3.326      9.919
REMARK  Name = 
REMARK  6 active torsions:
REMARK  status: ('A' for Active; 'I' for Inactive)
REMARK    1  A    between atoms: C_1  and  O_2
REMARK    2  A    between atoms: O_2  and  C_3
REMARK    3  A    between atoms: C_7  and  O_8
REMARK    4  A    between atoms: O_8  and  C_9
REMARK    5  A    between atoms: C_12  and  C_13
REMARK    6  A    between atoms: N_19  and  C_20
REMARK                            x       y       z     vdW  Elec       q    Type
REMARK                         _______ _______ _______ _____ _____    ______ ____
ROOT
ATOM      1  C   UNL     1       1.836   7.933  18.774  0.00  0.00    +0.000 C 
ATOM      2  C   UNL     1       2.474   8.684  17.616  0.00  0.00    +0.000 C 
ATOM      3  N   UNL     1       1.768   9.967  17.537  0.00  0.00    +0.000 NA
ATOM      4  C   UNL     1       1.305  10.315  18.916  0.00  0.00    +0.000 C 
ATOM      5  C   UNL     1       1.487   9.045  19.746  0.00  0.00    +0.000 C 
ATOM      6  H   UNL     1       0.923   9.867  16.960  0.00  0.00    +0.000 HD
ENDROOT
BRANCH   4   7
ATOM      7  C   UNL     1      -0.166  10.838  18.846  0.00  0.00    +0.000 C 
ATOM      8  O   UNL     1      -0.900  10.417  17.942  0.00  0.00    +0.000 OA
ATOM      9  N   UNL     1      -0.650  11.756  19.806  0.00  0.00    +0.000 N 
ATOM     10  C   UNL     1       0.128  12.123  20.986  0.00  0.00    +0.000 C 
ATOM     11  C   UNL     1       0.091  13.551  21.520  0.00  0.00    +0.000 C 
ATOM     12  C   UNL     1      -1.176  14.394  21.473  0.00  0.00    +0.000 C 
ATOM     13  N   UNL     1      -2.481  13.755  21.549  0.00  0.00    +0.000 NA
ATOM     14  C   UNL     1      -2.815  13.076  20.298  0.00  0.00    +0.000 C 
ATOM     15  C   UNL     1      -2.116  11.760  19.940  0.00  0.00    +0.000 C 
BRANCH  13  16
ATOM     16  C   UNL     1      -2.702  12.981  22.774  0.00  0.00    +0.000 C 
ATOM     17  C   UNL     1      -2.731  13.962  23.981  0.00  0.00    +0.000 C 
ATOM     18  C   UNL     1      -3.979  13.220  24.488  0.00  0.00    +0.000 C 
ATOM     19  C   UNL     1      -4.216  12.760  23.035  0.00  0.00    +0.000 C 
ENDBRANCH  13  16
ENDBRANCH   4   7
BRANCH   1  20
ATOM     20  O   UNL     1       2.763   7.008  19.363  0.00  0.00    +0.000 OA
BRANCH  20  25
ATOM     21  C   UNL     1       2.491   3.643  17.826  0.00  0.00    +0.000 A 
ATOM     22  C   UNL     1       3.674   3.641  17.081  0.00  0.00    +0.000 A 
ATOM     23  C   UNL     1       4.526   4.741  17.127  0.00  0.00    +0.000 A 
ATOM     24  C   UNL     1       4.203   5.852  17.907  0.00  0.00    +0.000 A 
ATOM     25  C   UNL     1       3.021   5.855  18.671  0.00  0.00    +0.000 A 
ATOM     26  C   UNL     1       2.215   4.727  18.654  0.00  0.00    +0.000 A 
BRANCH  21  28
ATOM     27  C   UNL     1       0.745   2.401  18.797  0.00  0.00    +0.000 C 
ATOM     28  O   UNL     1       1.694   2.526  17.729  0.00  0.00    +0.000 OA
ENDBRANCH  21  28
ENDBRANCH  20  25
ENDBRANCH   1  20
TORSDOF 5
ENDMDL
MODEL 9
REMARK VINA RESULT:      -6.8      2.746      8.693
REMARK  Name = 
REMARK  6 active torsions:
REMARK  status: ('A' for Active; 'I' for Inactive)
REMARK    1  A    between atoms: C_1  and  O_2
REMARK    2  A    between atoms: O_2  and  C_3
REMARK    3  A    between atoms: C_7  and  O_8
REMARK    4  A    between atoms: O_8  and  C_9
REMARK    5  A    between atoms: C_12  and  C_13
REMARK    6  A    between atoms: N_19  and  C_20
REMARK                            x       y       z     vdW  Elec       q    Type
REMARK                         _______ _______ _______ _____ _____    ______ ____
ROOT
ATOM      1  C   UNL     1       4.237   4.259  19.664  0.00  0.00    +0.000 C 
ATOM      2  C   UNL     1       3.120   3.631  18.845  0.00  0.00    +0.000 C 
ATOM      3  N   UNL     1       2.018   4.596  18.871  0.00  0.00    +0.000 NA
ATOM      4  C   UNL     1       2.614   5.962  19.002  0.00  0.00    +0.000 C 
ATOM      5  C   UNL     1       4.080   5.739  19.369  0.00  0.00    +0.000 C 
ATOM      6  H   UNL     1       1.440   4.447  19.709  0.00  0.00    +0.000 HD
ENDROOT
BRANCH   4   7
ATOM      7  C   UNL     1       1.799   6.779  20.056  0.00  0.00    +0.000 C 
ATOM      8  O   UNL     1       1.573   6.260  21.158  0.00  0.00    +0.000 OA
ATOM      9  N   UNL     1       1.349   8.086  19.763  0.00  0.00    +0.000 N 
ATOM     10  C   UNL     1       1.759   8.791  18.552  0.00  0.00    +0.000 C 
ATOM     11  C   UNL     1       0.776   9.696  17.817  0.00  0.00    +0.000 C 
ATOM     12  C   UNL     1      -0.256  10.533  18.559  0.00  0.00    +0.000 C 
ATOM     13  N   UNL     1       0.030  11.023  19.899  0.00  0.00    +0.000 NA
ATOM     14  C   UNL     1      -0.045   9.947  20.886  0.00  0.00    +0.000 C 
ATOM     15  C   UNL     1       1.074   8.903  20.956  0.00  0.00    +0.000 C 
BRANCH  13  16
ATOM     16  C   UNL     1       1.211  11.887  19.985  0.00  0.00    +0.000 C 
ATOM     17  C   UNL     1       1.059  13.040  18.951  0.00  0.00    +0.000 C 
ATOM     18  C   UNL     1       1.509  14.017  20.050  0.00  0.00    +0.000 C 
ATOM     19  C   UNL     1       1.036  12.972  21.081  0.00  0.00    +0.000 C 
ENDBRANCH  13  16
ENDBRANCH   4   7
BRANCH   1  20
ATOM     20  O   UNL     1       5.522   3.783  19.234  0.00  0.00    +0.000 OA
BRANCH  20  25
ATOM     21  C   UNL     1       7.101   5.548  16.378  0.00  0.00    +0.000 A 
ATOM     22  C   UNL     1       7.784   6.545  17.082  0.00  0.00    +0.000 A 
ATOM     23  C   UNL     1       7.713   6.588  18.471  0.00  0.00    +0.000 A 
ATOM     24  C   UNL     1       6.958   5.645  19.169  0.00  0.00    +0.000 A 
ATOM     25  C   UNL     1       6.280   4.629  18.469  0.00  0.00    +0.000 A 
ATOM     26  C   UNL     1       6.408   4.573  17.089  0.00  0.00    +0.000 A 
BRANCH  21  28
ATOM     27  C   UNL     1       6.435   4.558  14.352  0.00  0.00    +0.000 C 
ATOM     28  O   UNL     1       7.210   5.570  15.008  0.00  0.00    +0.000 OA
ENDBRANCH  21  28
ENDBRANCH  20  25
ENDBRANCH   1  20
TORSDOF 5
ENDMDL
