MODEL 1
REMARK VINA RESULT:      -7.7      0.000      0.000
REMARK  Name = 
REMARK  5 active torsions:
REMARK  status: ('A' for Active; 'I' for Inactive)
REMARK    1  A    between atoms: C_1  and  O_2
REMARK    2  A    between atoms: O_2  and  C_3
REMARK    3  A    between atoms: C_6  and  C_7
REMARK    4  A    between atoms: C_7  and  O_8
REMARK    5  A    between atoms: O_8  and  C_9
REMARK                            x       y       z     vdW  Elec       q    Type
REMARK                         _______ _______ _______ _____ _____    ______ ____
ROOT
ATOM      1  C   UNL     1       2.396   6.760  19.162  0.00  0.00    +0.000 A 
ATOM      2  C   UNL     1       2.465   7.740  18.162  0.00  0.00    +0.000 A 
ATOM      3  C   UNL     1       1.789   8.952  18.306  0.00  0.00    +0.000 A 
ATOM      4  C   UNL     1       1.163   9.214  19.515  0.00  0.00    +0.000 A 
ATOM      5  C   UNL     1       1.403   8.394  20.629  0.00  0.00    +0.000 A 
ATOM      6  C   UNL     1       1.920   7.114  20.425  0.00  0.00    +0.000 A 
ATOM      7  C   UNL     1       1.200   8.993  21.999  0.00  0.00    +0.000 C 
ATOM      8  C   UNL     1      -0.141   9.716  22.100  0.00  0.00    +0.000 C 
ATOM      9  C   UNL     1      -0.392  10.537  20.886  0.00  0.00    +0.000 A 
ATOM     10  N   UNL     1      -1.257  11.513  20.713  0.00  0.00    +0.000 NA
ATOM     11  N   UNL     1      -1.312  11.780  19.361  0.00  0.00    +0.000 NA
ATOM     12  C   UNL     1      -0.483  10.959  18.756  0.00  0.00    +0.000 A 
ATOM     13  N   UNL     1       0.210  10.236  19.683  0.00  0.00    +0.000 N 
ENDROOT
BRANCH   1  14
ATOM     14  O   UNL     1       2.788   5.450  19.004  0.00  0.00    +0.000 OA
BRANCH  14  15
ATOM     15  C   UNL     1       4.152   5.217  19.376  0.00  0.00    +0.000 C 
BRANCH  15  19
ATOM     16  C   UNL     1       6.855   5.326  15.997  0.00  0.00    +0.000 A 
ATOM     17  C   UNL     1       5.665   4.598  15.914  0.00  0.00    +0.000 A 
ATOM     18  C   UNL     1       4.785   4.525  17.007  0.00  0.00    +0.000 A 
ATOM     19  C   UNL     1       5.104   5.159  18.214  0.00  0.00    +0.000 A 
ATOM     20  C   UNL     1       6.301   5.881  18.287  0.00  0.00    +0.000 A 
ATOM     21  C   UNL     1       7.174   5.958  17.197  0.00  0.00    +0.000 A 
BRANCH  16  23
ATOM     22  C   UNL     1       7.045   4.749  13.714  0.00  0.00    +0.000 C 
ATOM     23  O   UNL     1       7.636   5.335  14.869  0.00  0.00    +0.000 OA
ENDBRANCH  16  23
ENDBRANCH  15  19
ENDBRANCH  14  15
ENDBRANCH   1  14
TORSDOF 4
ENDMDL
MODEL 2
REMARK VINA RESULT:      -7.7      0.200      1.009
REMARK  Name = 
REMARK  5 active torsions:
REMARK  status: ('A' for Active; 'I' for Inactive)
REMARK    1  A    between atoms: C_1  and  O_2
REMARK    2  A    between atoms: O_2  and  C_3
REMARK    3  A    between atoms: C_6  and  C_7
REMARK    4  A    between atoms: C_7  and  O_8
REMARK    5  A    between atoms: O_8  and  C_9
REMARK                            x       y       z     vdW  Elec       q    Type
REMARK                         _______ _______ _______ _____ _____    ______ ____
ROOT
ATOM      1  C   UNL     1       2.344   6.804  19.277  0.00  0.00    +0.000 A 
ATOM      2  C   UNL     1       2.389   7.780  18.271  0.00  0.00    +0.000 A 
ATOM      3  C   UNL     1       1.711   8.990  18.422  0.00  0.00    +0.000 A 
ATOM      4  C   UNL     1       1.107   9.254  19.641  0.00  0.00    +0.000 A 
ATOM      5  C   UNL     1       1.371   8.442  20.754  0.00  0.00    +0.000 A 
ATOM      6  C   UNL     1       1.889   7.162  20.547  0.00  0.00    +0.000 A 
ATOM      7  C   UNL     1       1.190   9.046  22.125  0.00  0.00    +0.000 C 
ATOM      8  C   UNL     1      -0.152   9.764  22.248  0.00  0.00    +0.000 C 
ATOM      9  C   UNL     1      -0.429  10.578  21.035  0.00  0.00    +0.000 A 
ATOM     10  N   UNL     1      -1.301  11.549  20.874  0.00  0.00    +0.000 NA
ATOM     11  N   UNL     1      -1.383  11.810  19.522  0.00  0.00    +0.000 NA
ATOM     12  C   UNL     1      -0.561  10.989  18.905  0.00  0.00    +0.000 A 
ATOM     13  N   UNL     1       0.152  10.274  19.823  0.00  0.00    +0.000 N 
ENDROOT
BRANCH   1  14
ATOM     14  O   UNL     1       2.739   5.496  19.118  0.00  0.00    +0.000 OA
BRANCH  14  15
ATOM     15  C   UNL     1       4.128   5.284  19.396  0.00  0.00    +0.000 C 
BRANCH  15  19
ATOM     16  C   UNL     1       6.698   5.364  15.914  0.00  0.00    +0.000 A 
ATOM     17  C   UNL     1       7.177   5.823  17.143  0.00  0.00    +0.000 A 
ATOM     18  C   UNL     1       6.354   5.832  18.282  0.00  0.00    +0.000 A 
ATOM     19  C   UNL     1       5.021   5.409  18.193  0.00  0.00    +0.000 A 
ATOM     20  C   UNL     1       4.551   4.956  16.955  0.00  0.00    +0.000 A 
ATOM     21  C   UNL     1       5.373   4.942  15.823  0.00  0.00    +0.000 A 
BRANCH  16  23
ATOM     22  C   UNL     1       7.147   4.759  13.674  0.00  0.00    +0.000 C 
ATOM     23  O   UNL     1       7.589   5.393  14.870  0.00  0.00    +0.000 OA
ENDBRANCH  16  23
ENDBRANCH  15  19
ENDBRANCH  14  15
ENDBRANCH   1  14
TORSDOF 4
ENDMDL
MODEL 3
REMARK VINA RESULT:      -7.7      4.078      7.798
REMARK  Name = 
REMARK  5 active torsions:
REMARK  status: ('A' for Active; 'I' for Inactive)
REMARK    1  A    between atoms: C_1  and  O_2
REMARK    2  A    between atoms: O_2  and  C_3
REMARK    3  A    between atoms: C_6  and  C_7
REMARK    4  A    between atoms: C_7  and  O_8
REMARK    5  A    between atoms: O_8  and  C_9
REMARK                            x       y       z     vdW  Elec       q    Type
REMARK                         _______ _______ _______ _____ _____    ______ ____
ROOT
ATOM      1  C   UNL     1       2.791   4.918  18.990  0.00  0.00    +0.000 A 
ATOM      2  C   UNL     1       2.632   3.976  17.964  0.00  0.00    +0.000 A 
ATOM      3  C   UNL     1       3.627   3.796  17.003  0.00  0.00    +0.000 A 
ATOM      4  C   UNL     1       4.826   4.473  17.166  0.00  0.00    +0.000 A 
ATOM      5  C   UNL     1       5.112   5.124  18.376  0.00  0.00    +0.000 A 
ATOM      6  C   UNL     1       4.060   5.445  19.235  0.00  0.00    +0.000 A 
ATOM      7  C   UNL     1       6.563   5.335  18.735  0.00  0.00    +0.000 C 
ATOM      8  C   UNL     1       7.348   5.928  17.567  0.00  0.00    +0.000 C 
ATOM      9  C   UNL     1       6.989   5.253  16.292  0.00  0.00    +0.000 A 
ATOM     10  N   UNL     1       7.633   5.257  15.145  0.00  0.00    +0.000 NA
ATOM     11  N   UNL     1       6.786   4.726  14.195  0.00  0.00    +0.000 NA
ATOM     12  C   UNL     1       5.656   4.418  14.791  0.00  0.00    +0.000 A 
ATOM     13  N   UNL     1       5.775   4.619  16.136  0.00  0.00    +0.000 N 
ENDROOT
BRANCH   1  14
ATOM     14  O   UNL     1       1.779   5.362  19.810  0.00  0.00    +0.000 OA
BRANCH  14  15
ATOM     15  C   UNL     1       2.179   6.427  20.682  0.00  0.00    +0.000 C 
BRANCH  15  19
ATOM     16  C   UNL     1       0.360  10.195  19.575  0.00  0.00    +0.000 A 
ATOM     17  C   UNL     1       1.210   9.543  18.679  0.00  0.00    +0.000 A 
ATOM     18  C   UNL     1       1.834   8.332  19.025  0.00  0.00    +0.000 A 
ATOM     19  C   UNL     1       1.636   7.774  20.295  0.00  0.00    +0.000 A 
ATOM     20  C   UNL     1       0.786   8.439  21.186  0.00  0.00    +0.000 A 
ATOM     21  C   UNL     1       0.161   9.641  20.838  0.00  0.00    +0.000 A 
BRANCH  16  23
ATOM     22  C   UNL     1      -1.314  11.215  18.256  0.00  0.00    +0.000 C 
ATOM     23  O   UNL     1      -0.201  11.366  19.130  0.00  0.00    +0.000 OA
ENDBRANCH  16  23
ENDBRANCH  15  19
ENDBRANCH  14  15
ENDBRANCH   1  14
TORSDOF 4
ENDMDL
MODEL 4
REMARK VINA RESULT:      -7.7      4.076      8.548
REMARK  Name = 
REMARK  5 active torsions:
REMARK  status: ('A' for Active; 'I' for Inactive)
REMARK    1  A    between atoms: C_1  and  O_2
REMARK    2  A    between atoms: O_2  and  C_3
REMARK    3  A    between atoms: C_6  and  C_7
REMARK    4  A    between atoms: C_7  and  O_8
REMARK    5  A    between atoms: O_8  and  C_9
REMARK                            x       y       z     vdW  Elec       q    Type
REMARK                         _______ _______ _______ _____ _____    ______ ____
ROOT
ATOM      1  C   UNL     1       2.697   5.758  19.206  0.00  0.00    +0.000 A 
ATOM      2  C   UNL     1       2.366   4.820  18.218  0.00  0.00    +0.000 A 
ATOM      3  C   UNL     1       3.337   4.342  17.337  0.00  0.00    +0.000 A 
ATOM      4  C   UNL     1       4.655   4.715  17.550  0.00  0.00    +0.000 A 
ATOM      5  C   UNL     1       5.027   5.353  18.743  0.00  0.00    +0.000 A 
ATOM      6  C   UNL     1       4.041   5.974  19.511  0.00  0.00    +0.000 A 
ATOM      7  C   UNL     1       6.463   5.225  19.191  0.00  0.00    +0.000 C 
ATOM      8  C   UNL     1       7.433   5.534  18.053  0.00  0.00    +0.000 C 
ATOM      9  C   UNL     1       6.988   4.887  16.789  0.00  0.00    +0.000 A 
ATOM     10  N   UNL     1       7.675   4.662  15.691  0.00  0.00    +0.000 NA
ATOM     11  N   UNL     1       6.777   4.294  14.711  0.00  0.00    +0.000 NA
ATOM     12  C   UNL     1       5.574   4.309  15.243  0.00  0.00    +0.000 A 
ATOM     13  N   UNL     1       5.666   4.560  16.581  0.00  0.00    +0.000 N 
ENDROOT
BRANCH   1  14
ATOM     14  O   UNL     1       1.783   6.487  19.932  0.00  0.00    +0.000 OA
BRANCH  14  15
ATOM     15  C   UNL     1       1.906   7.902  19.745  0.00  0.00    +0.000 C 
BRANCH  15  19
ATOM     16  C   UNL     1      -0.357  10.484  22.380  0.00  0.00    +0.000 A 
ATOM     17  C   UNL     1       0.418   9.452  22.914  0.00  0.00    +0.000 A 
ATOM     18  C   UNL     1       1.140   8.583  22.078  0.00  0.00    +0.000 A 
ATOM     19  C   UNL     1       1.067   8.721  20.685  0.00  0.00    +0.000 A 
ATOM     20  C   UNL     1       0.284   9.756  20.162  0.00  0.00    +0.000 A 
ATOM     21  C   UNL     1      -0.430  10.624  20.995  0.00  0.00    +0.000 A 
BRANCH  16  23
ATOM     22  C   UNL     1      -2.070  12.068  22.753  0.00  0.00    +0.000 C 
ATOM     23  O   UNL     1      -1.015  11.276  23.288  0.00  0.00    +0.000 OA
ENDBRANCH  16  23
ENDBRANCH  15  19
ENDBRANCH  14  15
ENDBRANCH   1  14
TORSDOF 4
ENDMDL
MODEL 5
REMARK VINA RESULT:      -7.6      4.081      7.780
REMARK  Name = 
REMARK  5 active torsions:
REMARK  status: ('A' for Active; 'I' for Inactive)
REMARK    1  A    between atoms: C_1  and  O_2
REMARK    2  A    between atoms: O_2  and  C_3
REMARK    3  A    between atoms: C_6  and  C_7
REMARK    4  A    between atoms: C_7  and  O_8
REMARK    5  A    between atoms: O_8  and  C_9
REMARK                            x       y       z     vdW  Elec       q    Type
REMARK                         _______ _______ _______ _____ _____    ______ ____
ROOT
ATOM      1  C   UNL     1       2.798   4.948  19.040  0.00  0.00    +0.000 A 
ATOM      2  C   UNL     1       2.615   4.005  18.018  0.00  0.00    +0.000 A 
ATOM      3  C   UNL     1       3.598   3.810  17.046  0.00  0.00    +0.000 A 
ATOM      4  C   UNL     1       4.807   4.471  17.195  0.00  0.00    +0.000 A 
ATOM      5  C   UNL     1       5.115   5.122  18.400  0.00  0.00    +0.000 A 
ATOM      6  C   UNL     1       4.076   5.458  19.269  0.00  0.00    +0.000 A 
ATOM      7  C   UNL     1       6.572   5.314  18.743  0.00  0.00    +0.000 C 
ATOM      8  C   UNL     1       7.352   5.894  17.565  0.00  0.00    +0.000 C 
ATOM      9  C   UNL     1       6.970   5.221  16.295  0.00  0.00    +0.000 A 
ATOM     10  N   UNL     1       7.602   5.214  15.142  0.00  0.00    +0.000 NA
ATOM     11  N   UNL     1       6.738   4.692  14.202  0.00  0.00    +0.000 NA
ATOM     12  C   UNL     1       5.610   4.400  14.812  0.00  0.00    +0.000 A 
ATOM     13  N   UNL     1       5.746   4.603  16.154  0.00  0.00    +0.000 N 
ENDROOT
BRANCH   1  14
ATOM     14  O   UNL     1       1.800   5.407  19.869  0.00  0.00    +0.000 OA
BRANCH  14  15
ATOM     15  C   UNL     1       2.195   6.532  20.665  0.00  0.00    +0.000 C 
BRANCH  15  19
ATOM     16  C   UNL     1       0.575  10.373  19.499  0.00  0.00    +0.000 A 
ATOM     17  C   UNL     1       0.278   9.844  20.758  0.00  0.00    +0.000 A 
ATOM     18  C   UNL     1       0.769   8.587  21.149  0.00  0.00    +0.000 A 
ATOM     19  C   UNL     1       1.544   7.826  20.264  0.00  0.00    +0.000 A 
ATOM     20  C   UNL     1       1.832   8.363  19.004  0.00  0.00    +0.000 A 
ATOM     21  C   UNL     1       1.347   9.617  18.618  0.00  0.00    +0.000 A 
BRANCH  16  23
ATOM     22  C   UNL     1       0.974  12.566  18.717  0.00  0.00    +0.000 C 
ATOM     23  O   UNL     1       0.049  11.610  19.224  0.00  0.00    +0.000 OA
ENDBRANCH  16  23
ENDBRANCH  15  19
ENDBRANCH  14  15
ENDBRANCH   1  14
TORSDOF 4
ENDMDL
MODEL 6
REMARK VINA RESULT:      -7.6      4.012      8.290
REMARK  Name = 
REMARK  5 active torsions:
REMARK  status: ('A' for Active; 'I' for Inactive)
REMARK    1  A    between atoms: C_1  and  O_2
REMARK    2  A    between atoms: O_2  and  C_3
REMARK    3  A    between atoms: C_6  and  C_7
REMARK    4  A    between atoms: C_7  and  O_8
REMARK    5  A    between atoms: O_8  and  C_9
REMARK                            x       y       z     vdW  Elec       q    Type
REMARK                         _______ _______ _______ _____ _____    ______ ____
ROOT
ATOM      1  C   UNL     1       1.963   8.295  18.911  0.00  0.00    +0.000 A 
ATOM      2  C   UNL     1       1.729   7.781  20.195  0.00  0.00    +0.000 A 
ATOM      3  C   UNL     1       1.858   6.416  20.449  0.00  0.00    +0.000 A 
ATOM      4  C   UNL     1       2.351   5.605  19.439  0.00  0.00    +0.000 A 
ATOM      5  C   UNL     1       2.922   6.173  18.289  0.00  0.00    +0.000 A 
ATOM      6  C   UNL     1       2.624   7.500  17.974  0.00  0.00    +0.000 A 
ATOM      7  C   UNL     1       3.925   5.348  17.521  0.00  0.00    +0.000 C 
ATOM      8  C   UNL     1       3.406   3.935  17.262  0.00  0.00    +0.000 C 
ATOM      9  C   UNL     1       2.764   3.377  18.481  0.00  0.00    +0.000 A 
ATOM     10  N   UNL     1       2.470   2.125  18.761  0.00  0.00    +0.000 NA
ATOM     11  N   UNL     1       1.648   2.132  19.868  0.00  0.00    +0.000 NA
ATOM     12  C   UNL     1       1.466   3.384  20.225  0.00  0.00    +0.000 A 
ATOM     13  N   UNL     1       2.244   4.200  19.456  0.00  0.00    +0.000 N 
ENDROOT
BRANCH   1  14
ATOM     14  O   UNL     1       1.604   9.556  18.495  0.00  0.00    +0.000 OA
BRANCH  14  15
ATOM     15  C   UNL     1       0.594  10.159  19.313  0.00  0.00    +0.000 C 
BRANCH  15  19
ATOM     16  C   UNL     1      -3.216  10.968  17.426  0.00  0.00    +0.000 A 
ATOM     17  C   UNL     1      -2.336  10.047  16.852  0.00  0.00    +0.000 A 
ATOM     18  C   UNL     1      -1.082   9.787  17.431  0.00  0.00    +0.000 A 
ATOM     19  C   UNL     1      -0.680  10.477  18.582  0.00  0.00    +0.000 A 
ATOM     20  C   UNL     1      -1.568  11.401  19.145  0.00  0.00    +0.000 A 
ATOM     21  C   UNL     1      -2.818  11.655  18.571  0.00  0.00    +0.000 A 
BRANCH  16  23
ATOM     22  C   UNL     1      -5.343  11.996  17.438  0.00  0.00    +0.000 C 
ATOM     23  O   UNL     1      -4.415  11.139  16.781  0.00  0.00    +0.000 OA
ENDBRANCH  16  23
ENDBRANCH  15  19
ENDBRANCH  14  15
ENDBRANCH   1  14
TORSDOF 4
ENDMDL
MODEL 7
REMARK VINA RESULT:      -7.6      4.045      8.512
REMARK  Name = 
REMARK  5 active torsions:
REMARK  status: ('A' for Active; 'I' for Inactive)
REMARK    1  A    between atoms: C_1  and  O_2
REMARK    2  A    between atoms: O_2  and  C_3
REMARK    3  A    between atoms: C_6  and  C_7
REMARK    4  A    between atoms: C_7  and  O_8
REMARK    5  A    between atoms: O_8  and  C_9
REMARK                            x       y       z     vdW  Elec       q    Type
REMARK                         _______ _______ _______ _____ _____    ______ ____
ROOT
ATOM      1  C   UNL     1       2.773   5.915  19.204  0.00  0.00    +0.000 A 
ATOM      2  C   UNL     1       2.393   4.995  18.215  0.00  0.00    +0.000 A 
ATOM      3  C   UNL     1       3.329   4.503  17.304  0.00  0.00    +0.000 A 
ATOM      4  C   UNL     1       4.661   4.841  17.486  0.00  0.00    +0.000 A 
ATOM      5  C   UNL     1       5.080   5.457  18.675  0.00  0.00    +0.000 A 
ATOM      6  C   UNL     1       4.130   6.094  19.475  0.00  0.00    +0.000 A 
ATOM      7  C   UNL     1       6.523   5.290  19.083  0.00  0.00    +0.000 C 
ATOM      8  C   UNL     1       7.470   5.587  17.923  0.00  0.00    +0.000 C 
ATOM      9  C   UNL     1       6.977   4.964  16.665  0.00  0.00    +0.000 A 
ATOM     10  N   UNL     1       7.629   4.734  15.547  0.00  0.00    +0.000 NA
ATOM     11  N   UNL     1       6.696   4.399  14.587  0.00  0.00    +0.000 NA
ATOM     12  C   UNL     1       5.509   4.437  15.151  0.00  0.00    +0.000 A 
ATOM     13  N   UNL     1       5.642   4.672  16.489  0.00  0.00    +0.000 N 
ENDROOT
BRANCH   1  14
ATOM     14  O   UNL     1       1.896   6.657  19.961  0.00  0.00    +0.000 OA
BRANCH  14  15
ATOM     15  C   UNL     1       1.874   8.046  19.606  0.00  0.00    +0.000 C 
BRANCH  15  19
ATOM     16  C   UNL     1      -0.359  10.341  22.518  0.00  0.00    +0.000 A 
ATOM     17  C   UNL     1      -0.452  10.660  21.161  0.00  0.00    +0.000 A 
ATOM     18  C   UNL     1       0.284   9.947  20.199  0.00  0.00    +0.000 A 
ATOM     19  C   UNL     1       1.152   8.920  20.593  0.00  0.00    +0.000 A 
ATOM     20  C   UNL     1       1.240   8.612  21.955  0.00  0.00    +0.000 A 
ATOM     21  C   UNL     1       0.503   9.319  22.911  0.00  0.00    +0.000 A 
BRANCH  16  23
ATOM     22  C   UNL     1      -1.476  12.389  22.887  0.00  0.00    +0.000 C 
ATOM     23  O   UNL     1      -1.127  11.096  23.369  0.00  0.00    +0.000 OA
ENDBRANCH  16  23
ENDBRANCH  15  19
ENDBRANCH  14  15
ENDBRANCH   1  14
TORSDOF 4
ENDMDL
MODEL 8
REMARK VINA RESULT:      -7.5      5.923      8.471
REMARK  Name = 
REMARK  5 active torsions:
REMARK  status: ('A' for Active; 'I' for Inactive)
REMARK    1  A    between atoms: C_1  and  O_2
REMARK    2  A    between atoms: O_2  and  C_3
REMARK    3  A    between atoms: C_6  and  C_7
REMARK    4  A    between atoms: C_7  and  O_8
REMARK    5  A    between atoms: O_8  and  C_9
REMARK                            x       y       z     vdW  Elec       q    Type
REMARK                         _______ _______ _______ _____ _____    ______ ____
ROOT
ATOM      1  C   UNL     1       7.853   7.674  17.842  0.00  0.00    +0.000 A 
ATOM      2  C   UNL     1       8.062   6.821  18.935  0.00  0.00    +0.000 A 
ATOM      3  C   UNL     1       7.341   5.633  19.059  0.00  0.00    +0.000 A 
ATOM      4  C   UNL     1       6.516   5.255  18.011  0.00  0.00    +0.000 A 
ATOM      5  C   UNL     1       6.588   5.920  16.777  0.00  0.00    +0.000 A 
ATOM      6  C   UNL     1       7.164   7.191  16.729  0.00  0.00    +0.000 A 
ATOM      7  C   UNL     1       6.145   5.168  15.546  0.00  0.00    +0.000 C 
ATOM      8  C   UNL     1       4.787   4.501  15.756  0.00  0.00    +0.000 C 
ATOM      9  C   UNL     1       4.721   3.847  17.090  0.00  0.00    +0.000 A 
ATOM     10  N   UNL     1       3.872   2.941  17.524  0.00  0.00    +0.000 NA
ATOM     11  N   UNL     1       4.036   2.844  18.890  0.00  0.00    +0.000 NA
ATOM     12  C   UNL     1       4.975   3.693  19.244  0.00  0.00    +0.000 A 
ATOM     13  N   UNL     1       5.522   4.264  18.131  0.00  0.00    +0.000 N 
ENDROOT
BRANCH   1  14
ATOM     14  O   UNL     1       8.299   8.973  17.765  0.00  0.00    +0.000 OA
BRANCH  14  15
ATOM     15  C   UNL     1       8.917   9.434  18.974  0.00  0.00    +0.000 C 
BRANCH  15  19
ATOM     16  C   UNL     1      10.594  13.393  18.478  0.00  0.00    +0.000 A 
ATOM     17  C   UNL     1      11.074  12.555  19.488  0.00  0.00    +0.000 A 
ATOM     18  C   UNL     1      10.527  11.276  19.686  0.00  0.00    +0.000 A 
ATOM     19  C   UNL     1       9.464  10.832  18.889  0.00  0.00    +0.000 A 
ATOM     20  C   UNL     1       8.989  11.681  17.884  0.00  0.00    +0.000 A 
ATOM     21  C   UNL     1       9.538  12.952  17.683  0.00  0.00    +0.000 A 
BRANCH  16  23
ATOM     22  C   UNL     1      12.107  14.943  19.420  0.00  0.00    +0.000 C 
ATOM     23  O   UNL     1      11.205  14.618  18.369  0.00  0.00    +0.000 OA
ENDBRANCH  16  23
ENDBRANCH  15  19
ENDBRANCH  14  15
ENDBRANCH   1  14
TORSDOF 4
ENDMDL
MODEL 9
REMARK VINA RESULT:      -7.5      5.901      8.395
REMARK  Name = 
REMARK  5 active torsions:
REMARK  status: ('A' for Active; 'I' for Inactive)
REMARK    1  A    between atoms: C_1  and  O_2
REMARK    2  A    between atoms: O_2  and  C_3
REMARK    3  A    between atoms: C_6  and  C_7
REMARK    4  A    between atoms: C_7  and  O_8
REMARK    5  A    between atoms: O_8  and  C_9
REMARK                            x       y       z     vdW  Elec       q    Type
REMARK                         _______ _______ _______ _____ _____    ______ ____
ROOT
ATOM      1  C   UNL     1       7.829   7.627  17.753  0.00  0.00    +0.000 A 
ATOM      2  C   UNL     1       8.010   6.852  18.909  0.00  0.00    +0.000 A 
ATOM      3  C   UNL     1       7.291   5.671  19.093  0.00  0.00    +0.000 A 
ATOM      4  C   UNL     1       6.499   5.216  18.050  0.00  0.00    +0.000 A 
ATOM      5  C   UNL     1       6.605   5.795  16.775  0.00  0.00    +0.000 A 
ATOM      6  C   UNL     1       7.176   7.063  16.657  0.00  0.00    +0.000 A 
ATOM      7  C   UNL     1       6.202   4.957  15.587  0.00  0.00    +0.000 C 
ATOM      8  C   UNL     1       4.842   4.298  15.802  0.00  0.00    +0.000 C 
ATOM      9  C   UNL     1       4.739   3.736  17.176  0.00  0.00    +0.000 A 
ATOM     10  N   UNL     1       3.882   2.857  17.646  0.00  0.00    +0.000 NA
ATOM     11  N   UNL     1       4.005   2.855  19.020  0.00  0.00    +0.000 NA
ATOM     12  C   UNL     1       4.930   3.733  19.341  0.00  0.00    +0.000 A 
ATOM     13  N   UNL     1       5.507   4.230  18.208  0.00  0.00    +0.000 N 
ENDROOT
BRANCH   1  14
ATOM     14  O   UNL     1       8.272   8.920  17.600  0.00  0.00    +0.000 OA
BRANCH  14  15
ATOM     15  C   UNL     1       8.817   9.480  18.802  0.00  0.00    +0.000 C 
BRANCH  15  19
ATOM     16  C   UNL     1      10.546  13.440  18.550  0.00  0.00    +0.000 A 
ATOM     17  C   UNL     1       9.394  13.136  17.820  0.00  0.00    +0.000 A 
ATOM     18  C   UNL     1       8.830  11.850  17.864  0.00  0.00    +0.000 A 
ATOM     19  C   UNL     1       9.436  10.838  18.620  0.00  0.00    +0.000 A 
ATOM     20  C   UNL     1      10.592  11.154  19.344  0.00  0.00    +0.000 A 
ATOM     21  C   UNL     1      11.150  12.436  19.304  0.00  0.00    +0.000 A 
BRANCH  16  23
ATOM     22  C   UNL     1      12.115  14.905  17.563  0.00  0.00    +0.000 C 
ATOM     23  O   UNL     1      11.007  14.729  18.439  0.00  0.00    +0.000 OA
ENDBRANCH  16  23
ENDBRANCH  15  19
ENDBRANCH  14  15
ENDBRANCH   1  14
TORSDOF 4
ENDMDL
